REMARK  Name = /home/qwerty/github/datacon2025hack/step_04_hit_selection/docking/ligands/lig_674.pdb
REMARK  4 active torsions:
REMARK  status: ('A' for Active; 'I' for Inactive)
REMARK    1  A    between atoms: C1_1  and  N1_2
REMARK    2  A    between atoms: C4_5  and  N2_6
REMARK    3  A    between atoms: C6_8  and  N3_9
REMARK    4  A    between atoms: C7_10  and  C8_12
REMARK                            x       y       z     vdW  Elec       q    Type
REMARK                         _______ _______ _______ _____ _____    ______ ____
ROOT
ATOM      1  N3  UNL     1      -0.565   0.320  -0.439  0.00  0.00    -0.306 N 
ATOM      2  C7  UNL     1      -1.396   1.491  -0.405  0.00  0.00    +0.244 C 
ATOM      3  O1  UNL     1      -0.869   2.630  -0.533  0.00  0.00    -0.270 OA
ATOM      4  H12 UNL     1      -1.009  -0.617  -0.563  0.00  0.00    +0.149 HD
ENDROOT
BRANCH   2   5
ATOM      5  C8  UNL     1      -2.865   1.385  -0.234  0.00  0.00    +0.037 A 
ATOM      6  C9  UNL     1      -3.706   2.438  -0.675  0.00  0.00    +0.016 A 
ATOM      7  C10 UNL     1      -5.099   2.357  -0.514  0.00  0.00    +0.046 A 
ATOM      8  C11 UNL     1      -5.628   1.223   0.094  0.00  0.00    +0.124 A 
ATOM      9  C12 UNL     1      -4.832   0.206   0.531  0.00  0.00    -0.002 A 
ATOM     10  C13 UNL     1      -3.445   0.254   0.387  0.00  0.00    +0.020 A 
ATOM     11  C14 UNL     1      -5.665  -0.860   1.146  0.00  0.00    +0.080 C 
ATOM     12  C15 UNL     1      -7.101  -0.300   0.990  0.00  0.00    +0.234 C 
ATOM     13  O2  UNL     1      -6.958   0.965   0.343  0.00  0.00    -0.491 OA
ENDBRANCH   2   5
BRANCH   1  16
ATOM     14  N2  UNL     1       2.162  -0.473   1.064  0.00  0.00    -0.288 NA
ATOM     15  C5  UNL     1       1.463   0.811   0.911  0.00  0.00    +0.108 C 
ATOM     16  C6  UNL     1       0.895   0.427  -0.449  0.00  0.00    +0.101 C 
ATOM     17  C16 UNL     1       1.606  -0.903  -0.230  0.00  0.00    +0.108 C 
BRANCH  14  22
ATOM     18  C1  UNL     1       5.824  -0.515  -2.011  0.00  0.00    +0.132 C 
ATOM     19  N1  UNL     1       5.132  -0.734  -0.747  0.00  0.00    -0.303 N 
ATOM     20  C2  UNL     1       5.120  -1.987  -0.016  0.00  0.00    +0.109 C 
ATOM     21  C3  UNL     1       4.305  -1.724   1.266  0.00  0.00    +0.047 C 
ATOM     22  C4  UNL     1       3.644  -0.336   1.119  0.00  0.00    +0.145 C 
ATOM     23  C17 UNL     1       4.298   0.212  -0.109  0.00  0.00    +0.233 C 
ATOM     24  O3  UNL     1       4.172   1.396  -0.520  0.00  0.00    -0.274 OA
ENDBRANCH  14  22
ENDBRANCH   1  16
TORSDOF 3
