REMARK  Name = /home/qwerty/github/datacon2025hack/step_04_hit_selection/docking/ligands/lig_751.pdb
REMARK  9 active torsions:
REMARK  status: ('A' for Active; 'I' for Inactive)
REMARK    1  A    between atoms: C1_1  and  C2_2
REMARK    2  A    between atoms: C7_7  and  N1_8
REMARK    3  A    between atoms: C8_9  and  C9_11
REMARK    4  A    between atoms: N2_13  and  C10_14
REMARK    5  A    between atoms: C12_16  and  C13_17
REMARK    6  A    between atoms: C13_17  and  C14_18
REMARK    7  A    between atoms: C13_17  and  C15_19
REMARK    8  A    between atoms: C13_17  and  C16_20
REMARK    9  A    between atoms: N4_22  and  C17_23
REMARK                            x       y       z     vdW  Elec       q    Type
REMARK                         _______ _______ _______ _____ _____    ______ ____
ROOT
ATOM      1  N1  UNL     1       2.579   0.047  -0.824  0.00  0.00    -0.277 N 
ATOM      2  C8  UNL     1       1.621  -0.200   0.218  0.00  0.00    +0.304 C 
ATOM      3  O1  UNL     1       1.985  -0.755   1.290  0.00  0.00    -0.265 OA
ATOM      4  H6  UNL     1       2.234   0.216  -1.795  0.00  0.00    +0.155 HD
ENDROOT
BRANCH   1  11
ATOM      5  C1  UNL     1       4.110   1.579   1.216  0.00  0.00    +0.046 C 
ATOM      6  C2  UNL     1       4.741   0.533   0.337  0.00  0.00    -0.026 A 
ATOM      7  C3  UNL     1       6.117   0.253   0.496  0.00  0.00    +0.054 A 
ATOM      8  C4  UNL     1       6.700  -0.686  -0.348  0.00  0.00    +0.167 A 
ATOM      9  C5  UNL     1       5.989  -1.333  -1.302  0.00  0.00    +0.168 A 
ATOM     10  C6  UNL     1       4.631  -1.107  -1.490  0.00  0.00    +0.073 A 
ATOM     11  C7  UNL     1       3.984  -0.181  -0.645  0.00  0.00    +0.040 A 
ATOM     12  O3  UNL     1       6.820  -2.196  -1.991  0.00  0.00    -0.453 OA
ATOM     13  C18 UNL     1       8.136  -2.083  -1.432  0.00  0.00    +0.466 C 
ATOM     14  O4  UNL     1       8.015  -1.108  -0.387  0.00  0.00    -0.453 OA
ENDBRANCH   1  11
BRANCH   2  15
ATOM     15  C9  UNL     1       0.205   0.170   0.033  0.00  0.00    +0.305 C 
ATOM     16  O2  UNL     1      -0.160   0.694  -1.054  0.00  0.00    -0.265 OA
ATOM     17  N2  UNL     1      -0.742  -0.022   1.098  0.00  0.00    -0.263 N 
ATOM     18  H7  UNL     1      -0.376  -0.247   2.050  0.00  0.00    +0.157 HD
BRANCH  17  19
ATOM     19  C10 UNL     1      -2.163   0.128   0.944  0.00  0.00    +0.123 A 
ATOM     20  C11 UNL     1      -2.884   0.004  -0.229  0.00  0.00    +0.069 A 
ATOM     21  C12 UNL     1      -4.207   0.167   0.166  0.00  0.00    +0.070 A 
ATOM     22  N3  UNL     1      -4.258   0.352   1.505  0.00  0.00    -0.174 NA
ATOM     23  N4  UNL     1      -3.018   0.332   1.965  0.00  0.00    -0.253 N 
ATOM     24  C17 UNL     1      -2.678   0.468   3.376  0.00  0.00    +0.174 C 
BRANCH  21  25
ATOM     25  C13 UNL     1      -5.449   0.072  -0.705  0.00  0.00    +0.006 C 
ATOM     26  C14 UNL     1      -6.211  -1.216  -0.345  0.00  0.00    +0.017 C 
ATOM     27  C15 UNL     1      -6.349   1.293  -0.433  0.00  0.00    +0.017 C 
ATOM     28  C16 UNL     1      -5.091   0.045  -2.206  0.00  0.00    +0.017 C 
ENDBRANCH  21  25
ENDBRANCH  17  19
ENDBRANCH   2  15
TORSDOF 4
