MODEL 1
REMARK VINA RESULT:    -6.363      0.000      0.000
REMARK INTER + INTRA:          -8.847
REMARK INTER:                  -7.851
REMARK INTRA:                  -0.996
REMARK UNBOUND:                -0.996
REMARK  Name = /home/qwerty/github/datacon2025hack/step_04_hit_selection/docking/ligands/lig_770.pdb
REMARK  7 active torsions:
REMARK  status: ('A' for Active; 'I' for Inactive)
REMARK    1  A    between atoms: C1_1  and  C2_2
REMARK    2  A    between atoms: C2_2  and  C3_3
REMARK    3  A    between atoms: C7_7  and  N1_8
REMARK    4  A    between atoms: N2_11  and  C9_12
REMARK    5  A    between atoms: C11_14  and  C12_15
REMARK    6  A    between atoms: N4_17  and  C13_18
REMARK    7  A    between atoms: C16_21  and  C17_22
REMARK                            x       y       z     vdW  Elec       q    Type
REMARK                         _______ _______ _______ _____ _____    ______ ____
ROOT
ATOM      1  N1  UNL     1      22.174   4.763  34.178  0.00  0.00    -0.296 N 
ATOM      2  C8  UNL     1      21.826   4.096  32.957  0.00  0.00    +0.305 C 
ATOM      3  O1  UNL     1      21.289   4.738  32.013  0.00  0.00    -0.252 OA
ATOM      4  N2  UNL     1      22.133   2.705  32.799  0.00  0.00    -0.254 N 
ATOM      5  H14 UNL     1      22.569   4.191  34.958  0.00  0.00    +0.151 HD
ATOM      6  H15 UNL     1      22.676   2.232  33.557  0.00  0.00    +0.158 HD
ENDROOT
BRANCH   4   7
ATOM      7  C9  UNL     1      21.771   1.945  31.637  0.00  0.00    +0.132 A 
ATOM      8  C10 UNL     1      22.499   1.875  30.466  0.00  0.00    +0.068 A 
ATOM      9  C11 UNL     1      21.681   1.160  29.613  0.00  0.00    +0.062 A 
ATOM     10  C12 UNL     1      22.016   0.760  28.215  0.00  0.00    +0.067 C 
ATOM     11  N3  UNL     1      20.541   0.810  30.243  0.00  0.00    -0.168 NA
ATOM     12  N4  UNL     1      20.594   1.300  31.473  0.00  0.00    -0.198 N 
BRANCH  12  13
ATOM     13  C13 UNL     1      19.569   1.075  32.458  0.00  0.00    +0.178 A 
ATOM     14  C14 UNL     1      18.742  -0.053  32.386  0.00  0.00    +0.052 A 
ATOM     15  C15 UNL     1      17.775  -0.257  33.366  0.00  0.00    +0.028 A 
ATOM     16  C16 UNL     1      17.655   0.665  34.409  0.00  0.00    +0.061 A 
ATOM     17  C17 UNL     1      16.627   0.477  35.478  0.00  0.00    +0.067 C 
ATOM     18  N5  UNL     1      18.488   1.739  34.444  0.00  0.00    -0.153 NA
ATOM     19  N6  UNL     1      19.414   1.934  33.502  0.00  0.00    -0.129 NA
ENDBRANCH  12  13
ENDBRANCH   4   7
BRANCH   1  24
ATOM     20  C3  UNL     1      23.512   6.751  34.845  0.00  0.00    +0.009 C 
ATOM     21  C4  UNL     1      23.405   6.634  36.363  0.00  0.00    +0.005 C 
ATOM     22  C5  UNL     1      21.929   6.870  36.674  0.00  0.00    +0.002 C 
ATOM     23  C6  UNL     1      21.154   6.651  35.371  0.00  0.00    +0.022 C 
ATOM     24  C7  UNL     1      22.174   6.224  34.311  0.00  0.00    +0.078 C 
BRANCH  20  26
ATOM     25  C1  UNL     1      24.958   6.401  32.685  0.00  0.00    +0.004 C 
ATOM     26  C2  UNL     1      24.792   6.163  34.191  0.00  0.00    +0.002 C 
ENDBRANCH  20  26
ENDBRANCH   1  24
TORSDOF 4
ENDMDL
MODEL 2
REMARK VINA RESULT:    -6.216      6.268      9.929
REMARK INTER + INTRA:          -8.666
REMARK INTER:                  -7.564
REMARK INTRA:                  -1.101
REMARK UNBOUND:                -0.996
REMARK  Name = /home/qwerty/github/datacon2025hack/step_04_hit_selection/docking/ligands/lig_770.pdb
REMARK  7 active torsions:
REMARK  status: ('A' for Active; 'I' for Inactive)
REMARK    1  A    between atoms: C1_1  and  C2_2
REMARK    2  A    between atoms: C2_2  and  C3_3
REMARK    3  A    between atoms: C7_7  and  N1_8
REMARK    4  A    between atoms: N2_11  and  C9_12
REMARK    5  A    between atoms: C11_14  and  C12_15
REMARK    6  A    between atoms: N4_17  and  C13_18
REMARK    7  A    between atoms: C16_21  and  C17_22
REMARK                            x       y       z     vdW  Elec       q    Type
REMARK                         _______ _______ _______ _____ _____    ______ ____
ROOT
ATOM      1  N1  UNL     1      22.162   4.795  23.375  0.00  0.00    -0.296 N 
ATOM      2  C8  UNL     1      21.747   4.242  24.632  0.00  0.00    +0.305 C 
ATOM      3  O1  UNL     1      20.965   4.887  25.383  0.00  0.00    -0.252 OA
ATOM      4  N2  UNL     1      22.190   2.931  25.008  0.00  0.00    -0.254 N 
ATOM      5  H14 UNL     1      22.851   4.257  22.803  0.00  0.00    +0.151 HD
ATOM      6  H15 UNL     1      22.745   2.382  24.315  0.00  0.00    +0.158 HD
ENDROOT
BRANCH   4   7
ATOM      7  C9  UNL     1      21.871   2.324  26.269  0.00  0.00    +0.132 A 
ATOM      8  C10 UNL     1      22.613   2.446  27.427  0.00  0.00    +0.068 A 
ATOM      9  C11 UNL     1      21.996   1.575  28.305  0.00  0.00    +0.062 A 
ATOM     10  C12 UNL     1      22.381   1.356  29.729  0.00  0.00    +0.067 C 
ATOM     11  N3  UNL     1      20.940   0.984  27.711  0.00  0.00    -0.168 NA
ATOM     12  N4  UNL     1      20.874   1.434  26.466  0.00  0.00    -0.198 N 
BRANCH  12  13
ATOM     13  C13 UNL     1      19.831   1.061  25.546  0.00  0.00    +0.178 A 
ATOM     14  C14 UNL     1      19.367  -0.259  25.486  0.00  0.00    +0.052 A 
ATOM     15  C15 UNL     1      18.340  -0.585  24.603  0.00  0.00    +0.028 A 
ATOM     16  C16 UNL     1      17.789   0.416  23.800  0.00  0.00    +0.061 A 
ATOM     17  C17 UNL     1      16.686   0.102  22.840  0.00  0.00    +0.067 C 
ATOM     18  N5  UNL     1      18.264   1.686  23.901  0.00  0.00    -0.153 NA
ATOM     19  N6  UNL     1      19.249   1.996  24.747  0.00  0.00    -0.129 NA
ENDBRANCH  12  13
ENDBRANCH   4   7
BRANCH   1  24
ATOM     20  C3  UNL     1      20.635   5.612  21.590  0.00  0.00    +0.009 C 
ATOM     21  C4  UNL     1      21.580   5.544  20.394  0.00  0.00    +0.005 C 
ATOM     22  C5  UNL     1      22.654   6.590  20.680  0.00  0.00    +0.002 C 
ATOM     23  C6  UNL     1      22.598   6.895  22.180  0.00  0.00    +0.022 C 
ATOM     24  C7  UNL     1      21.528   5.978  22.782  0.00  0.00    +0.078 C 
BRANCH  20  26
ATOM     25  C1  UNL     1      18.190   4.663  21.548  0.00  0.00    +0.004 C 
ATOM     26  C2  UNL     1      19.681   4.403  21.793  0.00  0.00    +0.002 C 
ENDBRANCH  20  26
ENDBRANCH   1  24
TORSDOF 4
ENDMDL
MODEL 3
REMARK VINA RESULT:    -6.110     14.621     15.730
REMARK INTER + INTRA:          -8.534
REMARK INTER:                  -7.333
REMARK INTRA:                  -1.201
REMARK UNBOUND:                -0.996
REMARK  Name = /home/qwerty/github/datacon2025hack/step_04_hit_selection/docking/ligands/lig_770.pdb
REMARK  7 active torsions:
REMARK  status: ('A' for Active; 'I' for Inactive)
REMARK    1  A    between atoms: C1_1  and  C2_2
REMARK    2  A    between atoms: C2_2  and  C3_3
REMARK    3  A    between atoms: C7_7  and  N1_8
REMARK    4  A    between atoms: N2_11  and  C9_12
REMARK    5  A    between atoms: C11_14  and  C12_15
REMARK    6  A    between atoms: N4_17  and  C13_18
REMARK    7  A    between atoms: C16_21  and  C17_22
REMARK                            x       y       z     vdW  Elec       q    Type
REMARK                         _______ _______ _______ _____ _____    ______ ____
ROOT
ATOM      1  N1  UNL     1      12.380   7.552  20.537  0.00  0.00    -0.296 N 
ATOM      2  C8  UNL     1      12.725   6.222  20.949  0.00  0.00    +0.305 C 
ATOM      3  O1  UNL     1      12.962   5.975  22.163  0.00  0.00    -0.252 OA
ATOM      4  N2  UNL     1      12.754   5.167  19.979  0.00  0.00    -0.254 N 
ATOM      5  H14 UNL     1      12.242   7.732  19.516  0.00  0.00    +0.151 HD
ATOM      6  H15 UNL     1      12.446   5.385  19.005  0.00  0.00    +0.158 HD
ENDROOT
BRANCH   4   7
ATOM      7  C9  UNL     1      13.143   3.821  20.291  0.00  0.00    +0.132 A 
ATOM      8  C10 UNL     1      14.324   3.219  19.906  0.00  0.00    +0.068 A 
ATOM      9  C11 UNL     1      14.170   1.906  20.308  0.00  0.00    +0.062 A 
ATOM     10  C12 UNL     1      15.190   0.826  20.168  0.00  0.00    +0.067 C 
ATOM     11  N3  UNL     1      12.976   1.740  20.912  0.00  0.00    -0.168 NA
ATOM     12  N4  UNL     1      12.348   2.907  20.889  0.00  0.00    -0.198 N 
BRANCH  12  13
ATOM     13  C13 UNL     1      11.061   3.123  21.498  0.00  0.00    +0.178 A 
ATOM     14  C14 UNL     1      10.769   2.596  22.762  0.00  0.00    +0.052 A 
ATOM     15  C15 UNL     1       9.524   2.841  23.336  0.00  0.00    +0.028 A 
ATOM     16  C16 UNL     1       8.595   3.618  22.641  0.00  0.00    +0.061 A 
ATOM     17  C17 UNL     1       7.248   3.902  23.227  0.00  0.00    +0.067 C 
ATOM     18  N5  UNL     1       8.927   4.119  21.421  0.00  0.00    -0.153 NA
ATOM     19  N6  UNL     1      10.120   3.881  20.872  0.00  0.00    -0.129 NA
ENDBRANCH  12  13
ENDBRANCH   4   7
BRANCH   1  24
ATOM     20  C3  UNL     1      10.784   9.387  21.057  0.00  0.00    +0.009 C 
ATOM     21  C4  UNL     1      11.293  10.451  20.088  0.00  0.00    +0.005 C 
ATOM     22  C5  UNL     1      12.686  10.813  20.596  0.00  0.00    +0.002 C 
ATOM     23  C6  UNL     1      13.141   9.673  21.512  0.00  0.00    +0.022 C 
ATOM     24  C7  UNL     1      12.035   8.613  21.489  0.00  0.00    +0.078 C 
BRANCH  20  26
ATOM     25  C1  UNL     1       8.868   7.698  21.652  0.00  0.00    +0.004 C 
ATOM     26  C2  UNL     1       9.578   8.532  20.579  0.00  0.00    +0.002 C 
ENDBRANCH  20  26
ENDBRANCH   1  24
TORSDOF 4
ENDMDL
MODEL 4
REMARK VINA RESULT:    -6.091      5.833     10.988
REMARK INTER + INTRA:          -8.511
REMARK INTER:                  -7.565
REMARK INTRA:                  -0.946
REMARK UNBOUND:                -0.996
REMARK  Name = /home/qwerty/github/datacon2025hack/step_04_hit_selection/docking/ligands/lig_770.pdb
REMARK  7 active torsions:
REMARK  status: ('A' for Active; 'I' for Inactive)
REMARK    1  A    between atoms: C1_1  and  C2_2
REMARK    2  A    between atoms: C2_2  and  C3_3
REMARK    3  A    between atoms: C7_7  and  N1_8
REMARK    4  A    between atoms: N2_11  and  C9_12
REMARK    5  A    between atoms: C11_14  and  C12_15
REMARK    6  A    between atoms: N4_17  and  C13_18
REMARK    7  A    between atoms: C16_21  and  C17_22
REMARK                            x       y       z     vdW  Elec       q    Type
REMARK                         _______ _______ _______ _____ _____    ______ ____
ROOT
ATOM      1  N1  UNL     1      18.467   0.535  24.088  0.00  0.00    -0.296 N 
ATOM      2  C8  UNL     1      19.081   1.015  25.293  0.00  0.00    +0.305 C 
ATOM      3  O1  UNL     1      18.380   1.562  26.188  0.00  0.00    -0.252 OA
ATOM      4  N2  UNL     1      20.488   0.829  25.492  0.00  0.00    -0.254 N 
ATOM      5  H14 UNL     1      19.084   0.136  23.345  0.00  0.00    +0.151 HD
ATOM      6  H15 UNL     1      21.016   0.275  24.781  0.00  0.00    +0.158 HD
ENDROOT
BRANCH   4   7
ATOM      7  C9  UNL     1      21.193   1.326  26.638  0.00  0.00    +0.132 A 
ATOM      8  C10 UNL     1      21.337   0.663  27.841  0.00  0.00    +0.068 A 
ATOM      9  C11 UNL     1      21.949   1.594  28.658  0.00  0.00    +0.062 A 
ATOM     10  C12 UNL     1      22.375   1.367  30.070  0.00  0.00    +0.067 C 
ATOM     11  N3  UNL     1      22.172   2.737  27.979  0.00  0.00    -0.168 NA
ATOM     12  N4  UNL     1      21.699   2.574  26.751  0.00  0.00    -0.198 N 
BRANCH  12  13
ATOM     13  C13 UNL     1      21.814   3.575  25.722  0.00  0.00    +0.178 A 
ATOM     14  C14 UNL     1      22.932   4.416  25.662  0.00  0.00    +0.052 A 
ATOM     15  C15 UNL     1      23.026   5.358  24.641  0.00  0.00    +0.028 A 
ATOM     16  C16 UNL     1      22.005   5.438  23.691  0.00  0.00    +0.061 A 
ATOM     17  C17 UNL     1      22.073   6.438  22.581  0.00  0.00    +0.067 C 
ATOM     18  N5  UNL     1      20.944   4.593  23.783  0.00  0.00    -0.153 NA
ATOM     19  N6  UNL     1      20.854   3.691  24.763  0.00  0.00    -0.129 NA
ENDBRANCH  12  13
ENDBRANCH   4   7
BRANCH   1  24
ATOM     20  C3  UNL     1      16.547  -1.045  24.040  0.00  0.00    +0.009 C 
ATOM     21  C4  UNL     1      16.724  -1.620  22.637  0.00  0.00    +0.005 C 
ATOM     22  C5  UNL     1      16.460  -0.449  21.694  0.00  0.00    +0.002 C 
ATOM     23  C6  UNL     1      16.603   0.834  22.519  0.00  0.00    +0.022 C 
ATOM     24  C7  UNL     1      17.014   0.412  23.933  0.00  0.00    +0.078 C 
BRANCH  20  26
ATOM     25  C1  UNL     1      17.998  -3.085  24.821  0.00  0.00    +0.004 C 
ATOM     26  C2  UNL     1      17.143  -1.873  25.210  0.00  0.00    +0.002 C 
ENDBRANCH  20  26
ENDBRANCH   1  24
TORSDOF 4
ENDMDL
MODEL 5
REMARK VINA RESULT:    -6.043      2.297      6.718
REMARK INTER + INTRA:          -8.452
REMARK INTER:                  -7.418
REMARK INTRA:                  -1.034
REMARK UNBOUND:                -0.996
REMARK  Name = /home/qwerty/github/datacon2025hack/step_04_hit_selection/docking/ligands/lig_770.pdb
REMARK  7 active torsions:
REMARK  status: ('A' for Active; 'I' for Inactive)
REMARK    1  A    between atoms: C1_1  and  C2_2
REMARK    2  A    between atoms: C2_2  and  C3_3
REMARK    3  A    between atoms: C7_7  and  N1_8
REMARK    4  A    between atoms: N2_11  and  C9_12
REMARK    5  A    between atoms: C11_14  and  C12_15
REMARK    6  A    between atoms: N4_17  and  C13_18
REMARK    7  A    between atoms: C16_21  and  C17_22
REMARK                            x       y       z     vdW  Elec       q    Type
REMARK                         _______ _______ _______ _____ _____    ______ ____
ROOT
ATOM      1  N1  UNL     1      21.091   3.397  31.742  0.00  0.00    -0.296 N 
ATOM      2  C8  UNL     1      21.996   4.423  32.175  0.00  0.00    +0.305 C 
ATOM      3  O1  UNL     1      23.136   4.118  32.620  0.00  0.00    -0.252 OA
ATOM      4  N2  UNL     1      21.612   5.799  32.057  0.00  0.00    -0.254 N 
ATOM      5  H14 UNL     1      20.136   3.682  31.429  0.00  0.00    +0.151 HD
ATOM      6  H15 UNL     1      20.707   6.019  31.584  0.00  0.00    +0.158 HD
ENDROOT
BRANCH   4   7
ATOM      7  C9  UNL     1      22.428   6.886  32.517  0.00  0.00    +0.132 A 
ATOM      8  C10 UNL     1      23.431   7.498  31.792  0.00  0.00    +0.068 A 
ATOM      9  C11 UNL     1      24.012   8.363  32.699  0.00  0.00    +0.062 A 
ATOM     10  C12 UNL     1      25.129   9.308  32.410  0.00  0.00    +0.067 C 
ATOM     11  N3  UNL     1      23.382   8.284  33.889  0.00  0.00    -0.168 NA
ATOM     12  N4  UNL     1      22.425   7.374  33.778  0.00  0.00    -0.198 N 
BRANCH  12  13
ATOM     13  C13 UNL     1      21.506   7.061  34.840  0.00  0.00    +0.178 A 
ATOM     14  C14 UNL     1      21.863   7.263  36.180  0.00  0.00    +0.052 A 
ATOM     15  C15 UNL     1      20.943   6.975  37.185  0.00  0.00    +0.028 A 
ATOM     16  C16 UNL     1      19.678   6.497  36.835  0.00  0.00    +0.061 A 
ATOM     17  C17 UNL     1      18.667   6.176  37.889  0.00  0.00    +0.067 C 
ATOM     18  N5  UNL     1      19.372   6.328  35.521  0.00  0.00    -0.153 NA
ATOM     19  N6  UNL     1      20.255   6.604  34.559  0.00  0.00    -0.129 NA
ENDBRANCH  12  13
ENDBRANCH   4   7
BRANCH   1  24
ATOM     20  C3  UNL     1      21.325   1.551  30.092  0.00  0.00    +0.009 C 
ATOM     21  C4  UNL     1      19.868   1.107  29.997  0.00  0.00    +0.005 C 
ATOM     22  C5  UNL     1      19.538   0.537  31.374  0.00  0.00    +0.002 C 
ATOM     23  C6  UNL     1      20.595   1.070  32.346  0.00  0.00    +0.022 C 
ATOM     24  C7  UNL     1      21.508   2.004  31.546  0.00  0.00    +0.078 C 
BRANCH  20  26
ATOM     25  C1  UNL     1      22.646   1.921  27.857  0.00  0.00    +0.004 C 
ATOM     26  C2  UNL     1      21.826   2.533  28.999  0.00  0.00    +0.002 C 
ENDBRANCH  20  26
ENDBRANCH   1  24
TORSDOF 4
ENDMDL
MODEL 6
REMARK VINA RESULT:    -6.031      1.928      6.843
REMARK INTER + INTRA:          -8.437
REMARK INTER:                  -7.647
REMARK INTRA:                  -0.789
REMARK UNBOUND:                -0.996
REMARK  Name = /home/qwerty/github/datacon2025hack/step_04_hit_selection/docking/ligands/lig_770.pdb
REMARK  7 active torsions:
REMARK  status: ('A' for Active; 'I' for Inactive)
REMARK    1  A    between atoms: C1_1  and  C2_2
REMARK    2  A    between atoms: C2_2  and  C3_3
REMARK    3  A    between atoms: C7_7  and  N1_8
REMARK    4  A    between atoms: N2_11  and  C9_12
REMARK    5  A    between atoms: C11_14  and  C12_15
REMARK    6  A    between atoms: N4_17  and  C13_18
REMARK    7  A    between atoms: C16_21  and  C17_22
REMARK                            x       y       z     vdW  Elec       q    Type
REMARK                         _______ _______ _______ _____ _____    ______ ____
ROOT
ATOM      1  N1  UNL     1      21.771   2.988  31.570  0.00  0.00    -0.296 N 
ATOM      2  C8  UNL     1      22.078   4.382  31.718  0.00  0.00    +0.305 C 
ATOM      3  O1  UNL     1      21.652   5.219  30.877  0.00  0.00    -0.252 OA
ATOM      4  N2  UNL     1      22.835   4.821  32.853  0.00  0.00    -0.254 N 
ATOM      5  H14 UNL     1      22.185   2.316  32.255  0.00  0.00    +0.151 HD
ATOM      6  H15 UNL     1      23.077   4.117  33.586  0.00  0.00    +0.158 HD
ENDROOT
BRANCH   4   7
ATOM      7  C9  UNL     1      23.236   6.185  33.052  0.00  0.00    +0.132 A 
ATOM      8  C10 UNL     1      24.227   6.839  32.348  0.00  0.00    +0.068 A 
ATOM      9  C11 UNL     1      24.341   8.055  32.994  0.00  0.00    +0.062 A 
ATOM     10  C12 UNL     1      25.251   9.169  32.600  0.00  0.00    +0.067 C 
ATOM     11  N3  UNL     1      23.459   8.128  34.011  0.00  0.00    -0.168 NA
ATOM     12  N4  UNL     1      22.795   6.981  34.051  0.00  0.00    -0.198 N 
BRANCH  12  13
ATOM     13  C13 UNL     1      21.727   6.719  34.980  0.00  0.00    +0.178 A 
ATOM     14  C14 UNL     1      21.802   7.169  36.304  0.00  0.00    +0.052 A 
ATOM     15  C15 UNL     1      20.742   6.921  37.173  0.00  0.00    +0.028 A 
ATOM     16  C16 UNL     1      19.620   6.236  36.701  0.00  0.00    +0.061 A 
ATOM     17  C17 UNL     1      18.464   5.953  37.607  0.00  0.00    +0.067 C 
ATOM     18  N5  UNL     1      19.587   5.829  35.405  0.00  0.00    -0.153 NA
ATOM     19  N6  UNL     1      20.604   6.065  34.573  0.00  0.00    -0.129 NA
ENDBRANCH  12  13
ENDBRANCH   4   7
BRANCH   1  24
ATOM     20  C3  UNL     1      20.476   1.001  30.820  0.00  0.00    +0.009 C 
ATOM     21  C4  UNL     1      21.556   0.280  30.018  0.00  0.00    +0.005 C 
ATOM     22  C5  UNL     1      21.842   1.194  28.830  0.00  0.00    +0.002 C 
ATOM     23  C6  UNL     1      21.309   2.584  29.193  0.00  0.00    +0.022 C 
ATOM     24  C7  UNL     1      20.766   2.495  30.622  0.00  0.00    +0.078 C 
BRANCH  20  26
ATOM     25  C1  UNL     1      18.876  -0.009  32.635  0.00  0.00    +0.004 C 
ATOM     26  C2  UNL     1      20.268   0.531  32.285  0.00  0.00    +0.002 C 
ENDBRANCH  20  26
ENDBRANCH   1  24
TORSDOF 4
ENDMDL
MODEL 7
REMARK VINA RESULT:    -5.992      1.811      5.637
REMARK INTER + INTRA:          -8.388
REMARK INTER:                  -7.115
REMARK INTRA:                  -1.273
REMARK UNBOUND:                -0.996
REMARK  Name = /home/qwerty/github/datacon2025hack/step_04_hit_selection/docking/ligands/lig_770.pdb
REMARK  7 active torsions:
REMARK  status: ('A' for Active; 'I' for Inactive)
REMARK    1  A    between atoms: C1_1  and  C2_2
REMARK    2  A    between atoms: C2_2  and  C3_3
REMARK    3  A    between atoms: C7_7  and  N1_8
REMARK    4  A    between atoms: N2_11  and  C9_12
REMARK    5  A    between atoms: C11_14  and  C12_15
REMARK    6  A    between atoms: N4_17  and  C13_18
REMARK    7  A    between atoms: C16_21  and  C17_22
REMARK                            x       y       z     vdW  Elec       q    Type
REMARK                         _______ _______ _______ _____ _____    ______ ____
ROOT
ATOM      1  N1  UNL     1      18.447   0.641  34.488  0.00  0.00    -0.296 N 
ATOM      2  C8  UNL     1      18.933   1.027  33.195  0.00  0.00    +0.305 C 
ATOM      3  O1  UNL     1      18.163   1.589  32.368  0.00  0.00    -0.252 OA
ATOM      4  N2  UNL     1      20.311   0.811  32.864  0.00  0.00    -0.254 N 
ATOM      5  H14 UNL     1      19.098   0.130  35.127  0.00  0.00    +0.151 HD
ATOM      6  H15 UNL     1      20.944   0.445  33.610  0.00  0.00    +0.158 HD
ENDROOT
BRANCH   4   7
ATOM      7  C9  UNL     1      20.868   1.113  31.577  0.00  0.00    +0.132 A 
ATOM      8  C10 UNL     1      20.899   0.256  30.495  0.00  0.00    +0.068 A 
ATOM      9  C11 UNL     1      21.656   0.934  29.559  0.00  0.00    +0.062 A 
ATOM     10  C12 UNL     1      21.961   0.461  28.177  0.00  0.00    +0.067 C 
ATOM     11  N3  UNL     1      22.039   2.131  30.047  0.00  0.00    -0.168 NA
ATOM     12  N4  UNL     1      21.567   2.232  31.282  0.00  0.00    -0.198 N 
BRANCH  12  13
ATOM     13  C13 UNL     1      21.734   3.407  32.096  0.00  0.00    +0.178 A 
ATOM     14  C14 UNL     1      21.886   4.670  31.510  0.00  0.00    +0.052 A 
ATOM     15  C15 UNL     1      22.021   5.791  32.324  0.00  0.00    +0.028 A 
ATOM     16  C16 UNL     1      21.992   5.634  33.712  0.00  0.00    +0.061 A 
ATOM     17  C17 UNL     1      22.134   6.816  34.616  0.00  0.00    +0.067 C 
ATOM     18  N5  UNL     1      21.830   4.390  34.236  0.00  0.00    -0.153 NA
ATOM     19  N6  UNL     1      21.703   3.315  33.455  0.00  0.00    -0.129 NA
ENDBRANCH  12  13
ENDBRANCH   4   7
BRANCH   1  24
ATOM     20  C3  UNL     1      17.320   2.070  36.182  0.00  0.00    +0.009 C 
ATOM     21  C4  UNL     1      17.494   1.189  37.417  0.00  0.00    +0.005 C 
ATOM     22  C5  UNL     1      16.651  -0.052  37.138  0.00  0.00    +0.002 C 
ATOM     23  C6  UNL     1      16.401  -0.096  35.627  0.00  0.00    +0.022 C 
ATOM     24  C7  UNL     1      17.154   1.089  35.015  0.00  0.00    +0.078 C 
BRANCH  20  26
ATOM     25  C1  UNL     1      18.043   4.242  34.902  0.00  0.00    +0.004 C 
ATOM     26  C2  UNL     1      18.363   3.203  35.984  0.00  0.00    +0.002 C 
ENDBRANCH  20  26
ENDBRANCH   1  24
TORSDOF 4
ENDMDL
MODEL 8
REMARK VINA RESULT:    -5.922     11.658     14.595
REMARK INTER + INTRA:          -8.302
REMARK INTER:                  -7.032
REMARK INTRA:                  -1.270
REMARK UNBOUND:                -0.996
REMARK  Name = /home/qwerty/github/datacon2025hack/step_04_hit_selection/docking/ligands/lig_770.pdb
REMARK  7 active torsions:
REMARK  status: ('A' for Active; 'I' for Inactive)
REMARK    1  A    between atoms: C1_1  and  C2_2
REMARK    2  A    between atoms: C2_2  and  C3_3
REMARK    3  A    between atoms: C7_7  and  N1_8
REMARK    4  A    between atoms: N2_11  and  C9_12
REMARK    5  A    between atoms: C11_14  and  C12_15
REMARK    6  A    between atoms: N4_17  and  C13_18
REMARK    7  A    between atoms: C16_21  and  C17_22
REMARK                            x       y       z     vdW  Elec       q    Type
REMARK                         _______ _______ _______ _____ _____    ______ ____
ROOT
ATOM      1  N1  UNL     1      12.551  -0.085  24.782  0.00  0.00    -0.296 N 
ATOM      2  C8  UNL     1      11.995   1.145  24.299  0.00  0.00    +0.305 C 
ATOM      3  O1  UNL     1      12.390   2.248  24.767  0.00  0.00    -0.252 OA
ATOM      4  N2  UNL     1      11.019   1.115  23.249  0.00  0.00    -0.254 N 
ATOM      5  H14 UNL     1      12.163  -0.982  24.411  0.00  0.00    +0.151 HD
ATOM      6  H15 UNL     1      10.797   0.194  22.811  0.00  0.00    +0.158 HD
ENDROOT
BRANCH   4   7
ATOM      7  C9  UNL     1      10.369   2.291  22.745  0.00  0.00    +0.132 A 
ATOM      8  C10 UNL     1       9.080   2.685  23.044  0.00  0.00    +0.068 A 
ATOM      9  C11 UNL     1       8.867   3.769  22.215  0.00  0.00    +0.062 A 
ATOM     10  C12 UNL     1       7.631   4.604  22.172  0.00  0.00    +0.067 C 
ATOM     11  N3  UNL     1       9.969   4.018  21.478  0.00  0.00    -0.168 NA
ATOM     12  N4  UNL     1      10.878   3.107  21.795  0.00  0.00    -0.198 N 
BRANCH  12  13
ATOM     13  C13 UNL     1      12.208   3.095  21.244  0.00  0.00    +0.178 A 
ATOM     14  C14 UNL     1      12.937   4.283  21.105  0.00  0.00    +0.052 A 
ATOM     15  C15 UNL     1      14.231   4.237  20.591  0.00  0.00    +0.028 A 
ATOM     16  C16 UNL     1      14.778   3.002  20.233  0.00  0.00    +0.061 A 
ATOM     17  C17 UNL     1      16.164   2.916  19.678  0.00  0.00    +0.067 C 
ATOM     18  N5  UNL     1      14.038   1.875  20.397  0.00  0.00    -0.153 NA
ATOM     19  N6  UNL     1      12.797   1.920  20.888  0.00  0.00    -0.129 NA
ENDBRANCH  12  13
ENDBRANCH   4   7
BRANCH   1  24
ATOM     20  C3  UNL     1      14.755  -1.185  25.131  0.00  0.00    +0.009 C 
ATOM     21  C4  UNL     1      14.289  -2.499  25.752  0.00  0.00    +0.005 C 
ATOM     22  C5  UNL     1      13.684  -2.108  27.097  0.00  0.00    +0.002 C 
ATOM     23  C6  UNL     1      13.380  -0.608  27.034  0.00  0.00    +0.022 C 
ATOM     24  C7  UNL     1      13.751  -0.135  25.625  0.00  0.00    +0.078 C 
BRANCH  20  26
ATOM     25  C1  UNL     1      15.723   0.045  23.027  0.00  0.00    +0.004 C 
ATOM     26  C2  UNL     1      15.038  -1.199  23.604  0.00  0.00    +0.002 C 
ENDBRANCH  20  26
ENDBRANCH   1  24
TORSDOF 4
ENDMDL
MODEL 9
REMARK VINA RESULT:    -5.814      6.509      9.749
REMARK INTER + INTRA:          -8.168
REMARK INTER:                  -7.356
REMARK INTRA:                  -0.812
REMARK UNBOUND:                -0.996
REMARK  Name = /home/qwerty/github/datacon2025hack/step_04_hit_selection/docking/ligands/lig_770.pdb
REMARK  7 active torsions:
REMARK  status: ('A' for Active; 'I' for Inactive)
REMARK    1  A    between atoms: C1_1  and  C2_2
REMARK    2  A    between atoms: C2_2  and  C3_3
REMARK    3  A    between atoms: C7_7  and  N1_8
REMARK    4  A    between atoms: N2_11  and  C9_12
REMARK    5  A    between atoms: C11_14  and  C12_15
REMARK    6  A    between atoms: N4_17  and  C13_18
REMARK    7  A    between atoms: C16_21  and  C17_22
REMARK                            x       y       z     vdW  Elec       q    Type
REMARK                         _______ _______ _______ _____ _____    ______ ____
ROOT
ATOM      1  N1  UNL     1      20.324   1.154  26.487  0.00  0.00    -0.296 N 
ATOM      2  C8  UNL     1      18.989   0.667  26.292  0.00  0.00    +0.305 C 
ATOM      3  O1  UNL     1      18.087   0.936  27.132  0.00  0.00    -0.252 OA
ATOM      4  N2  UNL     1      18.678  -0.089  25.115  0.00  0.00    -0.254 N 
ATOM      5  H14 UNL     1      21.059   0.868  25.801  0.00  0.00    +0.151 HD
ATOM      6  H15 UNL     1      19.422  -0.199  24.390  0.00  0.00    +0.158 HD
ENDROOT
BRANCH   4   7
ATOM      7  C9  UNL     1      17.386  -0.663  24.867  0.00  0.00    +0.132 A 
ATOM      8  C10 UNL     1      16.861  -1.765  25.512  0.00  0.00    +0.068 A 
ATOM      9  C11 UNL     1      15.685  -2.014  24.833  0.00  0.00    +0.062 A 
ATOM     10  C12 UNL     1      14.699  -3.085  25.160  0.00  0.00    +0.067 C 
ATOM     11  N3  UNL     1      15.510  -1.104  23.853  0.00  0.00    -0.168 NA
ATOM     12  N4  UNL     1      16.555  -0.290  23.869  0.00  0.00    -0.198 N 
BRANCH  12  13
ATOM     13  C13 UNL     1      16.684   0.846  22.994  0.00  0.00    +0.178 A 
ATOM     14  C14 UNL     1      16.223   0.789  21.672  0.00  0.00    +0.052 A 
ATOM     15  C15 UNL     1      16.340   1.911  20.857  0.00  0.00    +0.028 A 
ATOM     16  C16 UNL     1      16.908   3.076  21.377  0.00  0.00    +0.061 A 
ATOM     17  C17 UNL     1      17.049   4.299  20.529  0.00  0.00    +0.067 C 
ATOM     18  N5  UNL     1      17.331   3.088  22.669  0.00  0.00    -0.153 NA
ATOM     19  N6  UNL     1      17.220   2.012  23.449  0.00  0.00    -0.129 NA
ENDBRANCH  12  13
ENDBRANCH   4   7
BRANCH   1  24
ATOM     20  C3  UNL     1      22.092   2.691  27.322  0.00  0.00    +0.009 C 
ATOM     21  C4  UNL     1      22.964   1.692  28.078  0.00  0.00    +0.005 C 
ATOM     22  C5  UNL     1      22.099   1.212  29.240  0.00  0.00    +0.002 C 
ATOM     23  C6  UNL     1      20.647   1.550  28.889  0.00  0.00    +0.022 C 
ATOM     24  C7  UNL     1      20.658   2.172  27.489  0.00  0.00    +0.078 C 
BRANCH  20  26
ATOM     25  C1  UNL     1      22.506   4.528  25.497  0.00  0.00    +0.004 C 
ATOM     26  C2  UNL     1      22.531   3.042  25.875  0.00  0.00    +0.002 C 
ENDBRANCH  20  26
ENDBRANCH   1  24
TORSDOF 4
ENDMDL
