MODEL 1
REMARK VINA RESULT:    -6.334      0.000      0.000
REMARK INTER + INTRA:          -7.876
REMARK INTER:                  -7.445
REMARK INTRA:                  -0.431
REMARK UNBOUND:                -0.431
REMARK  Name = /home/qwerty/github/datacon2025hack/step_04_hit_selection/docking/ligands/lig_163.pdb
REMARK  5 active torsions:
REMARK  status: ('A' for Active; 'I' for Inactive)
REMARK    1  A    between atoms: C1_1  and  C2_2
REMARK    2  A    between atoms: C2_2  and  N1_3
REMARK    3  A    between atoms: C2_2  and  C11_18
REMARK    4  A    between atoms: C6_9  and  C7_10
REMARK    5  A    between atoms: N5_21  and  C13_22
REMARK                            x       y       z     vdW  Elec       q    Type
REMARK                         _______ _______ _______ _____ _____    ______ ____
ROOT
ATOM      1  N1  UNL     1      22.750   1.361  28.055  0.00  0.00    -0.292 N 
ATOM      2  C3  UNL     1      22.125   2.247  27.116  0.00  0.00    +0.305 C 
ATOM      3  O1  UNL     1      20.893   2.135  26.870  0.00  0.00    -0.252 OA
ATOM      4  N2  UNL     1      22.903   3.279  26.491  0.00  0.00    -0.251 N 
ATOM      5  C4  UNL     1      22.446   4.114  25.417  0.00  0.00    +0.169 A 
ATOM      6  C5  UNL     1      21.360   3.892  24.589  0.00  0.00    +0.097 A 
ATOM      7  C6  UNL     1      21.408   4.960  23.717  0.00  0.00    +0.176 A 
ATOM      8  O2  UNL     1      22.438   5.716  24.020  0.00  0.00    -0.352 OA
ATOM      9  N3  UNL     1      23.091   5.235  25.038  0.00  0.00    -0.062 NA
ATOM     10  H5  UNL     1      23.773   1.473  28.236  0.00  0.00    +0.151 HD
ATOM     11  H6  UNL     1      23.861   3.462  26.865  0.00  0.00    +0.158 HD
ENDROOT
BRANCH   7  12
ATOM     12  C7  UNL     1      20.479   5.228  22.613  0.00  0.00    +0.059 A 
ATOM     13  C8  UNL     1      19.319   4.508  22.343  0.00  0.00    +0.021 A 
ATOM     14  C9  UNL     1      18.623   4.984  21.226  0.00  0.00    +0.028 A 
ATOM     15  C10 UNL     1      19.236   6.074  20.626  0.00  0.00    +0.079 A 
ATOM     16 CL1  UNL     1      18.649   6.925  19.212  0.00  0.00    -0.076 Cl
ATOM     17  S1  UNL     1      20.639   6.454  21.468  0.00  0.00    -0.074 S 
ENDBRANCH   7  12
BRANCH   1  19
ATOM     18  C1  UNL     1      22.838  -0.961  28.878  0.00  0.00    +0.033 C 
ATOM     19  C2  UNL     1      22.000   0.314  28.757  0.00  0.00    +0.105 C 
BRANCH  19  20
ATOM     20  C11 UNL     1      21.594   0.794  30.122  0.00  0.00    +0.010 A 
ATOM     21  C12 UNL     1      20.542   0.339  30.898  0.00  0.00    +0.139 A 
ATOM     22  N4  UNL     1      20.469   1.080  32.022  0.00  0.00    -0.180 NA
ATOM     23  N5  UNL     1      21.444   1.974  31.975  0.00  0.00    -0.274 N 
ATOM     24  C13 UNL     1      21.647   3.008  32.980  0.00  0.00    +0.172 C 
ATOM     25  C14 UNL     1      22.137   1.846  30.828  0.00  0.00    +0.113 A 
ENDBRANCH  19  20
ENDBRANCH   1  19
TORSDOF 3
ENDMDL
MODEL 2
REMARK VINA RESULT:    -6.304     14.251     15.633
REMARK INTER + INTRA:          -7.840
REMARK INTER:                  -7.429
REMARK INTRA:                  -0.411
REMARK UNBOUND:                -0.431
REMARK  Name = /home/qwerty/github/datacon2025hack/step_04_hit_selection/docking/ligands/lig_163.pdb
REMARK  5 active torsions:
REMARK  status: ('A' for Active; 'I' for Inactive)
REMARK    1  A    between atoms: C1_1  and  C2_2
REMARK    2  A    between atoms: C2_2  and  N1_3
REMARK    3  A    between atoms: C2_2  and  C11_18
REMARK    4  A    between atoms: C6_9  and  C7_10
REMARK    5  A    between atoms: N5_21  and  C13_22
REMARK                            x       y       z     vdW  Elec       q    Type
REMARK                         _______ _______ _______ _____ _____    ______ ____
ROOT
ATOM      1  N1  UNL     1       9.356  13.777  28.321  0.00  0.00    -0.292 N 
ATOM      2  C3  UNL     1      10.781  13.871  28.463  0.00  0.00    +0.305 C 
ATOM      3  O1  UNL     1      11.350  13.333  29.451  0.00  0.00    -0.252 OA
ATOM      4  N2  UNL     1      11.549  14.548  27.457  0.00  0.00    -0.251 N 
ATOM      5  C4  UNL     1      12.946  14.859  27.562  0.00  0.00    +0.169 A 
ATOM      6  C5  UNL     1      13.714  14.874  28.713  0.00  0.00    +0.097 A 
ATOM      7  C6  UNL     1      14.952  15.282  28.257  0.00  0.00    +0.176 A 
ATOM      8  O2  UNL     1      14.886  15.487  26.962  0.00  0.00    -0.352 OA
ATOM      9  N3  UNL     1      13.690  15.247  26.508  0.00  0.00    -0.062 NA
ATOM     10  H5  UNL     1       8.910  14.237  27.495  0.00  0.00    +0.151 HD
ATOM     11  H6  UNL     1      11.068  14.804  26.566  0.00  0.00    +0.158 HD
ENDROOT
BRANCH   7  12
ATOM     12  C7  UNL     1      16.160  15.473  29.067  0.00  0.00    +0.059 A 
ATOM     13  C8  UNL     1      16.888  16.655  29.162  0.00  0.00    +0.021 A 
ATOM     14  C9  UNL     1      17.999  16.551  30.007  0.00  0.00    +0.028 A 
ATOM     15  C10 UNL     1      18.139  15.292  30.572  0.00  0.00    +0.079 A 
ATOM     16 CL1  UNL     1      19.408  14.801  31.674  0.00  0.00    -0.076 Cl
ATOM     17  S1  UNL     1      16.894  14.301  30.030  0.00  0.00    -0.074 S 
ENDBRANCH   7  12
BRANCH   1  19
ATOM     18  C1  UNL     1       7.292  13.899  29.663  0.00  0.00    +0.033 C 
ATOM     19  C2  UNL     1       8.521  13.065  29.294  0.00  0.00    +0.105 C 
BRANCH  19  20
ATOM     20  C11 UNL     1       8.093  11.737  28.733  0.00  0.00    +0.010 A 
ATOM     21  C12 UNL     1       7.529  10.675  29.419  0.00  0.00    +0.139 A 
ATOM     22  N4  UNL     1       7.360   9.641  28.570  0.00  0.00    -0.180 NA
ATOM     23  N5  UNL     1       7.793  10.027  27.380  0.00  0.00    -0.274 N 
ATOM     24  C13 UNL     1       7.844   9.157  26.213  0.00  0.00    +0.172 C 
ATOM     25  C14 UNL     1       8.264  11.286  27.443  0.00  0.00    +0.113 A 
ENDBRANCH  19  20
ENDBRANCH   1  19
TORSDOF 3
ENDMDL
MODEL 3
REMARK VINA RESULT:    -6.242      6.352     10.216
REMARK INTER + INTRA:          -7.768
REMARK INTER:                  -7.341
REMARK INTRA:                  -0.427
REMARK UNBOUND:                -0.431
REMARK  Name = /home/qwerty/github/datacon2025hack/step_04_hit_selection/docking/ligands/lig_163.pdb
REMARK  5 active torsions:
REMARK  status: ('A' for Active; 'I' for Inactive)
REMARK    1  A    between atoms: C1_1  and  C2_2
REMARK    2  A    between atoms: C2_2  and  N1_3
REMARK    3  A    between atoms: C2_2  and  C11_18
REMARK    4  A    between atoms: C6_9  and  C7_10
REMARK    5  A    between atoms: N5_21  and  C13_22
REMARK                            x       y       z     vdW  Elec       q    Type
REMARK                         _______ _______ _______ _____ _____    ______ ____
ROOT
ATOM      1  N1  UNL     1      21.863   0.466  30.000  0.00  0.00    -0.292 N 
ATOM      2  C3  UNL     1      20.882   0.977  30.914  0.00  0.00    +0.305 C 
ATOM      3  O1  UNL     1      20.824   2.215  31.146  0.00  0.00    -0.252 OA
ATOM      4  N2  UNL     1      19.950   0.075  31.529  0.00  0.00    -0.251 N 
ATOM      5  C4  UNL     1      19.039   0.427  32.580  0.00  0.00    +0.169 A 
ATOM      6  C5  UNL     1      19.098   1.541  33.398  0.00  0.00    +0.097 A 
ATOM      7  C6  UNL     1      18.028   1.360  34.250  0.00  0.00    +0.176 A 
ATOM      8  O2  UNL     1      17.422   0.236  33.945  0.00  0.00    -0.352 OA
ATOM      9  N3  UNL     1      18.006  -0.358  32.946  0.00  0.00    -0.062 NA
ATOM     10  H5  UNL     1      21.891  -0.565  29.830  0.00  0.00    +0.151 HD
ATOM     11  H6  UNL     1      19.903  -0.903  31.163  0.00  0.00    +0.158 HD
ENDROOT
BRANCH   7  12
ATOM     12  C7  UNL     1      17.615   2.257  35.336  0.00  0.00    +0.059 A 
ATOM     13  C8  UNL     1      18.266   3.431  35.703  0.00  0.00    +0.021 A 
ATOM     14  C9  UNL     1      17.653   4.088  36.776  0.00  0.00    +0.028 A 
ATOM     15  C10 UNL     1      16.526   3.430  37.246  0.00  0.00    +0.079 A 
ATOM     16 CL1  UNL     1      15.513   3.960  38.573  0.00  0.00    -0.076 Cl
ATOM     17  S1  UNL     1      16.282   2.035  36.342  0.00  0.00    -0.074 S 
ENDBRANCH   7  12
BRANCH   1  19
ATOM     18  C1  UNL     1      24.185   0.668  29.201  0.00  0.00    +0.033 C 
ATOM     19  C2  UNL     1      22.815   1.341  29.309  0.00  0.00    +0.105 C 
BRANCH  19  20
ATOM     20  C11 UNL     1      22.301   1.687  27.939  0.00  0.00    +0.010 A 
ATOM     21  C12 UNL     1      22.656   2.771  27.155  0.00  0.00    +0.139 A 
ATOM     22  N4  UNL     1      21.914   2.762  26.029  0.00  0.00    -0.180 NA
ATOM     23  N5  UNL     1      21.118   1.706  26.083  0.00  0.00    -0.274 N 
ATOM     24  C13 UNL     1      20.111   1.395  25.078  0.00  0.00    +0.172 C 
ATOM     25  C14 UNL     1      21.309   1.039  27.237  0.00  0.00    +0.113 A 
ENDBRANCH  19  20
ENDBRANCH   1  19
TORSDOF 3
ENDMDL
MODEL 4
REMARK VINA RESULT:    -6.209      4.245      6.535
REMARK INTER + INTRA:          -7.728
REMARK INTER:                  -7.527
REMARK INTRA:                  -0.201
REMARK UNBOUND:                -0.431
REMARK  Name = /home/qwerty/github/datacon2025hack/step_04_hit_selection/docking/ligands/lig_163.pdb
REMARK  5 active torsions:
REMARK  status: ('A' for Active; 'I' for Inactive)
REMARK    1  A    between atoms: C1_1  and  C2_2
REMARK    2  A    between atoms: C2_2  and  N1_3
REMARK    3  A    between atoms: C2_2  and  C11_18
REMARK    4  A    between atoms: C6_9  and  C7_10
REMARK    5  A    between atoms: N5_21  and  C13_22
REMARK                            x       y       z     vdW  Elec       q    Type
REMARK                         _______ _______ _______ _____ _____    ______ ____
ROOT
ATOM      1  N1  UNL     1      18.770   0.727  33.408  0.00  0.00    -0.292 N 
ATOM      2  C3  UNL     1      19.471   1.135  32.225  0.00  0.00    +0.305 C 
ATOM      3  O1  UNL     1      19.384   2.327  31.824  0.00  0.00    -0.252 OA
ATOM      4  N2  UNL     1      20.295   0.188  31.529  0.00  0.00    -0.251 N 
ATOM      5  C4  UNL     1      20.907   0.417  30.251  0.00  0.00    +0.169 A 
ATOM      6  C5  UNL     1      20.579   1.397  29.331  0.00  0.00    +0.097 A 
ATOM      7  C6  UNL     1      21.431   1.133  28.277  0.00  0.00    +0.176 A 
ATOM      8  O2  UNL     1      22.170   0.089  28.573  0.00  0.00    -0.352 OA
ATOM      9  N3  UNL     1      21.879  -0.374  29.754  0.00  0.00    -0.062 NA
ATOM     10  H5  UNL     1      18.855  -0.269  33.716  0.00  0.00    +0.151 HD
ATOM     11  H6  UNL     1      20.495  -0.723  31.999  0.00  0.00    +0.158 HD
ENDROOT
BRANCH   7  12
ATOM     12  C7  UNL     1      21.513   1.876  27.014  0.00  0.00    +0.059 A 
ATOM     13  C8  UNL     1      22.529   2.758  26.663  0.00  0.00    +0.021 A 
ATOM     14  C9  UNL     1      22.351   3.328  25.397  0.00  0.00    +0.028 A 
ATOM     15  C10 UNL     1      21.199   2.891  24.761  0.00  0.00    +0.079 A 
ATOM     16 CL1  UNL     1      20.659   3.391  23.171  0.00  0.00    -0.076 Cl
ATOM     17  S1  UNL     1      20.395   1.803  25.756  0.00  0.00    -0.074 S 
ENDBRANCH   7  12
BRANCH   1  19
ATOM     18  C1  UNL     1      16.646   1.976  33.444  0.00  0.00    +0.033 C 
ATOM     19  C2  UNL     1      17.946   1.657  34.186  0.00  0.00    +0.105 C 
BRANCH  19  20
ATOM     20  C11 UNL     1      17.638   1.072  35.536  0.00  0.00    +0.010 A 
ATOM     21  C12 UNL     1      18.060   1.533  36.772  0.00  0.00    +0.139 A 
ATOM     22  N4  UNL     1      17.631   0.686  37.729  0.00  0.00    -0.180 NA
ATOM     23  N5  UNL     1      16.951  -0.280  37.132  0.00  0.00    -0.274 N 
ATOM     24  C13 UNL     1      16.390  -1.429  37.830  0.00  0.00    +0.172 C 
ATOM     25  C14 UNL     1      16.949  -0.092  35.799  0.00  0.00    +0.113 A 
ENDBRANCH  19  20
ENDBRANCH   1  19
TORSDOF 3
ENDMDL
MODEL 5
REMARK VINA RESULT:    -5.997      5.723      9.641
REMARK INTER + INTRA:          -7.479
REMARK INTER:                  -7.154
REMARK INTRA:                  -0.325
REMARK UNBOUND:                -0.431
REMARK  Name = /home/qwerty/github/datacon2025hack/step_04_hit_selection/docking/ligands/lig_163.pdb
REMARK  5 active torsions:
REMARK  status: ('A' for Active; 'I' for Inactive)
REMARK    1  A    between atoms: C1_1  and  C2_2
REMARK    2  A    between atoms: C2_2  and  N1_3
REMARK    3  A    between atoms: C2_2  and  C11_18
REMARK    4  A    between atoms: C6_9  and  C7_10
REMARK    5  A    between atoms: N5_21  and  C13_22
REMARK                            x       y       z     vdW  Elec       q    Type
REMARK                         _______ _______ _______ _____ _____    ______ ____
ROOT
ATOM      1  N1  UNL     1      21.138  -0.050  30.148  0.00  0.00    -0.292 N 
ATOM      2  C3  UNL     1      20.604   0.982  30.990  0.00  0.00    +0.305 C 
ATOM      3  O1  UNL     1      21.173   2.105  31.043  0.00  0.00    -0.252 OA
ATOM      4  N2  UNL     1      19.403   0.735  31.737  0.00  0.00    -0.251 N 
ATOM      5  C4  UNL     1      18.864   1.612  32.737  0.00  0.00    +0.169 A 
ATOM      6  C5  UNL     1      19.522   2.642  33.387  0.00  0.00    +0.097 A 
ATOM      7  C6  UNL     1      18.569   3.114  34.267  0.00  0.00    +0.176 A 
ATOM      8  O2  UNL     1      17.472   2.406  34.132  0.00  0.00    -0.352 OA
ATOM      9  N3  UNL     1      17.614   1.487  33.222  0.00  0.00    -0.062 NA
ATOM     10  H5  UNL     1      20.648  -0.974  30.126  0.00  0.00    +0.151 HD
ATOM     11  H6  UNL     1      18.859  -0.128  31.515  0.00  0.00    +0.158 HD
ENDROOT
BRANCH   7  12
ATOM     12  C7  UNL     1      18.732   4.219  35.219  0.00  0.00    +0.059 A 
ATOM     13  C8  UNL     1      18.077   4.333  36.441  0.00  0.00    +0.021 A 
ATOM     14  C9  UNL     1      18.421   5.493  37.144  0.00  0.00    +0.028 A 
ATOM     15  C10 UNL     1      19.344   6.283  36.474  0.00  0.00    +0.079 A 
ATOM     16 CL1  UNL     1      20.001   7.800  37.052  0.00  0.00    -0.076 Cl
ATOM     17  S1  UNL     1      19.737   5.555  35.012  0.00  0.00    -0.074 S 
ENDBRANCH   7  12
BRANCH   1  19
ATOM     18  C1  UNL     1      22.898  -1.187  28.851  0.00  0.00    +0.033 C 
ATOM     19  C2  UNL     1      22.337   0.154  29.330  0.00  0.00    +0.105 C 
BRANCH  19  20
ATOM     20  C11 UNL     1      22.016   1.028  28.149  0.00  0.00    +0.010 A 
ATOM     21  C12 UNL     1      21.033   0.828  27.195  0.00  0.00    +0.139 A 
ATOM     22  N4  UNL     1      21.120   1.798  26.262  0.00  0.00    -0.180 NA
ATOM     23  N5  UNL     1      22.118   2.596  26.608  0.00  0.00    -0.274 N 
ATOM     24  C13 UNL     1      22.571   3.724  25.805  0.00  0.00    +0.172 C 
ATOM     25  C14 UNL     1      22.699   2.151  27.737  0.00  0.00    +0.113 A 
ENDBRANCH  19  20
ENDBRANCH   1  19
TORSDOF 3
ENDMDL
MODEL 6
REMARK VINA RESULT:    -5.901      2.927      4.686
REMARK INTER + INTRA:          -7.367
REMARK INTER:                  -6.993
REMARK INTRA:                  -0.374
REMARK UNBOUND:                -0.431
REMARK  Name = /home/qwerty/github/datacon2025hack/step_04_hit_selection/docking/ligands/lig_163.pdb
REMARK  5 active torsions:
REMARK  status: ('A' for Active; 'I' for Inactive)
REMARK    1  A    between atoms: C1_1  and  C2_2
REMARK    2  A    between atoms: C2_2  and  N1_3
REMARK    3  A    between atoms: C2_2  and  C11_18
REMARK    4  A    between atoms: C6_9  and  C7_10
REMARK    5  A    between atoms: N5_21  and  C13_22
REMARK                            x       y       z     vdW  Elec       q    Type
REMARK                         _______ _______ _______ _____ _____    ______ ____
ROOT
ATOM      1  N1  UNL     1      21.704   3.579  24.332  0.00  0.00    -0.292 N 
ATOM      2  C3  UNL     1      21.398   4.854  23.751  0.00  0.00    +0.305 C 
ATOM      3  O1  UNL     1      20.281   5.395  23.975  0.00  0.00    -0.252 OA
ATOM      4  N2  UNL     1      22.383   5.520  22.947  0.00  0.00    -0.251 N 
ATOM      5  C4  UNL     1      22.147   6.707  22.175  0.00  0.00    +0.169 A 
ATOM      6  C5  UNL     1      20.922   7.229  21.800  0.00  0.00    +0.097 A 
ATOM      7  C6  UNL     1      21.270   8.328  21.041  0.00  0.00    +0.176 A 
ATOM      8  O2  UNL     1      22.579   8.414  20.986  0.00  0.00    -0.352 OA
ATOM      9  N3  UNL     1      23.143   7.450  21.654  0.00  0.00    -0.062 NA
ATOM     10  H5  UNL     1      22.636   3.151  24.126  0.00  0.00    +0.151 HD
ATOM     11  H6  UNL     1      23.355   5.137  22.948  0.00  0.00    +0.158 HD
ENDROOT
BRANCH   7  12
ATOM     12  C7  UNL     1      20.349   9.261  20.382  0.00  0.00    +0.059 A 
ATOM     13  C8  UNL     1      20.709  10.221  19.442  0.00  0.00    +0.021 A 
ATOM     14  C9  UNL     1      19.625  10.975  18.980  0.00  0.00    +0.028 A 
ATOM     15  C10 UNL     1      18.419  10.604  19.557  0.00  0.00    +0.079 A 
ATOM     16 CL1  UNL     1      16.860  11.326  19.218  0.00  0.00    -0.076 Cl
ATOM     17  S1  UNL     1      18.686   9.347  20.638  0.00  0.00    -0.074 S 
ENDBRANCH   7  12
BRANCH   1  19
ATOM     18  C1  UNL     1      20.085   1.724  24.432  0.00  0.00    +0.033 C 
ATOM     19  C2  UNL     1      20.756   2.868  25.195  0.00  0.00    +0.105 C 
BRANCH  19  20
ATOM     20  C11 UNL     1      21.462   2.332  26.409  0.00  0.00    +0.010 A 
ATOM     21  C12 UNL     1      22.597   2.840  27.018  0.00  0.00    +0.139 A 
ATOM     22  N4  UNL     1      22.956   2.028  28.032  0.00  0.00    -0.180 NA
ATOM     23  N5  UNL     1      22.078   1.037  28.080  0.00  0.00    -0.274 N 
ATOM     24  C13 UNL     1      22.172  -0.086  29.002  0.00  0.00    +0.172 C 
ATOM     25  C14 UNL     1      21.167   1.176  27.099  0.00  0.00    +0.113 A 
ENDBRANCH  19  20
ENDBRANCH   1  19
TORSDOF 3
ENDMDL
MODEL 7
REMARK VINA RESULT:    -5.875     14.619     16.231
REMARK INTER + INTRA:          -7.336
REMARK INTER:                  -6.926
REMARK INTRA:                  -0.410
REMARK UNBOUND:                -0.431
REMARK  Name = /home/qwerty/github/datacon2025hack/step_04_hit_selection/docking/ligands/lig_163.pdb
REMARK  5 active torsions:
REMARK  status: ('A' for Active; 'I' for Inactive)
REMARK    1  A    between atoms: C1_1  and  C2_2
REMARK    2  A    between atoms: C2_2  and  N1_3
REMARK    3  A    between atoms: C2_2  and  C11_18
REMARK    4  A    between atoms: C6_9  and  C7_10
REMARK    5  A    between atoms: N5_21  and  C13_22
REMARK                            x       y       z     vdW  Elec       q    Type
REMARK                         _______ _______ _______ _____ _____    ______ ____
ROOT
ATOM      1  N1  UNL     1       7.789  12.168  28.801  0.00  0.00    -0.292 N 
ATOM      2  C3  UNL     1       7.911  10.739  28.772  0.00  0.00    +0.305 C 
ATOM      3  O1  UNL     1       8.648  10.189  27.908  0.00  0.00    -0.252 OA
ATOM      4  N2  UNL     1       7.219   9.949  29.751  0.00  0.00    -0.251 N 
ATOM      5  C4  UNL     1       7.121   8.517  29.729  0.00  0.00    +0.169 A 
ATOM      6  C5  UNL     1       7.363   7.680  28.655  0.00  0.00    +0.097 A 
ATOM      7  C6  UNL     1       7.073   6.429  29.163  0.00  0.00    +0.176 A 
ATOM      8  O2  UNL     1       6.692   6.552  30.413  0.00  0.00    -0.352 OA
ATOM      9  N3  UNL     1       6.703   7.798  30.789  0.00  0.00    -0.062 NA
ATOM     10  H5  UNL     1       7.167  12.597  29.524  0.00  0.00    +0.151 HD
ATOM     11  H6  UNL     1       6.784  10.446  30.560  0.00  0.00    +0.158 HD
ENDROOT
BRANCH   7  12
ATOM     12  C7  UNL     1       7.159   5.154  28.443  0.00  0.00    +0.059 A 
ATOM     13  C8  UNL     1       6.533   3.970  28.823  0.00  0.00    +0.021 A 
ATOM     14  C9  UNL     1       6.790   2.907  27.950  0.00  0.00    +0.028 A 
ATOM     15  C10 UNL     1       7.612   3.258  26.890  0.00  0.00    +0.079 A 
ATOM     16 CL1  UNL     1       8.141   2.188  25.608  0.00  0.00    -0.076 Cl
ATOM     17  S1  UNL     1       8.027   4.880  27.025  0.00  0.00    -0.074 S 
ENDBRANCH   7  12
BRANCH   1  19
ATOM     18  C1  UNL     1       7.598  14.171  27.378  0.00  0.00    +0.033 C 
ATOM     19  C2  UNL     1       8.502  13.031  27.854  0.00  0.00    +0.105 C 
BRANCH  19  20
ATOM     20  C11 UNL     1       9.741  13.590  28.495  0.00  0.00    +0.010 A 
ATOM     21  C12 UNL     1      10.835  14.158  27.863  0.00  0.00    +0.139 A 
ATOM     22  N4  UNL     1      11.768  14.465  28.787  0.00  0.00    -0.180 NA
ATOM     23  N5  UNL     1      11.288  14.116  29.970  0.00  0.00    -0.274 N 
ATOM     24  C13 UNL     1      12.038  14.223  31.214  0.00  0.00    +0.172 C 
ATOM     25  C14 UNL     1      10.069  13.562  29.833  0.00  0.00    +0.113 A 
ENDBRANCH  19  20
ENDBRANCH   1  19
TORSDOF 3
ENDMDL
MODEL 8
REMARK VINA RESULT:    -5.821      2.610      2.979
REMARK INTER + INTRA:          -7.273
REMARK INTER:                  -6.942
REMARK INTRA:                  -0.331
REMARK UNBOUND:                -0.431
REMARK  Name = /home/qwerty/github/datacon2025hack/step_04_hit_selection/docking/ligands/lig_163.pdb
REMARK  5 active torsions:
REMARK  status: ('A' for Active; 'I' for Inactive)
REMARK    1  A    between atoms: C1_1  and  C2_2
REMARK    2  A    between atoms: C2_2  and  N1_3
REMARK    3  A    between atoms: C2_2  and  C11_18
REMARK    4  A    between atoms: C6_9  and  C7_10
REMARK    5  A    between atoms: N5_21  and  C13_22
REMARK                            x       y       z     vdW  Elec       q    Type
REMARK                         _______ _______ _______ _____ _____    ______ ____
ROOT
ATOM      1  N1  UNL     1      22.894   2.046  27.919  0.00  0.00    -0.292 N 
ATOM      2  C3  UNL     1      21.753   2.281  27.081  0.00  0.00    +0.305 C 
ATOM      3  O1  UNL     1      20.785   1.473  27.098  0.00  0.00    -0.252 OA
ATOM      4  N2  UNL     1      21.710   3.455  26.257  0.00  0.00    -0.251 N 
ATOM      5  C4  UNL     1      20.716   3.720  25.256  0.00  0.00    +0.169 A 
ATOM      6  C5  UNL     1      19.849   2.809  24.680  0.00  0.00    +0.097 A 
ATOM      7  C6  UNL     1      19.159   3.573  23.760  0.00  0.00    +0.176 A 
ATOM      8  O2  UNL     1      19.605   4.807  23.808  0.00  0.00    -0.352 OA
ATOM      9  N3  UNL     1      20.549   4.933  24.695  0.00  0.00    -0.062 NA
ATOM     10  H5  UNL     1      23.684   2.728  27.882  0.00  0.00    +0.151 HD
ATOM     11  H6  UNL     1      22.434   4.191  26.418  0.00  0.00    +0.158 HD
ENDROOT
BRANCH   7  12
ATOM     12  C7  UNL     1      18.101   3.108  22.857  0.00  0.00    +0.059 A 
ATOM     13  C8  UNL     1      17.773   3.686  21.634  0.00  0.00    +0.021 A 
ATOM     14  C9  UNL     1      16.719   3.035  20.982  0.00  0.00    +0.028 A 
ATOM     15  C10 UNL     1      16.226   1.951  21.692  0.00  0.00    +0.079 A 
ATOM     16 CL1  UNL     1      14.915   0.908  21.183  0.00  0.00    -0.076 Cl
ATOM     17  S1  UNL     1      17.086   1.791  23.127  0.00  0.00    -0.074 S 
ENDBRANCH   7  12
BRANCH   1  19
ATOM     18  C1  UNL     1      24.424   0.655  29.260  0.00  0.00    +0.033 C 
ATOM     19  C2  UNL     1      22.979   0.886  28.813  0.00  0.00    +0.105 C 
BRANCH  19  20
ATOM     20  C11 UNL     1      22.096   1.092  30.012  0.00  0.00    +0.010 A 
ATOM     21  C12 UNL     1      22.192   2.087  30.970  0.00  0.00    +0.139 A 
ATOM     22  N4  UNL     1      21.259   1.876  31.921  0.00  0.00    -0.180 NA
ATOM     23  N5  UNL     1      20.583   0.789  31.583  0.00  0.00    -0.274 N 
ATOM     24  C13 UNL     1      19.536   0.196  32.404  0.00  0.00    +0.172 C 
ATOM     25  C14 UNL     1      21.074   0.273  30.441  0.00  0.00    +0.113 A 
ENDBRANCH  19  20
ENDBRANCH   1  19
TORSDOF 3
ENDMDL
MODEL 9
REMARK VINA RESULT:    -5.698     10.785     13.806
REMARK INTER + INTRA:          -7.127
REMARK INTER:                  -6.930
REMARK INTRA:                  -0.198
REMARK UNBOUND:                -0.431
REMARK  Name = /home/qwerty/github/datacon2025hack/step_04_hit_selection/docking/ligands/lig_163.pdb
REMARK  5 active torsions:
REMARK  status: ('A' for Active; 'I' for Inactive)
REMARK    1  A    between atoms: C1_1  and  C2_2
REMARK    2  A    between atoms: C2_2  and  N1_3
REMARK    3  A    between atoms: C2_2  and  C11_18
REMARK    4  A    between atoms: C6_9  and  C7_10
REMARK    5  A    between atoms: N5_21  and  C13_22
REMARK                            x       y       z     vdW  Elec       q    Type
REMARK                         _______ _______ _______ _____ _____    ______ ____
ROOT
ATOM      1  N1  UNL     1       7.620   4.479  21.404  0.00  0.00    -0.292 N 
ATOM      2  C3  UNL     1       8.908   3.905  21.667  0.00  0.00    +0.305 C 
ATOM      3  O1  UNL     1       9.939   4.412  21.147  0.00  0.00    -0.252 OA
ATOM      4  N2  UNL     1       9.014   2.777  22.549  0.00  0.00    -0.251 N 
ATOM      5  C4  UNL     1      10.208   2.009  22.760  0.00  0.00    +0.169 A 
ATOM      6  C5  UNL     1      11.336   1.984  21.960  0.00  0.00    +0.097 A 
ATOM      7  C6  UNL     1      12.142   1.055  22.587  0.00  0.00    +0.176 A 
ATOM      8  O2  UNL     1      11.519   0.591  23.645  0.00  0.00    -0.352 OA
ATOM      9  N3  UNL     1      10.346   1.139  23.779  0.00  0.00    -0.062 NA
ATOM     10  H5  UNL     1       6.781   4.036  21.843  0.00  0.00    +0.151 HD
ATOM     11  H6  UNL     1       8.171   2.514  23.108  0.00  0.00    +0.158 HD
ENDROOT
BRANCH   7  12
ATOM     12  C7  UNL     1      13.480   0.630  22.159  0.00  0.00    +0.059 A 
ATOM     13  C8  UNL     1      14.123   1.042  20.996  0.00  0.00    +0.021 A 
ATOM     14  C9  UNL     1      15.393   0.475  20.838  0.00  0.00    +0.028 A 
ATOM     15  C10 UNL     1      15.742  -0.377  21.876  0.00  0.00    +0.079 A 
ATOM     16 CL1  UNL     1      17.250  -1.257  22.011  0.00  0.00    -0.076 Cl
ATOM     17  S1  UNL     1      14.486  -0.436  22.990  0.00  0.00    -0.074 S 
ENDBRANCH   7  12
BRANCH   1  19
ATOM     18  C1  UNL     1       5.967   5.935  20.297  0.00  0.00    +0.033 C 
ATOM     19  C2  UNL     1       7.451   5.655  20.545  0.00  0.00    +0.105 C 
BRANCH  19  20
ATOM     20  C11 UNL     1       8.103   6.855  21.175  0.00  0.00    +0.010 A 
ATOM     21  C12 UNL     1       9.062   7.684  20.619  0.00  0.00    +0.139 A 
ATOM     22  N4  UNL     1       9.441   8.597  21.535  0.00  0.00    -0.180 NA
ATOM     23  N5  UNL     1       8.745   8.370  22.638  0.00  0.00    -0.274 N 
ATOM     24  C13 UNL     1       8.927   9.108  23.880  0.00  0.00    +0.172 C 
ATOM     25  C14 UNL     1       7.936   7.308  22.466  0.00  0.00    +0.113 A 
ENDBRANCH  19  20
ENDBRANCH   1  19
TORSDOF 3
ENDMDL
