REMARK  Name = /home/qwerty/github/datacon2025hack/step_04_hit_selection/docking/ligands/lig_16.pdb
REMARK  3 active torsions:
REMARK  status: ('A' for Active; 'I' for Inactive)
REMARK    1  A    between atoms: C1_2  and  C14_19
REMARK    2  A    between atoms: N1_3  and  C2_4
REMARK    3  A    between atoms: C4_7  and  C5_9
REMARK                            x       y       z     vdW  Elec       q    Type
REMARK                         _______ _______ _______ _____ _____    ______ ____
ROOT
ATOM      1  C2  UNL     1       2.691   0.414  -1.809  0.00  0.00    +0.108 C 
ATOM      2  C3  UNL     1       1.964  -0.619  -2.616  0.00  0.00    +0.132 C 
ATOM      3  N2  UNL     1       0.663  -0.456  -1.942  0.00  0.00    -0.293 N 
ATOM      4  C4  UNL     1      -0.638  -1.038  -2.060  0.00  0.00    +0.253 C 
ATOM      5  O2  UNL     1      -0.832  -1.928  -2.930  0.00  0.00    -0.269 OA
ATOM      6  C13 UNL     1       1.364   0.562  -1.135  0.00  0.00    +0.132 C 
ENDROOT
BRANCH   4   7
ATOM      7  C5  UNL     1      -1.751  -0.621  -1.188  0.00  0.00    +0.075 A 
ATOM      8  C6  UNL     1      -3.046  -1.137  -1.236  0.00  0.00    +0.024 A 
ATOM      9  C7  UNL     1      -3.900  -0.569  -0.282  0.00  0.00    -0.036 A 
ATOM     10  C8  UNL     1      -3.294   0.418   0.483  0.00  0.00    -0.006 A 
ATOM     11  S1  UNL     1      -1.683   0.548   0.029  0.00  0.00    -0.088 S 
ATOM     12  C9  UNL     1      -3.954   1.126   1.626  0.00  0.00    +0.043 C 
ATOM     13  C10 UNL     1      -5.485   1.009   1.527  0.00  0.00    +0.005 C 
ATOM     14  C11 UNL     1      -5.917  -0.434   1.209  0.00  0.00    +0.005 C 
ATOM     15  C12 UNL     1      -5.360  -0.900  -0.149  0.00  0.00    +0.036 C 
ENDBRANCH   4   7
BRANCH   1  18
ATOM     16  O1  UNL     1       4.024   1.878   0.206  0.00  0.00    -0.270 OA
ATOM     17  C1  UNL     1       4.345   0.665   0.084  0.00  0.00    +0.247 C 
ATOM     18  N1  UNL     1       3.716  -0.143  -0.922  0.00  0.00    -0.305 N 
ATOM     19  H1  UNL     1       4.037  -1.126  -1.062  0.00  0.00    +0.149 HD
BRANCH  17  20
ATOM     20  C14 UNL     1       5.365   0.100   0.987  0.00  0.00    +0.074 A 
ATOM     21  C15 UNL     1       5.834  -1.201   1.047  0.00  0.00    +0.147 A 
ATOM     22  N3  UNL     1       6.761  -1.291   2.021  0.00  0.00    -0.182 NA
ATOM     23  N4  UNL     1       6.889  -0.095   2.572  0.00  0.00    -0.284 N 
ATOM     24  C16 UNL     1       6.058   0.774   1.972  0.00  0.00    +0.118 A 
ATOM     25  H17 UNL     1       7.542   0.123   3.357  0.00  0.00    +0.188 HD
ENDBRANCH  17  20
ENDBRANCH   1  18
TORSDOF 3
