MODEL 1
REMARK VINA RESULT:    -6.403      0.000      0.000
REMARK INTER + INTRA:          -7.932
REMARK INTER:                  -7.525
REMARK INTRA:                  -0.407
REMARK UNBOUND:                -0.407
REMARK  Name = /home/qwerty/github/datacon2025hack/step_04_hit_selection/docking/ligands/lig_522.pdb
REMARK  4 active torsions:
REMARK  status: ('A' for Active; 'I' for Inactive)
REMARK    1  A    between atoms: C1_1  and  C2_2
REMARK    2  A    between atoms: C5_5  and  C6_6
REMARK    3  A    between atoms: C9_11  and  N2_12
REMARK    4  A    between atoms: C10_13  and  C11_15
REMARK                            x       y       z     vdW  Elec       q    Type
REMARK                         _______ _______ _______ _____ _____    ______ ____
ROOT
ATOM      1  C6  UNL     1      14.772  15.211  28.047  0.00  0.00    +0.248 C 
ATOM      2  O1  UNL     1      14.815  15.471  26.814  0.00  0.00    -0.270 OA
ATOM      3  N1  UNL     1      13.562  14.682  28.619  0.00  0.00    -0.296 N 
ATOM      4  C7  UNL     1      13.135  14.935  29.986  0.00  0.00    +0.110 C 
ATOM      5  C8  UNL     1      11.779  14.259  30.128  0.00  0.00    +0.043 C 
ATOM      6  C9  UNL     1      11.274  14.046  28.700  0.00  0.00    +0.092 C 
ATOM      7  C16 UNL     1      12.519  14.068  27.813  0.00  0.00    +0.130 C 
ENDROOT
BRANCH   1  12
ATOM      8  C1  UNL     1      19.384  16.137  31.368  0.00  0.00    +0.065 C 
ATOM      9  C2  UNL     1      18.198  15.915  30.485  0.00  0.00    +0.038 A 
ATOM     10  C3  UNL     1      17.630  16.984  29.780  0.00  0.00    +0.024 A 
ATOM     11  C4  UNL     1      16.511  16.757  28.977  0.00  0.00    +0.016 A 
ATOM     12  C5  UNL     1      15.970  15.468  28.873  0.00  0.00    +0.055 A 
ATOM     13  C17 UNL     1      16.552  14.433  29.619  0.00  0.00    +0.124 A 
ATOM     14  N4  UNL     1      17.641  14.677  30.395  0.00  0.00    -0.259 NA
ENDBRANCH   1  12
BRANCH   6  15
ATOM     15  N2  UNL     1      10.542  12.783  28.578  0.00  0.00    -0.306 N 
ATOM     16  C10 UNL     1       9.231  12.717  27.996  0.00  0.00    +0.266 C 
ATOM     17  O2  UNL     1       8.617  13.782  27.710  0.00  0.00    -0.268 OA
ATOM     18  H11 UNL     1      10.885  11.959  29.121  0.00  0.00    +0.149 HD
BRANCH  16  19
ATOM     19  C11 UNL     1       8.558  11.422  27.764  0.00  0.00    +0.161 A 
ATOM     20  N3  UNL     1       8.722  10.808  26.558  0.00  0.00    -0.245 NA
ATOM     21  C12 UNL     1       8.140   9.614  26.268  0.00  0.00    +0.150 A 
ATOM     22  C13 UNL     1       7.349   8.973  27.221  0.00  0.00    +0.144 A 
ATOM     23  F1  UNL     1       6.768   7.781  26.940  0.00  0.00    -0.204 F 
ATOM     24  C14 UNL     1       7.176   9.565  28.473  0.00  0.00    +0.080 A 
ATOM     25  C15 UNL     1       7.782  10.790  28.756  0.00  0.00    +0.156 A 
ATOM     26  F2  UNL     1       7.651  11.318  30.000  0.00  0.00    -0.203 F 
ENDBRANCH  16  19
ENDBRANCH   6  15
TORSDOF 3
ENDMDL
MODEL 2
REMARK VINA RESULT:    -6.253     11.229     13.686
REMARK INTER + INTRA:          -7.756
REMARK INTER:                  -7.473
REMARK INTRA:                  -0.283
REMARK UNBOUND:                -0.407
REMARK  Name = /home/qwerty/github/datacon2025hack/step_04_hit_selection/docking/ligands/lig_522.pdb
REMARK  4 active torsions:
REMARK  status: ('A' for Active; 'I' for Inactive)
REMARK    1  A    between atoms: C1_1  and  C2_2
REMARK    2  A    between atoms: C5_5  and  C6_6
REMARK    3  A    between atoms: C9_11  and  N2_12
REMARK    4  A    between atoms: C10_13  and  C11_15
REMARK                            x       y       z     vdW  Elec       q    Type
REMARK                         _______ _______ _______ _____ _____    ______ ____
ROOT
ATOM      1  C6  UNL     1      14.687   0.828  21.150  0.00  0.00    +0.248 C 
ATOM      2  O1  UNL     1      14.738   0.697  19.897  0.00  0.00    -0.270 OA
ATOM      3  N1  UNL     1      14.008   1.963  21.717  0.00  0.00    -0.296 N 
ATOM      4  C7  UNL     1      14.389   2.587  22.975  0.00  0.00    +0.110 C 
ATOM      5  C8  UNL     1      13.463   3.785  23.139  0.00  0.00    +0.043 C 
ATOM      6  C9  UNL     1      12.906   4.068  21.743  0.00  0.00    +0.092 C 
ATOM      7  C16 UNL     1      13.052   2.759  20.966  0.00  0.00    +0.130 C 
ENDROOT
BRANCH   1  12
ATOM      8  C1  UNL     1      17.181  -3.068  24.578  0.00  0.00    +0.065 C 
ATOM      9  C2  UNL     1      16.546  -2.070  23.664  0.00  0.00    +0.038 A 
ATOM     10  C3  UNL     1      17.261  -1.546  22.580  0.00  0.00    +0.024 A 
ATOM     11  C4  UNL     1      16.655  -0.601  21.751  0.00  0.00    +0.016 A 
ATOM     12  C5  UNL     1      15.339  -0.189  22.000  0.00  0.00    +0.055 A 
ATOM     13  C17 UNL     1      14.669  -0.716  23.113  0.00  0.00    +0.124 A 
ATOM     14  N4  UNL     1      15.279  -1.636  23.907  0.00  0.00    -0.259 NA
ENDBRANCH   1  12
BRANCH   6  15
ATOM     15  N2  UNL     1      11.510   4.509  21.808  0.00  0.00    -0.306 N 
ATOM     16  C10 UNL     1      11.000   5.548  20.959  0.00  0.00    +0.266 C 
ATOM     17  O2  UNL     1      11.793   6.211  20.235  0.00  0.00    -0.268 OA
ATOM     18  H11 UNL     1      10.938   4.217  22.633  0.00  0.00    +0.149 HD
BRANCH  16  19
ATOM     19  C11 UNL     1       9.563   5.894  20.947  0.00  0.00    +0.161 A 
ATOM     20  N3  UNL     1       8.666   4.940  20.570  0.00  0.00    -0.245 NA
ATOM     21  C12 UNL     1       7.328   5.177  20.535  0.00  0.00    +0.150 A 
ATOM     22  C13 UNL     1       6.831   6.429  20.899  0.00  0.00    +0.144 A 
ATOM     23  F1  UNL     1       5.498   6.673  20.869  0.00  0.00    -0.204 F 
ATOM     24  C14 UNL     1       7.721   7.423  21.307  0.00  0.00    +0.080 A 
ATOM     25  C15 UNL     1       9.093   7.162  21.340  0.00  0.00    +0.156 A 
ATOM     26  F2  UNL     1       9.935   8.122  21.799  0.00  0.00    -0.203 F 
ENDBRANCH  16  19
ENDBRANCH   6  15
TORSDOF 3
ENDMDL
MODEL 3
REMARK VINA RESULT:    -6.052     11.929     14.922
REMARK INTER + INTRA:          -7.520
REMARK INTER:                  -7.011
REMARK INTRA:                  -0.509
REMARK UNBOUND:                -0.407
REMARK  Name = /home/qwerty/github/datacon2025hack/step_04_hit_selection/docking/ligands/lig_522.pdb
REMARK  4 active torsions:
REMARK  status: ('A' for Active; 'I' for Inactive)
REMARK    1  A    between atoms: C1_1  and  C2_2
REMARK    2  A    between atoms: C5_5  and  C6_6
REMARK    3  A    between atoms: C9_11  and  N2_12
REMARK    4  A    between atoms: C10_13  and  C11_15
REMARK                            x       y       z     vdW  Elec       q    Type
REMARK                         _______ _______ _______ _____ _____    ______ ____
ROOT
ATOM      1  C6  UNL     1      11.216   5.292  22.353  0.00  0.00    +0.248 C 
ATOM      2  O1  UNL     1      11.706   6.122  23.166  0.00  0.00    -0.270 OA
ATOM      3  N1  UNL     1      12.014   4.181  21.906  0.00  0.00    -0.296 N 
ATOM      4  C7  UNL     1      11.886   3.570  20.592  0.00  0.00    +0.110 C 
ATOM      5  C8  UNL     1      12.970   2.503  20.525  0.00  0.00    +0.043 C 
ATOM      6  C9  UNL     1      13.973   2.866  21.621  0.00  0.00    +0.092 C 
ATOM      7  C16 UNL     1      13.203   3.736  22.615  0.00  0.00    +0.130 C 
ENDROOT
BRANCH   1  12
ATOM      8  C1  UNL     1       5.840   6.214  20.508  0.00  0.00    +0.065 C 
ATOM      9  C2  UNL     1       7.231   5.944  20.986  0.00  0.00    +0.038 A 
ATOM     10  C3  UNL     1       7.475   4.934  21.924  0.00  0.00    +0.024 A 
ATOM     11  C4  UNL     1       8.778   4.714  22.371  0.00  0.00    +0.016 A 
ATOM     12  C5  UNL     1       9.833   5.493  21.875  0.00  0.00    +0.055 A 
ATOM     13  C17 UNL     1       9.541   6.513  20.960  0.00  0.00    +0.124 A 
ATOM     14  N4  UNL     1       8.263   6.710  20.538  0.00  0.00    -0.259 NA
ENDBRANCH   1  12
BRANCH   6  15
ATOM     15  N2  UNL     1      14.520   1.665  22.259  0.00  0.00    -0.306 N 
ATOM     16  C10 UNL     1      15.930   1.400  22.297  0.00  0.00    +0.266 C 
ATOM     17  O2  UNL     1      16.723   2.132  21.644  0.00  0.00    -0.268 OA
ATOM     18  H11 UNL     1      13.862   0.887  22.492  0.00  0.00    +0.149 HD
BRANCH  16  19
ATOM     19  C11 UNL     1      16.475   0.253  23.052  0.00  0.00    +0.161 A 
ATOM     20  N3  UNL     1      16.800   0.430  24.364  0.00  0.00    -0.245 NA
ATOM     21  C12 UNL     1      17.303  -0.575  25.128  0.00  0.00    +0.150 A 
ATOM     22  C13 UNL     1      17.497  -1.842  24.576  0.00  0.00    +0.144 A 
ATOM     23  F1  UNL     1      17.996  -2.850  25.333  0.00  0.00    -0.204 F 
ATOM     24  C14 UNL     1      17.158  -2.062  23.241  0.00  0.00    +0.080 A 
ATOM     25  C15 UNL     1      16.639  -1.020  22.470  0.00  0.00    +0.156 A 
ATOM     26  F2  UNL     1      16.258  -1.271  21.192  0.00  0.00    -0.203 F 
ENDBRANCH  16  19
ENDBRANCH   6  15
TORSDOF 3
ENDMDL
MODEL 4
REMARK VINA RESULT:    -5.962      9.345     12.693
REMARK INTER + INTRA:          -7.415
REMARK INTER:                  -7.264
REMARK INTRA:                  -0.150
REMARK UNBOUND:                -0.407
REMARK  Name = /home/qwerty/github/datacon2025hack/step_04_hit_selection/docking/ligands/lig_522.pdb
REMARK  4 active torsions:
REMARK  status: ('A' for Active; 'I' for Inactive)
REMARK    1  A    between atoms: C1_1  and  C2_2
REMARK    2  A    between atoms: C5_5  and  C6_6
REMARK    3  A    between atoms: C9_11  and  N2_12
REMARK    4  A    between atoms: C10_13  and  C11_15
REMARK                            x       y       z     vdW  Elec       q    Type
REMARK                         _______ _______ _______ _____ _____    ______ ____
ROOT
ATOM      1  C6  UNL     1      15.359  11.190  35.530  0.00  0.00    +0.248 C 
ATOM      2  O1  UNL     1      14.737  10.177  35.952  0.00  0.00    -0.270 OA
ATOM      3  N1  UNL     1      16.760  11.336  35.824  0.00  0.00    -0.296 N 
ATOM      4  C7  UNL     1      17.420  12.621  35.998  0.00  0.00    +0.110 C 
ATOM      5  C8  UNL     1      18.860  12.297  36.373  0.00  0.00    +0.043 C 
ATOM      6  C9  UNL     1      18.844  10.846  36.856  0.00  0.00    +0.092 C 
ATOM      7  C16 UNL     1      17.592  10.219  36.240  0.00  0.00    +0.130 C 
ENDROOT
BRANCH   1  12
ATOM      8  C1  UNL     1      12.373  15.127  32.575  0.00  0.00    +0.065 C 
ATOM      9  C2  UNL     1      13.171  14.108  33.323  0.00  0.00    +0.038 A 
ATOM     10  C3  UNL     1      13.940  13.164  32.631  0.00  0.00    +0.024 A 
ATOM     11  C4  UNL     1      14.661  12.209  33.350  0.00  0.00    +0.016 A 
ATOM     12  C5  UNL     1      14.622  12.206  34.752  0.00  0.00    +0.055 A 
ATOM     13  C17 UNL     1      13.816  13.151  35.403  0.00  0.00    +0.124 A 
ATOM     14  N4  UNL     1      13.121  14.071  34.682  0.00  0.00    -0.259 NA
ENDBRANCH   1  12
BRANCH   6  15
ATOM     15  N2  UNL     1      20.061  10.138  36.452  0.00  0.00    -0.306 N 
ATOM     16  C10 UNL     1      20.339   8.796  36.881  0.00  0.00    +0.266 C 
ATOM     17  O2  UNL     1      19.599   8.248  37.744  0.00  0.00    -0.268 OA
ATOM     18  H11 UNL     1      20.839  10.695  36.031  0.00  0.00    +0.149 HD
BRANCH  16  19
ATOM     19  C11 UNL     1      21.505   8.051  36.364  0.00  0.00    +0.161 A 
ATOM     20  N3  UNL     1      21.946   8.321  35.103  0.00  0.00    -0.245 NA
ATOM     21  C12 UNL     1      23.014   7.681  34.556  0.00  0.00    +0.150 A 
ATOM     22  C13 UNL     1      23.703   6.717  35.293  0.00  0.00    +0.144 A 
ATOM     23  F1  UNL     1      24.770   6.078  34.755  0.00  0.00    -0.204 F 
ATOM     24  C14 UNL     1      23.289   6.429  36.594  0.00  0.00    +0.080 A 
ATOM     25  C15 UNL     1      22.191   7.097  37.142  0.00  0.00    +0.156 A 
ATOM     26  F2  UNL     1      21.843   6.847  38.430  0.00  0.00    -0.203 F 
ENDBRANCH  16  19
ENDBRANCH   6  15
TORSDOF 3
ENDMDL
MODEL 5
REMARK VINA RESULT:    -5.961     13.498     15.296
REMARK INTER + INTRA:          -7.413
REMARK INTER:                  -6.947
REMARK INTRA:                  -0.466
REMARK UNBOUND:                -0.407
REMARK  Name = /home/qwerty/github/datacon2025hack/step_04_hit_selection/docking/ligands/lig_522.pdb
REMARK  4 active torsions:
REMARK  status: ('A' for Active; 'I' for Inactive)
REMARK    1  A    between atoms: C1_1  and  C2_2
REMARK    2  A    between atoms: C5_5  and  C6_6
REMARK    3  A    between atoms: C9_11  and  N2_12
REMARK    4  A    between atoms: C10_13  and  C11_15
REMARK                            x       y       z     vdW  Elec       q    Type
REMARK                         _______ _______ _______ _____ _____    ______ ____
ROOT
ATOM      1  C6  UNL     1      21.801   5.097  24.016  0.00  0.00    +0.248 C 
ATOM      2  O1  UNL     1      22.815   5.803  24.269  0.00  0.00    -0.270 OA
ATOM      3  N1  UNL     1      21.469   3.997  24.881  0.00  0.00    -0.296 N 
ATOM      4  C7  UNL     1      20.813   2.780  24.427  0.00  0.00    +0.110 C 
ATOM      5  C8  UNL     1      20.738   1.871  25.647  0.00  0.00    +0.043 C 
ATOM      6  C9  UNL     1      21.773   2.418  26.631  0.00  0.00    +0.092 C 
ATOM      7  C16 UNL     1      21.994   3.877  26.232  0.00  0.00    +0.130 C 
ENDROOT
BRANCH   1  12
ATOM      8  C1  UNL     1      18.517   6.285  19.438  0.00  0.00    +0.065 C 
ATOM      9  C2  UNL     1      19.394   5.989  20.612  0.00  0.00    +0.038 A 
ATOM     10  C3  UNL     1      20.706   5.539  20.422  0.00  0.00    +0.024 A 
ATOM     11  C4  UNL     1      21.499   5.251  21.534  0.00  0.00    +0.016 A 
ATOM     12  C5  UNL     1      20.986   5.420  22.827  0.00  0.00    +0.055 A 
ATOM     13  C17 UNL     1      19.658   5.844  22.972  0.00  0.00    +0.124 A 
ATOM     14  N4  UNL     1      18.903   6.119  21.875  0.00  0.00    -0.259 NA
ENDBRANCH   1  12
BRANCH   6  15
ATOM     15  N2  UNL     1      21.305   2.298  28.015  0.00  0.00    -0.306 N 
ATOM     16  C10 UNL     1      22.171   1.870  29.076  0.00  0.00    +0.266 C 
ATOM     17  O2  UNL     1      23.328   1.444  28.808  0.00  0.00    -0.268 OA
ATOM     18  H11 UNL     1      20.274   2.310  28.190  0.00  0.00    +0.149 HD
BRANCH  16  19
ATOM     19  C11 UNL     1      21.721   1.876  30.484  0.00  0.00    +0.161 A 
ATOM     20  N3  UNL     1      22.048   2.941  31.269  0.00  0.00    -0.245 NA
ATOM     21  C12 UNL     1      21.669   3.023  32.573  0.00  0.00    +0.150 A 
ATOM     22  C13 UNL     1      20.916   1.999  33.146  0.00  0.00    +0.144 A 
ATOM     23  F1  UNL     1      20.533   2.075  34.445  0.00  0.00    -0.204 F 
ATOM     24  C14 UNL     1      20.549   0.902  32.365  0.00  0.00    +0.080 A 
ATOM     25  C15 UNL     1      20.944   0.834  31.027  0.00  0.00    +0.156 A 
ATOM     26  F2  UNL     1      20.525  -0.210  30.269  0.00  0.00    -0.203 F 
ENDBRANCH  16  19
ENDBRANCH   6  15
TORSDOF 3
ENDMDL
MODEL 6
REMARK VINA RESULT:    -5.846      4.015     10.483
REMARK INTER + INTRA:          -7.278
REMARK INTER:                  -6.939
REMARK INTRA:                  -0.338
REMARK UNBOUND:                -0.407
REMARK  Name = /home/qwerty/github/datacon2025hack/step_04_hit_selection/docking/ligands/lig_522.pdb
REMARK  4 active torsions:
REMARK  status: ('A' for Active; 'I' for Inactive)
REMARK    1  A    between atoms: C1_1  and  C2_2
REMARK    2  A    between atoms: C5_5  and  C6_6
REMARK    3  A    between atoms: C9_11  and  N2_12
REMARK    4  A    between atoms: C10_13  and  C11_15
REMARK                            x       y       z     vdW  Elec       q    Type
REMARK                         _______ _______ _______ _____ _____    ______ ____
ROOT
ATOM      1  C6  UNL     1       6.990   7.191  29.965  0.00  0.00    +0.248 C 
ATOM      2  O1  UNL     1       6.649   7.371  31.165  0.00  0.00    -0.270 OA
ATOM      3  N1  UNL     1       7.469   8.304  29.189  0.00  0.00    -0.296 N 
ATOM      4  C7  UNL     1       7.280   8.429  27.751  0.00  0.00    +0.110 C 
ATOM      5  C8  UNL     1       7.865   9.783  27.374  0.00  0.00    +0.043 C 
ATOM      6  C9  UNL     1       7.941  10.577  28.679  0.00  0.00    +0.092 C 
ATOM      7  C16 UNL     1       7.948   9.534  29.797  0.00  0.00    +0.130 C 
ENDROOT
BRANCH   1  12
ATOM      8  C1  UNL     1       6.614   1.956  27.597  0.00  0.00    +0.065 C 
ATOM      9  C2  UNL     1       6.696   3.305  28.235  0.00  0.00    +0.038 A 
ATOM     10  C3  UNL     1       5.582   3.849  28.887  0.00  0.00    +0.024 A 
ATOM     11  C4  UNL     1       5.675   5.119  29.459  0.00  0.00    +0.016 A 
ATOM     12  C5  UNL     1       6.877   5.836  29.387  0.00  0.00    +0.055 A 
ATOM     13  C17 UNL     1       7.959   5.267  28.700  0.00  0.00    +0.124 A 
ATOM     14  N4  UNL     1       7.845   4.028  28.150  0.00  0.00    -0.259 NA
ENDBRANCH   1  12
BRANCH   6  15
ATOM     15  N2  UNL     1       9.137  11.422  28.717  0.00  0.00    -0.306 N 
ATOM     16  C10 UNL     1       9.125  12.731  29.307  0.00  0.00    +0.266 C 
ATOM     17  O2  UNL     1       8.032  13.241  29.678  0.00  0.00    -0.268 OA
ATOM     18  H11 UNL     1       9.947  11.160  28.111  0.00  0.00    +0.149 HD
BRANCH  16  19
ATOM     19  C11 UNL     1      10.366  13.519  29.452  0.00  0.00    +0.161 A 
ATOM     20  N3  UNL     1      10.984  13.547  30.666  0.00  0.00    -0.245 NA
ATOM     21  C12 UNL     1      12.131  14.246  30.880  0.00  0.00    +0.150 A 
ATOM     22  C13 UNL     1      12.717  14.962  29.836  0.00  0.00    +0.144 A 
ATOM     23  F1  UNL     1      13.862  15.659  30.041  0.00  0.00    -0.204 F 
ATOM     24  C14 UNL     1      12.120  14.940  28.575  0.00  0.00    +0.080 A 
ATOM     25  C15 UNL     1      10.944  14.215  28.371  0.00  0.00    +0.156 A 
ATOM     26  F2  UNL     1      10.414  14.157  27.123  0.00  0.00    -0.203 F 
ENDBRANCH  16  19
ENDBRANCH   6  15
TORSDOF 3
ENDMDL
MODEL 7
REMARK VINA RESULT:    -5.844     10.379     13.328
REMARK INTER + INTRA:          -7.275
REMARK INTER:                  -6.771
REMARK INTRA:                  -0.504
REMARK UNBOUND:                -0.407
REMARK  Name = /home/qwerty/github/datacon2025hack/step_04_hit_selection/docking/ligands/lig_522.pdb
REMARK  4 active torsions:
REMARK  status: ('A' for Active; 'I' for Inactive)
REMARK    1  A    between atoms: C1_1  and  C2_2
REMARK    2  A    between atoms: C5_5  and  C6_6
REMARK    3  A    between atoms: C9_11  and  N2_12
REMARK    4  A    between atoms: C10_13  and  C11_15
REMARK                            x       y       z     vdW  Elec       q    Type
REMARK                         _______ _______ _______ _____ _____    ______ ____
ROOT
ATOM      1  C6  UNL     1      14.430   9.462  36.017  0.00  0.00    +0.248 C 
ATOM      2  O1  UNL     1      13.956   8.383  35.567  0.00  0.00    -0.270 OA
ATOM      3  N1  UNL     1      15.734   9.464  36.624  0.00  0.00    -0.296 N 
ATOM      4  C7  UNL     1      16.124  10.364  37.699  0.00  0.00    +0.110 C 
ATOM      5  C8  UNL     1      17.542   9.960  38.081  0.00  0.00    +0.043 C 
ATOM      6  C9  UNL     1      17.731   8.546  37.529  0.00  0.00    +0.092 C 
ATOM      7  C16 UNL     1      16.699   8.398  36.410  0.00  0.00    +0.130 C 
ENDROOT
BRANCH   1  12
ATOM      8  C1  UNL     1      11.163  14.188  35.637  0.00  0.00    +0.065 C 
ATOM      9  C2  UNL     1      12.035  12.977  35.729  0.00  0.00    +0.038 A 
ATOM     10  C3  UNL     1      13.053  12.765  34.791  0.00  0.00    +0.024 A 
ATOM     11  C4  UNL     1      13.843  11.618  34.884  0.00  0.00    +0.016 A 
ATOM     12  C5  UNL     1      13.621  10.694  35.914  0.00  0.00    +0.055 A 
ATOM     13  C17 UNL     1      12.573  10.930  36.814  0.00  0.00    +0.124 A 
ATOM     14  N4  UNL     1      11.816  12.054  36.704  0.00  0.00    -0.259 NA
ENDBRANCH   1  12
BRANCH   6  15
ATOM     15  N2  UNL     1      19.097   8.345  37.039  0.00  0.00    -0.306 N 
ATOM     16  C10 UNL     1      19.762   7.077  37.142  0.00  0.00    +0.266 C 
ATOM     17  O2  UNL     1      19.229   6.140  37.797  0.00  0.00    -0.268 OA
ATOM     18  H11 UNL     1      19.671   9.190  36.816  0.00  0.00    +0.149 HD
BRANCH  16  19
ATOM     19  C11 UNL     1      21.089   6.855  36.531  0.00  0.00    +0.161 A 
ATOM     20  N3  UNL     1      21.168   6.705  35.178  0.00  0.00    -0.245 NA
ATOM     21  C12 UNL     1      22.351   6.501  34.540  0.00  0.00    +0.150 A 
ATOM     22  C13 UNL     1      23.538   6.445  35.270  0.00  0.00    +0.144 A 
ATOM     23  F1  UNL     1      24.721   6.244  34.640  0.00  0.00    -0.204 F 
ATOM     24  C14 UNL     1      23.495   6.612  36.655  0.00  0.00    +0.080 A 
ATOM     25  C15 UNL     1      22.272   6.824  37.295  0.00  0.00    +0.156 A 
ATOM     26  F2  UNL     1      22.259   7.046  38.634  0.00  0.00    -0.203 F 
ENDBRANCH  16  19
ENDBRANCH   6  15
TORSDOF 3
ENDMDL
MODEL 8
REMARK VINA RESULT:    -5.837      9.982     12.884
REMARK INTER + INTRA:          -7.267
REMARK INTER:                  -6.785
REMARK INTRA:                  -0.482
REMARK UNBOUND:                -0.407
REMARK  Name = /home/qwerty/github/datacon2025hack/step_04_hit_selection/docking/ligands/lig_522.pdb
REMARK  4 active torsions:
REMARK  status: ('A' for Active; 'I' for Inactive)
REMARK    1  A    between atoms: C1_1  and  C2_2
REMARK    2  A    between atoms: C5_5  and  C6_6
REMARK    3  A    between atoms: C9_11  and  N2_12
REMARK    4  A    between atoms: C10_13  and  C11_15
REMARK                            x       y       z     vdW  Elec       q    Type
REMARK                         _______ _______ _______ _____ _____    ______ ____
ROOT
ATOM      1  C6  UNL     1      16.272  10.965  35.255  0.00  0.00    +0.248 C 
ATOM      2  O1  UNL     1      15.570  10.284  34.460  0.00  0.00    -0.270 OA
ATOM      3  N1  UNL     1      17.477  10.399  35.801  0.00  0.00    -0.296 N 
ATOM      4  C7  UNL     1      18.000  10.728  37.119  0.00  0.00    +0.110 C 
ATOM      5  C8  UNL     1      19.225   9.844  37.309  0.00  0.00    +0.043 C 
ATOM      6  C9  UNL     1      19.080   8.713  36.289  0.00  0.00    +0.092 C 
ATOM      7  C16 UNL     1      18.141   9.250  35.208  0.00  0.00    +0.130 C 
ENDROOT
BRANCH   1  12
ATOM      8  C1  UNL     1      14.673  16.313  36.667  0.00  0.00    +0.065 C 
ATOM      9  C2  UNL     1      15.059  14.918  36.297  0.00  0.00    +0.038 A 
ATOM     10  C3  UNL     1      14.315  13.828  36.767  0.00  0.00    +0.024 A 
ATOM     11  C4  UNL     1      14.706  12.533  36.425  0.00  0.00    +0.016 A 
ATOM     12  C5  UNL     1      15.828  12.329  35.610  0.00  0.00    +0.055 A 
ATOM     13  C17 UNL     1      16.562  13.446  35.185  0.00  0.00    +0.124 A 
ATOM     14  N4  UNL     1      16.163  14.699  35.531  0.00  0.00    -0.259 NA
ENDBRANCH   1  12
BRANCH   6  15
ATOM     15  N2  UNL     1      20.380   8.326  35.736  0.00  0.00    -0.306 N 
ATOM     16  C10 UNL     1      20.684   6.966  35.388  0.00  0.00    +0.266 C 
ATOM     17  O2  UNL     1      19.876   6.046  35.693  0.00  0.00    -0.268 OA
ATOM     18  H11 UNL     1      21.169   9.008  35.805  0.00  0.00    +0.149 HD
BRANCH  16  19
ATOM     19  C11 UNL     1      21.950   6.611  34.715  0.00  0.00    +0.161 A 
ATOM     20  N3  UNL     1      21.914   6.266  33.397  0.00  0.00    -0.245 NA
ATOM     21  C12 UNL     1      23.036   5.929  32.705  0.00  0.00    +0.150 A 
ATOM     22  C13 UNL     1      24.277   5.936  33.342  0.00  0.00    +0.144 A 
ATOM     23  F1  UNL     1      25.399   5.604  32.658  0.00  0.00    -0.204 F 
ATOM     24  C14 UNL     1      24.351   6.302  34.687  0.00  0.00    +0.080 A 
ATOM     25  C15 UNL     1      23.191   6.647  35.382  0.00  0.00    +0.156 A 
ATOM     26  F2  UNL     1      23.293   7.059  36.671  0.00  0.00    -0.203 F 
ENDBRANCH  16  19
ENDBRANCH   6  15
TORSDOF 3
ENDMDL
MODEL 9
REMARK VINA RESULT:    -5.809      8.424     12.137
REMARK INTER + INTRA:          -7.235
REMARK INTER:                  -7.239
REMARK INTRA:                   0.004
REMARK UNBOUND:                -0.407
REMARK  Name = /home/qwerty/github/datacon2025hack/step_04_hit_selection/docking/ligands/lig_522.pdb
REMARK  4 active torsions:
REMARK  status: ('A' for Active; 'I' for Inactive)
REMARK    1  A    between atoms: C1_1  and  C2_2
REMARK    2  A    between atoms: C5_5  and  C6_6
REMARK    3  A    between atoms: C9_11  and  N2_12
REMARK    4  A    between atoms: C10_13  and  C11_15
REMARK                            x       y       z     vdW  Elec       q    Type
REMARK                         _______ _______ _______ _____ _____    ______ ____
ROOT
ATOM      1  C6  UNL     1       9.444   8.583  21.646  0.00  0.00    +0.248 C 
ATOM      2  O1  UNL     1       9.491   9.343  20.641  0.00  0.00    -0.270 OA
ATOM      3  N1  UNL     1       9.701   7.177  21.485  0.00  0.00    -0.296 N 
ATOM      4  C7  UNL     1       9.088   6.143  22.304  0.00  0.00    +0.110 C 
ATOM      5  C8  UNL     1       9.577   4.819  21.733  0.00  0.00    +0.043 C 
ATOM      6  C9  UNL     1      10.075   5.138  20.323  0.00  0.00    +0.092 C 
ATOM      7  C16 UNL     1      10.386   6.635  20.322  0.00  0.00    +0.130 C 
ENDROOT
BRANCH   1  12
ATOM      8  C1  UNL     1       8.236  10.746  26.844  0.00  0.00    +0.065 C 
ATOM      9  C2  UNL     1       8.530  10.204  25.482  0.00  0.00    +0.038 A 
ATOM     10  C3  UNL     1       7.499  10.033  24.550  0.00  0.00    +0.024 A 
ATOM     11  C4  UNL     1       7.794   9.507  23.291  0.00  0.00    +0.016 A 
ATOM     12  C5  UNL     1       9.114   9.163  22.964  0.00  0.00    +0.055 A 
ATOM     13  C17 UNL     1      10.110   9.324  23.937  0.00  0.00    +0.124 A 
ATOM     14  N4  UNL     1       9.799   9.838  25.157  0.00  0.00    -0.259 NA
ENDBRANCH   1  12
BRANCH   6  15
ATOM     15  N2  UNL     1      11.254   4.338  19.982  0.00  0.00    -0.306 N 
ATOM     16  C10 UNL     1      12.397   4.261  20.848  0.00  0.00    +0.266 C 
ATOM     17  O2  UNL     1      12.466   5.008  21.862  0.00  0.00    -0.268 OA
ATOM     18  H11 UNL     1      11.354   3.999  18.998  0.00  0.00    +0.149 HD
BRANCH  16  19
ATOM     19  C11 UNL     1      13.523   3.352  20.553  0.00  0.00    +0.161 A 
ATOM     20  N3  UNL     1      13.376   2.022  20.816  0.00  0.00    -0.245 NA
ATOM     21  C12 UNL     1      14.364   1.121  20.570  0.00  0.00    +0.150 A 
ATOM     22  C13 UNL     1      15.576   1.545  20.024  0.00  0.00    +0.144 A 
ATOM     23  F1  UNL     1      16.564   0.651  19.774  0.00  0.00    -0.204 F 
ATOM     24  C14 UNL     1      15.753   2.897  19.726  0.00  0.00    +0.080 A 
ATOM     25  C15 UNL     1      14.728   3.809  19.982  0.00  0.00    +0.156 A 
ATOM     26  F2  UNL     1      14.898   5.108  19.628  0.00  0.00    -0.203 F 
ENDBRANCH  16  19
ENDBRANCH   6  15
TORSDOF 3
ENDMDL
