REMARK  Name = /home/qwerty/github/datacon2025hack/step_04_hit_selection/docking/ligands/lig_128.pdb
REMARK  7 active torsions:
REMARK  status: ('A' for Active; 'I' for Inactive)
REMARK    1  A    between atoms: C1_1  and  C2_2
REMARK    2  A    between atoms: C2_2  and  C3_3
REMARK    3  A    between atoms: C2_2  and  N1_4
REMARK    4  A    between atoms: C6_7  and  N2_8
REMARK    5  A    between atoms: C7_9  and  C8_11
REMARK    6  A    between atoms: N3_13  and  C9_14
REMARK    7  A    between atoms: N4_22  and  C16_23
REMARK                            x       y       z     vdW  Elec       q    Type
REMARK                         _______ _______ _______ _____ _____    ______ ____
ROOT
ATOM      1  C8  UNL     1       0.605   0.325  -0.437  0.00  0.00    +0.303 C 
ATOM      2  O2  UNL     1       0.625   0.325   0.824  0.00  0.00    -0.265 OA
ATOM      3  N3  UNL     1       1.837   0.330  -1.178  0.00  0.00    -0.278 N 
ATOM      4  H14 UNL     1       1.815   0.010  -2.173  0.00  0.00    +0.155 HD
ENDROOT
BRANCH   3   5
ATOM      5  C9  UNL     1       3.120   0.629  -0.602  0.00  0.00    +0.035 A 
ATOM      6  C10 UNL     1       3.257   1.591   0.435  0.00  0.00    +0.024 A 
ATOM      7  C11 UNL     1       4.520   1.890   0.975  0.00  0.00    +0.015 A 
ATOM      8  C12 UNL     1       5.629   1.230   0.453  0.00  0.00    +0.050 A 
ATOM      9  C13 UNL     1       5.508   0.312  -0.565  0.00  0.00    +0.051 A 
ATOM     10  C14 UNL     1       4.270  -0.007  -1.117  0.00  0.00    +0.037 A 
ATOM     11  C15 UNL     1       6.844  -0.189  -0.868  0.00  0.00    +0.254 C 
ATOM     12  O3  UNL     1       7.117  -1.084  -1.711  0.00  0.00    -0.270 OA
ATOM     13  N4  UNL     1       7.814   0.462  -0.044  0.00  0.00    -0.237 N 
ATOM     14  C16 UNL     1       9.157  -0.028   0.239  0.00  0.00    +0.142 C 
ATOM     15  C17 UNL     1       7.043   1.319   0.802  0.00  0.00    +0.254 C 
ATOM     16  O4  UNL     1       7.526   2.021   1.729  0.00  0.00    -0.270 OA
ENDBRANCH   3   5
BRANCH   1  18
ATOM     17  N2  UNL     1      -1.922   0.228  -0.408  0.00  0.00    -0.296 N 
ATOM     18  C7  UNL     1      -0.689   0.278  -1.143  0.00  0.00    +0.300 C 
ATOM     19  O1  UNL     1      -0.710   0.285  -2.404  0.00  0.00    -0.265 OA
ATOM     20  H13 UNL     1      -1.889   0.231   0.637  0.00  0.00    +0.150 HD
BRANCH  17  24
ATOM     21  N1  UNL     1      -5.144  -0.772   0.036  0.00  0.00    -0.297 N 
ATOM     22  C4  UNL     1      -4.650  -1.843  -0.812  0.00  0.00    +0.110 C 
ATOM     23  C5  UNL     1      -3.497  -1.242  -1.640  0.00  0.00    +0.051 C 
ATOM     24  C6  UNL     1      -3.221   0.170  -1.086  0.00  0.00    +0.161 C 
ATOM     25  C18 UNL     1      -4.327   0.375  -0.124  0.00  0.00    +0.236 C 
ATOM     26  O5  UNL     1      -4.523   1.458   0.490  0.00  0.00    -0.274 OA
BRANCH  21  28
ATOM     27  C1  UNL     1      -7.403   0.052   0.596  0.00  0.00    +0.028 C 
ATOM     28  C2  UNL     1      -6.279  -0.924   0.956  0.00  0.00    +0.070 C 
ATOM     29  C3  UNL     1      -5.829  -0.751   2.409  0.00  0.00    +0.028 C 
ENDBRANCH  21  28
ENDBRANCH  17  24
ENDBRANCH   1  18
TORSDOF 4
