MODEL 1
REMARK VINA RESULT:    -5.754      0.000      0.000
REMARK INTER + INTRA:          -6.790
REMARK INTER:                  -6.427
REMARK INTRA:                  -0.363
REMARK UNBOUND:                -0.363
REMARK  Name = /home/qwerty/github/datacon2025hack/step_04_hit_selection/docking/ligands/lig_270.pdb
REMARK  4 active torsions:
REMARK  status: ('A' for Active; 'I' for Inactive)
REMARK    1  A    between atoms: C1_1  and  C2_2
REMARK    2  A    between atoms: C5_5  and  C6_6
REMARK    3  A    between atoms: N1_8  and  C7_9
REMARK    4  A    between atoms: C13_17  and  C14_18
REMARK                            x       y       z     vdW  Elec       q    Type
REMARK                         _______ _______ _______ _____ _____    ______ ____
ROOT
ATOM      1  C6  UNL     1      21.819   5.038  32.189  0.00  0.00    +0.249 C 
ATOM      2  O1  UNL     1      20.567   5.181  32.165  0.00  0.00    -0.270 OA
ATOM      3  N1  UNL     1      22.395   3.720  32.166  0.00  0.00    -0.279 N 
ATOM      4  H6  UNL     1      23.415   3.617  32.369  0.00  0.00    +0.155 HD
ENDROOT
BRANCH   1   9
ATOM      5  C1  UNL     1      25.257   9.706  32.429  0.00  0.00    +0.044 C 
ATOM      6  C2  UNL     1      24.385   8.486  32.376  0.00  0.00    -0.050 A 
ATOM      7  C3  UNL     1      23.748   8.127  31.182  0.00  0.00    +0.004 A 
ATOM      8  C4  UNL     1      22.915   7.009  31.137  0.00  0.00    +0.013 A 
ATOM      9  C5  UNL     1      22.686   6.236  32.288  0.00  0.00    +0.040 A 
ATOM     10  C13 UNL     1      23.300   6.615  33.509  0.00  0.00    -0.038 A 
ATOM     11  C14 UNL     1      23.071   5.846  34.785  0.00  0.00    +0.044 C 
ATOM     12  C15 UNL     1      24.149   7.736  33.536  0.00  0.00    +0.007 A 
ENDBRANCH   1   9
BRANCH   3  13
ATOM     13  C7  UNL     1      21.639   2.520  31.934  0.00  0.00    +0.072 A 
ATOM     14  C8  UNL     1      21.713   1.838  30.705  0.00  0.00    +0.064 A 
ATOM     15  C9  UNL     1      20.989   0.657  30.508  0.00  0.00    +0.125 A 
ATOM     16  F1  UNL     1      21.064   0.008  29.321  0.00  0.00    -0.205 F 
ATOM     17  C10 UNL     1      20.199   0.140  31.538  0.00  0.00    +0.041 A 
ATOM     18  C11 UNL     1      20.137   0.798  32.768  0.00  0.00    +0.043 A 
ATOM     19  C12 UNL     1      20.859   1.979  32.972  0.00  0.00    +0.145 A 
ATOM     20  F2  UNL     1      20.785   2.605  34.173  0.00  0.00    -0.204 F 
ENDBRANCH   3  13
TORSDOF 2
ENDMDL
MODEL 2
REMARK VINA RESULT:    -5.743     13.545     14.700
REMARK INTER + INTRA:          -6.778
REMARK INTER:                  -6.409
REMARK INTRA:                  -0.369
REMARK UNBOUND:                -0.363
REMARK  Name = /home/qwerty/github/datacon2025hack/step_04_hit_selection/docking/ligands/lig_270.pdb
REMARK  4 active torsions:
REMARK  status: ('A' for Active; 'I' for Inactive)
REMARK    1  A    between atoms: C1_1  and  C2_2
REMARK    2  A    between atoms: C5_5  and  C6_6
REMARK    3  A    between atoms: N1_8  and  C7_9
REMARK    4  A    between atoms: C13_17  and  C14_18
REMARK                            x       y       z     vdW  Elec       q    Type
REMARK                         _______ _______ _______ _____ _____    ______ ____
ROOT
ATOM      1  C6  UNL     1      11.959  12.489  32.354  0.00  0.00    +0.249 C 
ATOM      2  O1  UNL     1      12.845  11.913  31.667  0.00  0.00    -0.270 OA
ATOM      3  N1  UNL     1      11.127  13.500  31.758  0.00  0.00    -0.279 N 
ATOM      4  H6  UNL     1      10.531  14.089  32.382  0.00  0.00    +0.155 HD
ENDROOT
BRANCH   1   9
ATOM      5  C1  UNL     1      11.269  11.082  37.940  0.00  0.00    +0.044 C 
ATOM      6  C2  UNL     1      11.437  11.466  36.500  0.00  0.00    -0.050 A 
ATOM      7  C3  UNL     1      10.995  10.608  35.486  0.00  0.00    +0.004 A 
ATOM      8  C4  UNL     1      11.175  10.950  34.146  0.00  0.00    +0.013 A 
ATOM      9  C5  UNL     1      11.817  12.149  33.790  0.00  0.00    +0.040 A 
ATOM     10  C13 UNL     1      12.298  13.005  34.812  0.00  0.00    -0.038 A 
ATOM     11  C14 UNL     1      13.021  14.290  34.496  0.00  0.00    +0.044 C 
ATOM     12  C15 UNL     1      12.096  12.654  36.159  0.00  0.00    +0.007 A 
ENDBRANCH   1   9
BRANCH   3  13
ATOM     13  C7  UNL     1      11.106  13.792  30.351  0.00  0.00    +0.072 A 
ATOM     14  C8  UNL     1      10.047  13.358  29.532  0.00  0.00    +0.064 A 
ATOM     15  C9  UNL     1      10.031  13.674  28.169  0.00  0.00    +0.125 A 
ATOM     16  F1  UNL     1       9.008  13.250  27.388  0.00  0.00    -0.205 F 
ATOM     17  C10 UNL     1      11.064  14.436  27.616  0.00  0.00    +0.041 A 
ATOM     18  C11 UNL     1      12.108  14.889  28.424  0.00  0.00    +0.043 A 
ATOM     19  C12 UNL     1      12.128  14.577  29.788  0.00  0.00    +0.145 A 
ATOM     20  F2  UNL     1      13.152  15.025  30.558  0.00  0.00    -0.204 F 
ENDBRANCH   3  13
TORSDOF 2
ENDMDL
MODEL 3
REMARK VINA RESULT:    -5.739     14.975     16.552
REMARK INTER + INTRA:          -6.773
REMARK INTER:                  -6.291
REMARK INTRA:                  -0.482
REMARK UNBOUND:                -0.363
REMARK  Name = /home/qwerty/github/datacon2025hack/step_04_hit_selection/docking/ligands/lig_270.pdb
REMARK  4 active torsions:
REMARK  status: ('A' for Active; 'I' for Inactive)
REMARK    1  A    between atoms: C1_1  and  C2_2
REMARK    2  A    between atoms: C5_5  and  C6_6
REMARK    3  A    between atoms: N1_8  and  C7_9
REMARK    4  A    between atoms: C13_17  and  C14_18
REMARK                            x       y       z     vdW  Elec       q    Type
REMARK                         _______ _______ _______ _____ _____    ______ ____
ROOT
ATOM      1  C6  UNL     1      12.001   3.793  21.277  0.00  0.00    +0.249 C 
ATOM      2  O1  UNL     1      12.001   4.338  22.414  0.00  0.00    -0.270 OA
ATOM      3  N1  UNL     1      10.912   4.023  20.366  0.00  0.00    -0.279 N 
ATOM      4  H6  UNL     1      10.840   3.426  19.512  0.00  0.00    +0.155 HD
ENDROOT
BRANCH   1   9
ATOM      5  C1  UNL     1      16.320   0.145  19.972  0.00  0.00    +0.044 C 
ATOM      6  C2  UNL     1      15.219   1.104  20.318  0.00  0.00    -0.050 A 
ATOM      7  C3  UNL     1      14.137   0.681  21.098  0.00  0.00    +0.004 A 
ATOM      8  C4  UNL     1      13.098   1.562  21.398  0.00  0.00    +0.013 A 
ATOM      9  C5  UNL     1      13.109   2.880  20.909  0.00  0.00    +0.040 A 
ATOM     10  C13 UNL     1      14.185   3.303  20.088  0.00  0.00    -0.038 A 
ATOM     11  C14 UNL     1      14.241   4.694  19.509  0.00  0.00    +0.044 C 
ATOM     12  C15 UNL     1      15.233   2.408  19.807  0.00  0.00    +0.007 A 
ENDBRANCH   1   9
BRANCH   3  13
ATOM     13  C7  UNL     1       9.875   4.994  20.587  0.00  0.00    +0.072 A 
ATOM     14  C8  UNL     1       8.611   4.612  21.076  0.00  0.00    +0.064 A 
ATOM     15  C9  UNL     1       7.624   5.575  21.310  0.00  0.00    +0.125 A 
ATOM     16  F1  UNL     1       6.409   5.198  21.779  0.00  0.00    -0.205 F 
ATOM     17  C10 UNL     1       7.892   6.925  21.072  0.00  0.00    +0.041 A 
ATOM     18  C11 UNL     1       9.150   7.316  20.608  0.00  0.00    +0.043 A 
ATOM     19  C12 UNL     1      10.143   6.357  20.373  0.00  0.00    +0.145 A 
ATOM     20  F2  UNL     1      11.358   6.755  19.920  0.00  0.00    -0.204 F 
ENDBRANCH   3  13
TORSDOF 2
ENDMDL
MODEL 4
REMARK VINA RESULT:    -5.734     14.435     16.341
REMARK INTER + INTRA:          -6.768
REMARK INTER:                  -6.326
REMARK INTRA:                  -0.442
REMARK UNBOUND:                -0.363
REMARK  Name = /home/qwerty/github/datacon2025hack/step_04_hit_selection/docking/ligands/lig_270.pdb
REMARK  4 active torsions:
REMARK  status: ('A' for Active; 'I' for Inactive)
REMARK    1  A    between atoms: C1_1  and  C2_2
REMARK    2  A    between atoms: C5_5  and  C6_6
REMARK    3  A    between atoms: N1_8  and  C7_9
REMARK    4  A    between atoms: C13_17  and  C14_18
REMARK                            x       y       z     vdW  Elec       q    Type
REMARK                         _______ _______ _______ _____ _____    ______ ____
ROOT
ATOM      1  C6  UNL     1      11.666   4.544  21.135  0.00  0.00    +0.249 C 
ATOM      2  O1  UNL     1      12.329   4.793  22.177  0.00  0.00    -0.270 OA
ATOM      3  N1  UNL     1      12.278   3.835  20.042  0.00  0.00    -0.279 N 
ATOM      4  H6  UNL     1      11.777   3.800  19.126  0.00  0.00    +0.155 HD
ENDROOT
BRANCH   1   9
ATOM      5  C1  UNL     1       6.153   6.294  20.680  0.00  0.00    +0.044 C 
ATOM      6  C2  UNL     1       7.582   5.848  20.775  0.00  0.00    -0.050 A 
ATOM      7  C3  UNL     1       7.889   4.553  21.210  0.00  0.00    +0.004 A 
ATOM      8  C4  UNL     1       9.217   4.144  21.326  0.00  0.00    +0.013 A 
ATOM      9  C5  UNL     1      10.269   5.028  21.028  0.00  0.00    +0.040 A 
ATOM     10  C13 UNL     1       9.966   6.352  20.621  0.00  0.00    -0.038 A 
ATOM     11  C14 UNL     1      11.049   7.355  20.316  0.00  0.00    +0.044 C 
ATOM     12  C15 UNL     1       8.622   6.744  20.494  0.00  0.00    +0.007 A 
ENDBRANCH   1   9
BRANCH   3  13
ATOM     13  C7  UNL     1      13.573   3.216  20.116  0.00  0.00    +0.072 A 
ATOM     14  C8  UNL     1      13.727   1.902  20.598  0.00  0.00    +0.064 A 
ATOM     15  C9  UNL     1      14.992   1.307  20.638  0.00  0.00    +0.125 A 
ATOM     16  F1  UNL     1      15.131   0.043  21.106  0.00  0.00    -0.205 F 
ATOM     17  C10 UNL     1      16.111   2.011  20.184  0.00  0.00    +0.041 A 
ATOM     18  C11 UNL     1      15.965   3.306  19.683  0.00  0.00    +0.043 A 
ATOM     19  C12 UNL     1      14.702   3.906  19.640  0.00  0.00    +0.145 A 
ATOM     20  F2  UNL     1      14.580   5.166  19.152  0.00  0.00    -0.204 F 
ENDBRANCH   3  13
TORSDOF 2
ENDMDL
MODEL 5
REMARK VINA RESULT:    -5.675     14.644     16.499
REMARK INTER + INTRA:          -6.702
REMARK INTER:                  -6.234
REMARK INTRA:                  -0.468
REMARK UNBOUND:                -0.363
REMARK  Name = /home/qwerty/github/datacon2025hack/step_04_hit_selection/docking/ligands/lig_270.pdb
REMARK  4 active torsions:
REMARK  status: ('A' for Active; 'I' for Inactive)
REMARK    1  A    between atoms: C1_1  and  C2_2
REMARK    2  A    between atoms: C5_5  and  C6_6
REMARK    3  A    between atoms: N1_8  and  C7_9
REMARK    4  A    between atoms: C13_17  and  C14_18
REMARK                            x       y       z     vdW  Elec       q    Type
REMARK                         _______ _______ _______ _____ _____    ______ ____
ROOT
ATOM      1  C6  UNL     1      11.612   4.843  20.998  0.00  0.00    +0.249 C 
ATOM      2  O1  UNL     1      12.222   4.951  22.096  0.00  0.00    -0.270 OA
ATOM      3  N1  UNL     1      12.306   4.376  19.828  0.00  0.00    -0.279 N 
ATOM      4  H6  UNL     1      11.837   4.467  18.899  0.00  0.00    +0.155 HD
ENDROOT
BRANCH   1   9
ATOM      5  C1  UNL     1       6.002   6.277  20.630  0.00  0.00    +0.044 C 
ATOM      6  C2  UNL     1       7.455   5.915  20.703  0.00  0.00    -0.050 A 
ATOM      7  C3  UNL     1       7.841   4.616  21.056  0.00  0.00    +0.004 A 
ATOM      8  C4  UNL     1       9.192   4.283  21.152  0.00  0.00    +0.013 A 
ATOM      9  C5  UNL     1      10.187   5.246  20.916  0.00  0.00    +0.040 A 
ATOM     10  C13 UNL     1       9.804   6.573  20.594  0.00  0.00    -0.038 A 
ATOM     11  C14 UNL     1      10.823   7.659  20.358  0.00  0.00    +0.044 C 
ATOM     12  C15 UNL     1       8.438   6.890  20.486  0.00  0.00    +0.007 A 
ENDBRANCH   1   9
BRANCH   3  13
ATOM     13  C7  UNL     1      13.639   3.839  19.850  0.00  0.00    +0.072 A 
ATOM     14  C8  UNL     1      14.754   4.641  19.541  0.00  0.00    +0.064 A 
ATOM     15  C9  UNL     1      16.045   4.107  19.593  0.00  0.00    +0.125 A 
ATOM     16  F1  UNL     1      17.113   4.886  19.292  0.00  0.00    -0.205 F 
ATOM     17  C10 UNL     1      16.237   2.774  19.968  0.00  0.00    +0.041 A 
ATOM     18  C11 UNL     1      15.139   1.976  20.298  0.00  0.00    +0.043 A 
ATOM     19  C12 UNL     1      13.844   2.506  20.248  0.00  0.00    +0.145 A 
ATOM     20  F2  UNL     1      12.790   1.715  20.570  0.00  0.00    -0.204 F 
ENDBRANCH   3  13
TORSDOF 2
ENDMDL
MODEL 6
REMARK VINA RESULT:    -5.653      0.935      1.913
REMARK INTER + INTRA:          -6.677
REMARK INTER:                  -6.467
REMARK INTRA:                  -0.210
REMARK UNBOUND:                -0.363
REMARK  Name = /home/qwerty/github/datacon2025hack/step_04_hit_selection/docking/ligands/lig_270.pdb
REMARK  4 active torsions:
REMARK  status: ('A' for Active; 'I' for Inactive)
REMARK    1  A    between atoms: C1_1  and  C2_2
REMARK    2  A    between atoms: C5_5  and  C6_6
REMARK    3  A    between atoms: N1_8  and  C7_9
REMARK    4  A    between atoms: C13_17  and  C14_18
REMARK                            x       y       z     vdW  Elec       q    Type
REMARK                         _______ _______ _______ _____ _____    ______ ____
ROOT
ATOM      1  C6  UNL     1      21.695   4.991  32.298  0.00  0.00    +0.249 C 
ATOM      2  O1  UNL     1      20.447   5.167  32.261  0.00  0.00    -0.270 OA
ATOM      3  N1  UNL     1      22.236   3.658  32.313  0.00  0.00    -0.279 N 
ATOM      4  H6  UNL     1      23.251   3.534  32.526  0.00  0.00    +0.155 HD
ENDROOT
BRANCH   1   9
ATOM      5  C1  UNL     1      25.255   9.570  32.450  0.00  0.00    +0.044 C 
ATOM      6  C2  UNL     1      24.352   8.373  32.420  0.00  0.00    -0.050 A 
ATOM      7  C3  UNL     1      23.719   7.998  31.230  0.00  0.00    +0.004 A 
ATOM      8  C4  UNL     1      22.856   6.902  31.205  0.00  0.00    +0.013 A 
ATOM      9  C5  UNL     1      22.593   6.168  32.374  0.00  0.00    +0.040 A 
ATOM     10  C13 UNL     1      23.203   6.565  33.591  0.00  0.00    -0.038 A 
ATOM     11  C14 UNL     1      22.939   5.838  34.885  0.00  0.00    +0.044 C 
ATOM     12  C15 UNL     1      24.082   7.662  33.597  0.00  0.00    +0.007 A 
ENDBRANCH   1   9
BRANCH   3  13
ATOM     13  C7  UNL     1      21.450   2.473  32.105  0.00  0.00    +0.072 A 
ATOM     14  C8  UNL     1      20.453   2.090  33.022  0.00  0.00    +0.064 A 
ATOM     15  C9  UNL     1      19.680   0.947  32.788  0.00  0.00    +0.125 A 
ATOM     16  F1  UNL     1      18.724   0.584  33.678  0.00  0.00    -0.205 F 
ATOM     17  C10 UNL     1      19.885   0.187  31.634  0.00  0.00    +0.041 A 
ATOM     18  C11 UNL     1      20.857   0.572  30.708  0.00  0.00    +0.043 A 
ATOM     19  C12 UNL     1      21.632   1.715  30.935  0.00  0.00    +0.145 A 
ATOM     20  F2  UNL     1      22.573   2.072  30.025  0.00  0.00    -0.204 F 
ENDBRANCH   3  13
TORSDOF 2
ENDMDL
MODEL 7
REMARK VINA RESULT:    -5.638     15.805     16.798
REMARK INTER + INTRA:          -6.660
REMARK INTER:                  -6.284
REMARK INTRA:                  -0.376
REMARK UNBOUND:                -0.363
REMARK  Name = /home/qwerty/github/datacon2025hack/step_04_hit_selection/docking/ligands/lig_270.pdb
REMARK  4 active torsions:
REMARK  status: ('A' for Active; 'I' for Inactive)
REMARK    1  A    between atoms: C1_1  and  C2_2
REMARK    2  A    between atoms: C5_5  and  C6_6
REMARK    3  A    between atoms: N1_8  and  C7_9
REMARK    4  A    between atoms: C13_17  and  C14_18
REMARK                            x       y       z     vdW  Elec       q    Type
REMARK                         _______ _______ _______ _____ _____    ______ ____
ROOT
ATOM      1  C6  UNL     1       9.604   9.584  24.963  0.00  0.00    +0.249 C 
ATOM      2  O1  UNL     1      10.217   8.769  25.704  0.00  0.00    -0.270 OA
ATOM      3  N1  UNL     1       8.534  10.383  25.498  0.00  0.00    -0.279 N 
ATOM      4  H6  UNL     1       7.925  10.912  24.834  0.00  0.00    +0.155 HD
ENDROOT
BRANCH   1   9
ATOM      5  C1  UNL     1      11.081  10.088  19.375  0.00  0.00    +0.044 C 
ATOM      6  C2  UNL     1      10.678   9.966  20.815  0.00  0.00    -0.050 A 
ATOM      7  C3  UNL     1      11.455  10.559  21.817  0.00  0.00    +0.004 A 
ATOM      8  C4  UNL     1      11.098  10.424  23.158  0.00  0.00    +0.013 A 
ATOM      9  C5  UNL     1       9.967   9.677  23.529  0.00  0.00    +0.040 A 
ATOM     10  C13 UNL     1       9.196   9.044  22.521  0.00  0.00    -0.038 A 
ATOM     11  C14 UNL     1       7.989   8.205  22.855  0.00  0.00    +0.044 C 
ATOM     12  C15 UNL     1       9.560   9.201  21.172  0.00  0.00    +0.007 A 
ENDBRANCH   1   9
BRANCH   3  13
ATOM     13  C7  UNL     1       8.212  10.455  26.897  0.00  0.00    +0.072 A 
ATOM     14  C8  UNL     1       8.536  11.591  27.663  0.00  0.00    +0.064 A 
ATOM     15  C9  UNL     1       8.191  11.653  29.017  0.00  0.00    +0.125 A 
ATOM     16  F1  UNL     1       8.508  12.750  29.747  0.00  0.00    -0.205 F 
ATOM     17  C10 UNL     1       7.508  10.590  29.615  0.00  0.00    +0.041 A 
ATOM     18  C11 UNL     1       7.163   9.468  28.858  0.00  0.00    +0.043 A 
ATOM     19  C12 UNL     1       7.505   9.401  27.503  0.00  0.00    +0.145 A 
ATOM     20  F2  UNL     1       7.163   8.302  26.785  0.00  0.00    -0.204 F 
ENDBRANCH   3  13
TORSDOF 2
ENDMDL
MODEL 8
REMARK VINA RESULT:    -5.556     15.555     16.988
REMARK INTER + INTRA:          -6.569
REMARK INTER:                  -6.127
REMARK INTRA:                  -0.443
REMARK UNBOUND:                -0.363
REMARK  Name = /home/qwerty/github/datacon2025hack/step_04_hit_selection/docking/ligands/lig_270.pdb
REMARK  4 active torsions:
REMARK  status: ('A' for Active; 'I' for Inactive)
REMARK    1  A    between atoms: C1_1  and  C2_2
REMARK    2  A    between atoms: C5_5  and  C6_6
REMARK    3  A    between atoms: N1_8  and  C7_9
REMARK    4  A    between atoms: C13_17  and  C14_18
REMARK                            x       y       z     vdW  Elec       q    Type
REMARK                         _______ _______ _______ _____ _____    ______ ____
ROOT
ATOM      1  C6  UNL     1       8.807   8.072  25.921  0.00  0.00    +0.249 C 
ATOM      2  O1  UNL     1       9.929   8.130  26.492  0.00  0.00    -0.270 OA
ATOM      3  N1  UNL     1       7.720   8.896  26.378  0.00  0.00    -0.279 N 
ATOM      4  H6  UNL     1       6.759   8.703  26.015  0.00  0.00    +0.155 HD
ENDROOT
BRANCH   1   9
ATOM      5  C1  UNL     1       7.981   4.443  21.469  0.00  0.00    +0.044 C 
ATOM      6  C2  UNL     1       8.173   5.377  22.628  0.00  0.00    -0.050 A 
ATOM      7  C3  UNL     1       8.592   6.694  22.409  0.00  0.00    +0.004 A 
ATOM      8  C4  UNL     1       8.798   7.556  23.486  0.00  0.00    +0.013 A 
ATOM      9  C5  UNL     1       8.608   7.115  24.807  0.00  0.00    +0.040 A 
ATOM     10  C13 UNL     1       8.217   5.771  25.037  0.00  0.00    -0.038 A 
ATOM     11  C14 UNL     1       8.025   5.228  26.430  0.00  0.00    +0.044 C 
ATOM     12  C15 UNL     1       7.999   4.918  23.940  0.00  0.00    +0.007 A 
ENDBRANCH   1   9
BRANCH   3  13
ATOM     13  C7  UNL     1       7.864   9.941  27.354  0.00  0.00    +0.072 A 
ATOM     14  C8  UNL     1       8.331  11.219  26.991  0.00  0.00    +0.064 A 
ATOM     15  C9  UNL     1       8.440  12.231  27.950  0.00  0.00    +0.125 A 
ATOM     16  F1  UNL     1       8.892  13.457  27.592  0.00  0.00    -0.205 F 
ATOM     17  C10 UNL     1       8.071  11.982  29.275  0.00  0.00    +0.041 A 
ATOM     18  C11 UNL     1       7.586  10.724  29.640  0.00  0.00    +0.043 A 
ATOM     19  C12 UNL     1       7.473   9.708  28.685  0.00  0.00    +0.145 A 
ATOM     20  F2  UNL     1       7.002   8.493  29.059  0.00  0.00    -0.204 F 
ENDBRANCH   3  13
TORSDOF 2
ENDMDL
MODEL 9
REMARK VINA RESULT:    -5.518     16.087     17.451
REMARK INTER + INTRA:          -6.526
REMARK INTER:                  -6.217
REMARK INTRA:                  -0.309
REMARK UNBOUND:                -0.363
REMARK  Name = /home/qwerty/github/datacon2025hack/step_04_hit_selection/docking/ligands/lig_270.pdb
REMARK  4 active torsions:
REMARK  status: ('A' for Active; 'I' for Inactive)
REMARK    1  A    between atoms: C1_1  and  C2_2
REMARK    2  A    between atoms: C5_5  and  C6_6
REMARK    3  A    between atoms: N1_8  and  C7_9
REMARK    4  A    between atoms: C13_17  and  C14_18
REMARK                            x       y       z     vdW  Elec       q    Type
REMARK                         _______ _______ _______ _____ _____    ______ ____
ROOT
ATOM      1  C6  UNL     1       8.830   9.159  25.324  0.00  0.00    +0.249 C 
ATOM      2  O1  UNL     1      10.025   9.457  25.593  0.00  0.00    -0.270 OA
ATOM      3  N1  UNL     1       7.765   9.590  26.190  0.00  0.00    -0.279 N 
ATOM      4  H6  UNL     1       6.813   9.184  26.052  0.00  0.00    +0.155 HD
ENDROOT
BRANCH   1   9
ATOM      5  C1  UNL     1       7.802   5.784  20.718  0.00  0.00    +0.044 C 
ATOM      6  C2  UNL     1       8.083   6.669  21.896  0.00  0.00    -0.050 A 
ATOM      7  C3  UNL     1       8.462   6.111  23.122  0.00  0.00    +0.004 A 
ATOM      8  C4  UNL     1       8.697   6.929  24.227  0.00  0.00    +0.013 A 
ATOM      9  C5  UNL     1       8.540   8.323  24.135  0.00  0.00    +0.040 A 
ATOM     10  C13 UNL     1       8.122   8.892  22.905  0.00  0.00    -0.038 A 
ATOM     11  C14 UNL     1       7.908  10.376  22.750  0.00  0.00    +0.044 C 
ATOM     12  C15 UNL     1       7.904   8.055  21.796  0.00  0.00    +0.007 A 
ENDBRANCH   1   9
BRANCH   3  13
ATOM     13  C7  UNL     1       7.943  10.512  27.279  0.00  0.00    +0.072 A 
ATOM     14  C8  UNL     1       8.378  11.832  27.053  0.00  0.00    +0.064 A 
ATOM     15  C9  UNL     1       8.520  12.722  28.123  0.00  0.00    +0.125 A 
ATOM     16  F1  UNL     1       8.942  13.990  27.897  0.00  0.00    -0.205 F 
ATOM     17  C10 UNL     1       8.217  12.308  29.423  0.00  0.00    +0.041 A 
ATOM     18  C11 UNL     1       7.765  11.007  29.654  0.00  0.00    +0.043 A 
ATOM     19  C12 UNL     1       7.619  10.113  28.587  0.00  0.00    +0.145 A 
ATOM     20  F2  UNL     1       7.180   8.853  28.831  0.00  0.00    -0.204 F 
ENDBRANCH   3  13
TORSDOF 2
ENDMDL
