MODEL 1
REMARK VINA RESULT:    -8.345      0.000      0.000
REMARK INTER + INTRA:         -10.686
REMARK INTER:                 -10.053
REMARK INTRA:                  -0.634
REMARK UNBOUND:                -0.634
REMARK  Name = /home/qwerty/github/datacon2025hack/step_04_hit_selection/docking/ligands/lig_716.pdb
REMARK  7 active torsions:
REMARK  status: ('A' for Active; 'I' for Inactive)
REMARK    1  A    between atoms: C1_1  and  C2_2
REMARK    2  A    between atoms: C5_5  and  C6_6
REMARK    3  A    between atoms: C9_11  and  C10_13
REMARK    4  A    between atoms: C14_18  and  C15_19
REMARK    5  A    between atoms: C17_21  and  C18_22
REMARK    6  A    between atoms: C20_24  and  C21_25
REMARK    7  A    between atoms: C24_28  and  N3_29
REMARK                            x       y       z     vdW  Elec       q    Type
REMARK                         _______ _______ _______ _____ _____    ______ ____
ROOT
ATOM      1  C10 UNL     1      16.608  13.576  28.404  0.00  0.00    +0.127 A 
ATOM      2  C11 UNL     1      16.326  12.765  29.517  0.00  0.00    +0.035 A 
ATOM      3  C12 UNL     1      15.006  12.400  29.791  0.00  0.00    +0.032 A 
ATOM      4  C13 UNL     1      13.978  12.847  28.962  0.00  0.00    +0.092 A 
ATOM      5  N2  UNL     1      12.687  12.513  29.222  0.00  0.00    -0.245 NA
ATOM      6  C14 UNL     1      11.655  12.943  28.443  0.00  0.00    +0.074 A 
ATOM      7  C23 UNL     1      11.929  13.745  27.320  0.00  0.00    +0.053 A 
ATOM      8  C24 UNL     1      13.250  14.105  27.020  0.00  0.00    +0.054 A 
ATOM      9  C25 UNL     1      14.288  13.656  27.853  0.00  0.00    +0.111 A 
ATOM     10  N4  UNL     1      15.584  13.994  27.608  0.00  0.00    -0.239 NA
ENDROOT
BRANCH   1  16
ATOM     11  C6  UNL     1      22.246  14.213  27.312  0.00  0.00    +0.080 A 
ATOM     12  C7  UNL     1      22.903  13.790  28.472  0.00  0.00    +0.076 A 
ATOM     13  S1  UNL     1      21.739  13.378  29.616  0.00  0.00    -0.060 S 
ATOM     14  C8  UNL     1      20.458  13.760  28.602  0.00  0.00    +0.165 A 
ATOM     15  N1  UNL     1      19.078  13.605  28.956  0.00  0.00    -0.259 N 
ATOM     16  C9  UNL     1      17.992  14.000  28.100  0.00  0.00    +0.268 C 
ATOM     17  O1  UNL     1      18.216  14.718  27.086  0.00  0.00    -0.268 OA
ATOM     18  N5  UNL     1      20.887  14.187  27.395  0.00  0.00    -0.225 NA
ATOM     19  H7  UNL     1      18.864  13.183  29.887  0.00  0.00    +0.157 HD
BRANCH  11  24
ATOM     20  C1  UNL     1      24.955  15.922  22.468  0.00  0.00    +0.044 C 
ATOM     21  C2  UNL     1      24.234  15.474  23.706  0.00  0.00    -0.050 A 
ATOM     22  C3  UNL     1      23.951  14.116  23.912  0.00  0.00    +0.004 A 
ATOM     23  C4  UNL     1      23.301  13.700  25.077  0.00  0.00    +0.010 A 
ATOM     24  C5  UNL     1      22.937  14.633  26.066  0.00  0.00    +0.001 A 
ATOM     25  C26 UNL     1      23.253  15.989  25.867  0.00  0.00    +0.010 A 
ATOM     26  C27 UNL     1      23.896  16.406  24.698  0.00  0.00    +0.004 A 
ENDBRANCH  11  24
ENDBRANCH   1  16
BRANCH   6  27
ATOM     27  C15 UNL     1      10.269  12.540  28.792  0.00  0.00    +0.001 A 
ATOM     28  C16 UNL     1       9.866  11.193  28.741  0.00  0.00    +0.013 A 
ATOM     29  C17 UNL     1       8.549  10.828  29.058  0.00  0.00    -0.050 A 
ATOM     30  C18 UNL     1       8.147   9.383  29.037  0.00  0.00    +0.044 C 
ATOM     31  C19 UNL     1       7.633  11.814  29.449  0.00  0.00    +0.006 A 
ATOM     32  C20 UNL     1       8.011  13.164  29.477  0.00  0.00    -0.050 A 
ATOM     33  C21 UNL     1       7.033  14.212  29.920  0.00  0.00    +0.044 C 
ATOM     34  C22 UNL     1       9.329  13.520  29.157  0.00  0.00    +0.013 A 
ENDBRANCH   6  27
BRANCH   8  35
ATOM     35  N3  UNL     1      13.522  14.913  25.870  0.00  0.00    -0.356 N 
ATOM     36  H20 UNL     1      14.363  15.531  25.824  0.00  0.00    +0.142 HD
ATOM     37  H21 UNL     1      12.884  14.895  25.044  0.00  0.00    +0.142 HD
ENDBRANCH   8  35
TORSDOF 4
ENDMDL
MODEL 2
REMARK VINA RESULT:    -7.739      0.992      1.897
REMARK INTER + INTRA:          -9.957
REMARK INTER:                  -9.303
REMARK INTRA:                  -0.653
REMARK UNBOUND:                -0.634
REMARK  Name = /home/qwerty/github/datacon2025hack/step_04_hit_selection/docking/ligands/lig_716.pdb
REMARK  7 active torsions:
REMARK  status: ('A' for Active; 'I' for Inactive)
REMARK    1  A    between atoms: C1_1  and  C2_2
REMARK    2  A    between atoms: C5_5  and  C6_6
REMARK    3  A    between atoms: C9_11  and  C10_13
REMARK    4  A    between atoms: C14_18  and  C15_19
REMARK    5  A    between atoms: C17_21  and  C18_22
REMARK    6  A    between atoms: C20_24  and  C21_25
REMARK    7  A    between atoms: C24_28  and  N3_29
REMARK                            x       y       z     vdW  Elec       q    Type
REMARK                         _______ _______ _______ _____ _____    ______ ____
ROOT
ATOM      1  C10 UNL     1      16.337  14.339  28.486  0.00  0.00    +0.127 A 
ATOM      2  C11 UNL     1      15.584  15.181  29.325  0.00  0.00    +0.035 A 
ATOM      3  C12 UNL     1      14.235  14.904  29.552  0.00  0.00    +0.032 A 
ATOM      4  C13 UNL     1      13.643  13.797  28.945  0.00  0.00    +0.092 A 
ATOM      5  N2  UNL     1      12.329  13.521  29.145  0.00  0.00    -0.245 NA
ATOM      6  C14 UNL     1      11.713  12.457  28.557  0.00  0.00    +0.074 A 
ATOM      7  C23 UNL     1      12.461  11.602  27.726  0.00  0.00    +0.053 A 
ATOM      8  C24 UNL     1      13.821  11.856  27.502  0.00  0.00    +0.054 A 
ATOM      9  C25 UNL     1      14.421  12.969  28.113  0.00  0.00    +0.111 A 
ATOM     10  N4  UNL     1      15.735  13.262  27.910  0.00  0.00    -0.239 NA
ENDROOT
BRANCH   1  16
ATOM     11  C6  UNL     1      22.021  14.393  27.449  0.00  0.00    +0.080 A 
ATOM     12  C7  UNL     1      22.618  13.862  28.598  0.00  0.00    +0.076 A 
ATOM     13  S1  UNL     1      21.405  13.540  29.720  0.00  0.00    -0.060 S 
ATOM     14  C8  UNL     1      20.183  14.094  28.713  0.00  0.00    +0.165 A 
ATOM     15  N1  UNL     1      18.790  14.079  29.053  0.00  0.00    -0.259 N 
ATOM     16  C9  UNL     1      17.762  14.619  28.205  0.00  0.00    +0.268 C 
ATOM     17  O1  UNL     1      18.073  15.342  27.219  0.00  0.00    -0.268 OA
ATOM     18  N5  UNL     1      20.667  14.513  27.523  0.00  0.00    -0.225 NA
ATOM     19  H7  UNL     1      18.524  13.651  29.967  0.00  0.00    +0.157 HD
BRANCH  11  24
ATOM     20  C1  UNL     1      24.931  15.966  22.676  0.00  0.00    +0.044 C 
ATOM     21  C2  UNL     1      24.160  15.550  23.894  0.00  0.00    -0.050 A 
ATOM     22  C3  UNL     1      23.995  14.192  24.203  0.00  0.00    +0.004 A 
ATOM     23  C4  UNL     1      23.297  13.809  25.351  0.00  0.00    +0.010 A 
ATOM     24  C5  UNL     1      22.766  14.778  26.223  0.00  0.00    +0.001 A 
ATOM     25  C26 UNL     1      22.964  16.138  25.924  0.00  0.00    +0.010 A 
ATOM     26  C27 UNL     1      23.654  16.521  24.771  0.00  0.00    +0.004 A 
ENDBRANCH  11  24
ENDBRANCH   1  16
BRANCH   6  27
ATOM     27  C15 UNL     1      10.271  12.220  28.819  0.00  0.00    +0.001 A 
ATOM     28  C16 UNL     1       9.430  13.257  29.263  0.00  0.00    +0.013 A 
ATOM     29  C17 UNL     1       8.073  13.015  29.523  0.00  0.00    -0.050 A 
ATOM     30  C18 UNL     1       7.182  14.142  29.956  0.00  0.00    +0.044 C 
ATOM     31  C19 UNL     1       7.546  11.733  29.318  0.00  0.00    +0.006 A 
ATOM     32  C20 UNL     1       8.377  10.682  28.905  0.00  0.00    -0.050 A 
ATOM     33  C21 UNL     1       7.804   9.317  28.664  0.00  0.00    +0.044 C 
ATOM     34  C22 UNL     1       9.733  10.932  28.649  0.00  0.00    +0.013 A 
ENDBRANCH   6  27
BRANCH   8  35
ATOM     35  N3  UNL     1      14.579  10.976  26.663  0.00  0.00    -0.356 N 
ATOM     36  H20 UNL     1      14.207  10.045  26.372  0.00  0.00    +0.142 HD
ATOM     37  H21 UNL     1      15.523  11.255  26.317  0.00  0.00    +0.142 HD
ENDBRANCH   8  35
TORSDOF 4
ENDMDL
MODEL 3
REMARK VINA RESULT:    -7.639     11.699     15.043
REMARK INTER + INTRA:          -9.836
REMARK INTER:                  -9.187
REMARK INTRA:                  -0.649
REMARK UNBOUND:                -0.634
REMARK  Name = /home/qwerty/github/datacon2025hack/step_04_hit_selection/docking/ligands/lig_716.pdb
REMARK  7 active torsions:
REMARK  status: ('A' for Active; 'I' for Inactive)
REMARK    1  A    between atoms: C1_1  and  C2_2
REMARK    2  A    between atoms: C5_5  and  C6_6
REMARK    3  A    between atoms: C9_11  and  C10_13
REMARK    4  A    between atoms: C14_18  and  C15_19
REMARK    5  A    between atoms: C17_21  and  C18_22
REMARK    6  A    between atoms: C20_24  and  C21_25
REMARK    7  A    between atoms: C24_28  and  N3_29
REMARK                            x       y       z     vdW  Elec       q    Type
REMARK                         _______ _______ _______ _____ _____    ______ ____
ROOT
ATOM      1  C10 UNL     1      19.584   2.029  28.617  0.00  0.00    +0.127 A 
ATOM      2  C11 UNL     1      20.130   1.370  29.732  0.00  0.00    +0.035 A 
ATOM      3  C12 UNL     1      20.862   2.095  30.675  0.00  0.00    +0.032 A 
ATOM      4  C13 UNL     1      21.049   3.466  30.501  0.00  0.00    +0.092 A 
ATOM      5  N2  UNL     1      21.771   4.183  31.400  0.00  0.00    -0.245 NA
ATOM      6  C14 UNL     1      21.987   5.521  31.256  0.00  0.00    +0.074 A 
ATOM      7  C23 UNL     1      21.434   6.191  30.149  0.00  0.00    +0.053 A 
ATOM      8  C24 UNL     1      20.681   5.482  29.203  0.00  0.00    +0.054 A 
ATOM      9  C25 UNL     1      20.489   4.101  29.376  0.00  0.00    +0.111 A 
ATOM     10  N4  UNL     1      19.778   3.370  28.474  0.00  0.00    -0.239 NA
ENDROOT
BRANCH   1  16
ATOM     11  C6  UNL     1      15.960  -0.058  24.629  0.00  0.00    +0.080 A 
ATOM     12  C7  UNL     1      14.734  -0.219  25.283  0.00  0.00    +0.076 A 
ATOM     13  S1  UNL     1      14.940   0.205  26.899  0.00  0.00    -0.060 S 
ATOM     14  C8  UNL     1      16.568   0.562  26.705  0.00  0.00    +0.165 A 
ATOM     15  N1  UNL     1      17.416   1.048  27.754  0.00  0.00    -0.259 N 
ATOM     16  C9  UNL     1      18.824   1.286  27.588  0.00  0.00    +0.268 C 
ATOM     17  O1  UNL     1      19.421   0.853  26.563  0.00  0.00    -0.268 OA
ATOM     18  N5  UNL     1      16.971   0.381  25.429  0.00  0.00    -0.225 NA
ATOM     19  H7  UNL     1      16.974   1.233  28.682  0.00  0.00    +0.157 HD
BRANCH  11  24
ATOM     20  C1  UNL     1      16.828  -1.092  18.981  0.00  0.00    +0.044 C 
ATOM     21  C2  UNL     1      16.617  -0.803  20.438  0.00  0.00    -0.050 A 
ATOM     22  C3  UNL     1      15.775   0.244  20.841  0.00  0.00    +0.004 A 
ATOM     23  C4  UNL     1      15.562   0.496  22.199  0.00  0.00    +0.010 A 
ATOM     24  C5  UNL     1      16.173  -0.307  23.180  0.00  0.00    +0.001 A 
ATOM     25  C26 UNL     1      16.991  -1.375  22.768  0.00  0.00    +0.010 A 
ATOM     26  C27 UNL     1      17.211  -1.621  21.410  0.00  0.00    +0.004 A 
ENDBRANCH  11  24
ENDBRANCH   1  16
BRANCH   6  27
ATOM     27  C15 UNL     1      22.789   6.238  32.278  0.00  0.00    +0.001 A 
ATOM     28  C16 UNL     1      22.739   5.870  33.635  0.00  0.00    +0.013 A 
ATOM     29  C17 UNL     1      23.490   6.567  34.594  0.00  0.00    -0.050 A 
ATOM     30  C18 UNL     1      23.456   6.134  36.030  0.00  0.00    +0.044 C 
ATOM     31  C19 UNL     1      24.313   7.627  34.191  0.00  0.00    +0.006 A 
ATOM     32  C20 UNL     1      24.351   8.026  32.847  0.00  0.00    -0.050 A 
ATOM     33  C21 UNL     1      25.251   9.146  32.418  0.00  0.00    +0.044 C 
ATOM     34  C22 UNL     1      23.596   7.325  31.896  0.00  0.00    +0.013 A 
ENDBRANCH   6  27
BRANCH   8  35
ATOM     35  N3  UNL     1      20.113   6.172  28.085  0.00  0.00    -0.356 N 
ATOM     36  H20 UNL     1      20.230   5.818  27.109  0.00  0.00    +0.142 HD
ATOM     37  H21 UNL     1      19.559   7.045  28.225  0.00  0.00    +0.142 HD
ENDBRANCH   8  35
TORSDOF 4
ENDMDL
MODEL 4
REMARK VINA RESULT:    -7.396      4.044      4.737
REMARK INTER + INTRA:          -9.543
REMARK INTER:                  -8.881
REMARK INTRA:                  -0.662
REMARK UNBOUND:                -0.634
REMARK  Name = /home/qwerty/github/datacon2025hack/step_04_hit_selection/docking/ligands/lig_716.pdb
REMARK  7 active torsions:
REMARK  status: ('A' for Active; 'I' for Inactive)
REMARK    1  A    between atoms: C1_1  and  C2_2
REMARK    2  A    between atoms: C5_5  and  C6_6
REMARK    3  A    between atoms: C9_11  and  C10_13
REMARK    4  A    between atoms: C14_18  and  C15_19
REMARK    5  A    between atoms: C17_21  and  C18_22
REMARK    6  A    between atoms: C20_24  and  C21_25
REMARK    7  A    between atoms: C24_28  and  N3_29
REMARK                            x       y       z     vdW  Elec       q    Type
REMARK                         _______ _______ _______ _____ _____    ______ ____
ROOT
ATOM      1  C10 UNL     1      16.888  14.333  29.339  0.00  0.00    +0.127 A 
ATOM      2  C11 UNL     1      17.458  13.694  30.454  0.00  0.00    +0.035 A 
ATOM      3  C12 UNL     1      16.661  13.391  31.560  0.00  0.00    +0.032 A 
ATOM      4  C13 UNL     1      15.308  13.727  31.552  0.00  0.00    +0.092 A 
ATOM      5  N2  UNL     1      14.522  13.453  32.625  0.00  0.00    -0.245 NA
ATOM      6  C14 UNL     1      13.200  13.780  32.659  0.00  0.00    +0.074 A 
ATOM      7  C23 UNL     1      12.618  14.409  31.542  0.00  0.00    +0.053 A 
ATOM      8  C24 UNL     1      13.400  14.703  30.416  0.00  0.00    +0.054 A 
ATOM      9  C25 UNL     1      14.763  14.365  30.421  0.00  0.00    +0.111 A 
ATOM     10  N4  UNL     1      15.563  14.646  29.356  0.00  0.00    -0.239 NA
ENDROOT
BRANCH   1  16
ATOM     11  C6  UNL     1      20.723  14.946  25.060  0.00  0.00    +0.080 A 
ATOM     12  C7  UNL     1      21.931  15.281  25.683  0.00  0.00    +0.076 A 
ATOM     13  S1  UNL     1      21.653  15.403  27.339  0.00  0.00    -0.060 S 
ATOM     14  C8  UNL     1      20.021  15.040  27.197  0.00  0.00    +0.165 A 
ATOM     15  N1  UNL     1      19.120  14.936  28.306  0.00  0.00    -0.259 N 
ATOM     16  C9  UNL     1      17.710  14.690  28.162  0.00  0.00    +0.268 C 
ATOM     17  O1  UNL     1      17.166  14.784  27.027  0.00  0.00    -0.268 OA
ATOM     18  N5  UNL     1      19.670  14.810  25.913  0.00  0.00    -0.225 NA
ATOM     19  H7  UNL     1      19.521  15.048  29.264  0.00  0.00    +0.157 HD
BRANCH  11  24
ATOM     20  C1  UNL     1      20.122  13.997  19.363  0.00  0.00    +0.044 C 
ATOM     21  C2  UNL     1      20.301  14.253  20.831  0.00  0.00    -0.050 A 
ATOM     22  C3  UNL     1      20.290  15.563  21.332  0.00  0.00    +0.004 A 
ATOM     23  C4  UNL     1      20.433  15.796  22.702  0.00  0.00    +0.010 A 
ATOM     24  C5  UNL     1      20.571  14.722  23.600  0.00  0.00    +0.001 A 
ATOM     25  C26 UNL     1      20.549  13.409  23.094  0.00  0.00    +0.010 A 
ATOM     26  C27 UNL     1      20.415  13.177  21.723  0.00  0.00    +0.004 A 
ENDBRANCH  11  24
ENDBRANCH   1  16
BRANCH   6  27
ATOM     27  C15 UNL     1      12.404  13.451  33.868  0.00  0.00    +0.001 A 
ATOM     28  C16 UNL     1      11.258  14.191  34.211  0.00  0.00    +0.013 A 
ATOM     29  C17 UNL     1      10.524  13.879  35.366  0.00  0.00    -0.050 A 
ATOM     30  C18 UNL     1       9.282  14.653  35.695  0.00  0.00    +0.044 C 
ATOM     31  C19 UNL     1      10.926  12.806  36.173  0.00  0.00    +0.006 A 
ATOM     32  C20 UNL     1      12.083  12.077  35.860  0.00  0.00    -0.050 A 
ATOM     33  C21 UNL     1      12.495  10.915  36.714  0.00  0.00    +0.044 C 
ATOM     34  C22 UNL     1      12.811  12.397  34.705  0.00  0.00    +0.013 A 
ENDBRANCH   6  27
BRANCH   8  35
ATOM     35  N3  UNL     1      12.800  15.335  29.280  0.00  0.00    -0.356 N 
ATOM     36  H20 UNL     1      12.573  14.797  28.414  0.00  0.00    +0.142 HD
ATOM     37  H21 UNL     1      12.566  16.352  29.299  0.00  0.00    +0.142 HD
ENDBRANCH   8  35
TORSDOF 4
ENDMDL
MODEL 5
REMARK VINA RESULT:    -7.335     10.515     14.680
REMARK INTER + INTRA:          -9.470
REMARK INTER:                  -8.805
REMARK INTRA:                  -0.665
REMARK UNBOUND:                -0.634
REMARK  Name = /home/qwerty/github/datacon2025hack/step_04_hit_selection/docking/ligands/lig_716.pdb
REMARK  7 active torsions:
REMARK  status: ('A' for Active; 'I' for Inactive)
REMARK    1  A    between atoms: C1_1  and  C2_2
REMARK    2  A    between atoms: C5_5  and  C6_6
REMARK    3  A    between atoms: C9_11  and  C10_13
REMARK    4  A    between atoms: C14_18  and  C15_19
REMARK    5  A    between atoms: C17_21  and  C18_22
REMARK    6  A    between atoms: C20_24  and  C21_25
REMARK    7  A    between atoms: C24_28  and  N3_29
REMARK                            x       y       z     vdW  Elec       q    Type
REMARK                         _______ _______ _______ _____ _____    ______ ____
ROOT
ATOM      1  C10 UNL     1      21.483   3.734  27.900  0.00  0.00    +0.127 A 
ATOM      2  C11 UNL     1      22.358   2.976  27.101  0.00  0.00    +0.035 A 
ATOM      3  C12 UNL     1      22.560   3.333  25.766  0.00  0.00    +0.032 A 
ATOM      4  C13 UNL     1      21.892   4.436  25.235  0.00  0.00    +0.092 A 
ATOM      5  N2  UNL     1      22.068   4.788  23.935  0.00  0.00    -0.245 NA
ATOM      6  C14 UNL     1      21.421   5.849  23.377  0.00  0.00    +0.074 A 
ATOM      7  C23 UNL     1      20.553   6.621  24.172  0.00  0.00    +0.053 A 
ATOM      8  C24 UNL     1      20.352   6.288  25.519  0.00  0.00    +0.054 A 
ATOM      9  C25 UNL     1      21.025   5.178  26.057  0.00  0.00    +0.111 A 
ATOM     10  N4  UNL     1      20.847   4.809  27.356  0.00  0.00    -0.239 NA
ENDROOT
BRANCH   1  16
ATOM     11  C6  UNL     1      20.000   3.232  33.462  0.00  0.00    +0.080 A 
ATOM     12  C7  UNL     1      20.650   4.281  34.120  0.00  0.00    +0.076 A 
ATOM     13  S1  UNL     1      21.581   5.114  32.991  0.00  0.00    -0.060 S 
ATOM     14  C8  UNL     1      21.132   4.109  31.726  0.00  0.00    +0.165 A 
ATOM     15  N1  UNL     1      21.569   4.278  30.370  0.00  0.00    -0.259 N 
ATOM     16  C9  UNL     1      21.228   3.368  29.310  0.00  0.00    +0.268 C 
ATOM     17  O1  UNL     1      20.714   2.248  29.580  0.00  0.00    -0.268 OA
ATOM     18  N5  UNL     1      20.272   3.149  32.130  0.00  0.00    -0.225 NA
ATOM     19  H7  UNL     1      22.165   5.108  30.157  0.00  0.00    +0.157 HD
BRANCH  11  24
ATOM     20  C1  UNL     1      16.337  -0.508  35.975  0.00  0.00    +0.044 C 
ATOM     21  C2  UNL     1      17.266   0.477  35.328  0.00  0.00    -0.050 A 
ATOM     22  C3  UNL     1      17.821   1.528  36.073  0.00  0.00    +0.004 A 
ATOM     23  C4  UNL     1      18.704   2.429  35.473  0.00  0.00    +0.010 A 
ATOM     24  C5  UNL     1      19.063   2.286  34.120  0.00  0.00    +0.001 A 
ATOM     25  C26 UNL     1      18.528   1.211  33.388  0.00  0.00    +0.010 A 
ATOM     26  C27 UNL     1      17.637   0.315  33.986  0.00  0.00    +0.004 A 
ENDBRANCH  11  24
ENDBRANCH   1  16
BRANCH   6  27
ATOM     27  C15 UNL     1      21.660   6.172  21.948  0.00  0.00    +0.001 A 
ATOM     28  C16 UNL     1      20.601   6.216  21.022  0.00  0.00    +0.013 A 
ATOM     29  C17 UNL     1      20.843   6.507  19.671  0.00  0.00    -0.050 A 
ATOM     30  C18 UNL     1      19.697   6.589  18.706  0.00  0.00    +0.044 C 
ATOM     31  C19 UNL     1      22.150   6.776  19.245  0.00  0.00    +0.006 A 
ATOM     32  C20 UNL     1      23.220   6.708  20.149  0.00  0.00    -0.050 A 
ATOM     33  C21 UNL     1      24.614   7.022  19.692  0.00  0.00    +0.044 C 
ATOM     34  C22 UNL     1      22.969   6.415  21.497  0.00  0.00    +0.013 A 
ENDBRANCH   6  27
BRANCH   8  35
ATOM     35  N3  UNL     1      19.476   7.083  26.324  0.00  0.00    -0.356 N 
ATOM     36  H20 UNL     1      18.702   6.652  26.878  0.00  0.00    +0.142 HD
ATOM     37  H21 UNL     1      19.599   8.118  26.381  0.00  0.00    +0.142 HD
ENDBRANCH   8  35
TORSDOF 4
ENDMDL
MODEL 6
REMARK VINA RESULT:    -7.334     11.483     15.600
REMARK INTER + INTRA:          -9.468
REMARK INTER:                  -8.804
REMARK INTRA:                  -0.664
REMARK UNBOUND:                -0.634
REMARK  Name = /home/qwerty/github/datacon2025hack/step_04_hit_selection/docking/ligands/lig_716.pdb
REMARK  7 active torsions:
REMARK  status: ('A' for Active; 'I' for Inactive)
REMARK    1  A    between atoms: C1_1  and  C2_2
REMARK    2  A    between atoms: C5_5  and  C6_6
REMARK    3  A    between atoms: C9_11  and  C10_13
REMARK    4  A    between atoms: C14_18  and  C15_19
REMARK    5  A    between atoms: C17_21  and  C18_22
REMARK    6  A    between atoms: C20_24  and  C21_25
REMARK    7  A    between atoms: C24_28  and  N3_29
REMARK                            x       y       z     vdW  Elec       q    Type
REMARK                         _______ _______ _______ _____ _____    ______ ____
ROOT
ATOM      1  C10 UNL     1       7.843   4.467  28.100  0.00  0.00    +0.127 A 
ATOM      2  C11 UNL     1       8.442   3.878  26.971  0.00  0.00    +0.035 A 
ATOM      3  C12 UNL     1       8.688   4.652  25.836  0.00  0.00    +0.032 A 
ATOM      4  C13 UNL     1       8.336   6.001  25.827  0.00  0.00    +0.092 A 
ATOM      5  N2  UNL     1       8.555   6.765  24.726  0.00  0.00    -0.245 NA
ATOM      6  C14 UNL     1       8.211   8.082  24.675  0.00  0.00    +0.074 A 
ATOM      7  C23 UNL     1       7.622   8.683  25.804  0.00  0.00    +0.053 A 
ATOM      8  C24 UNL     1       7.385   7.924  26.959  0.00  0.00    +0.054 A 
ATOM      9  C25 UNL     1       7.740   6.565  26.971  0.00  0.00    +0.111 A 
ATOM     10  N4  UNL     1       7.513   5.788  28.065  0.00  0.00    -0.239 NA
ENDROOT
BRANCH   1  16
ATOM     11  C6  UNL     1       7.545   0.810  32.564  0.00  0.00    +0.080 A 
ATOM     12  C7  UNL     1       7.382  -0.460  31.999  0.00  0.00    +0.076 A 
ATOM     13  S1  UNL     1       7.287  -0.284  30.327  0.00  0.00    -0.060 S 
ATOM     14  C8  UNL     1       7.444   1.385  30.390  0.00  0.00    +0.165 A 
ATOM     15  N1  UNL     1       7.478   2.234  29.236  0.00  0.00    -0.259 N 
ATOM     16  C9  UNL     1       7.546   3.669  29.309  0.00  0.00    +0.268 C 
ATOM     17  O1  UNL     1       7.346   4.255  30.409  0.00  0.00    -0.268 OA
ATOM     18  N5  UNL     1       7.583   1.827  31.659  0.00  0.00    -0.225 NA
ATOM     19  H7  UNL     1       7.450   1.773  28.299  0.00  0.00    +0.157 HD
BRANCH  11  24
ATOM     20  C1  UNL     1       8.206   1.818  38.245  0.00  0.00    +0.044 C 
ATOM     21  C2  UNL     1       8.028   1.533  36.782  0.00  0.00    -0.050 A 
ATOM     22  C3  UNL     1       6.749   1.317  36.249  0.00  0.00    +0.004 A 
ATOM     23  C4  UNL     1       6.585   1.076  34.883  0.00  0.00    +0.010 A 
ATOM     24  C5  UNL     1       7.696   1.064  34.019  0.00  0.00    +0.001 A 
ATOM     25  C26 UNL     1       8.972   1.313  34.556  0.00  0.00    +0.010 A 
ATOM     26  C27 UNL     1       9.137   1.546  35.924  0.00  0.00    +0.004 A 
ENDBRANCH  11  24
ENDBRANCH   1  16
BRANCH   6  27
ATOM     27  C15 UNL     1       8.479   8.853  23.435  0.00  0.00    +0.001 A 
ATOM     28  C16 UNL     1       9.454   8.433  22.512  0.00  0.00    +0.013 A 
ATOM     29  C17 UNL     1       9.708   9.180  21.351  0.00  0.00    -0.050 A 
ATOM     30  C18 UNL     1      10.723   8.696  20.358  0.00  0.00    +0.044 C 
ATOM     31  C19 UNL     1       8.969  10.344  21.101  0.00  0.00    +0.006 A 
ATOM     32  C20 UNL     1       8.015  10.791  22.026  0.00  0.00    -0.050 A 
ATOM     33  C21 UNL     1       7.210  12.025  21.742  0.00  0.00    +0.044 C 
ATOM     34  C22 UNL     1       7.768  10.040  23.184  0.00  0.00    +0.013 A 
ENDBRANCH   6  27
BRANCH   8  35
ATOM     35  N3  UNL     1       6.794   8.544  28.106  0.00  0.00    -0.356 N 
ATOM     36  H20 UNL     1       6.383   7.978  28.882  0.00  0.00    +0.142 HD
ATOM     37  H21 UNL     1       6.771   9.584  28.196  0.00  0.00    +0.142 HD
ENDBRANCH   8  35
TORSDOF 4
ENDMDL
MODEL 7
REMARK VINA RESULT:    -7.320     11.593     14.895
REMARK INTER + INTRA:          -9.451
REMARK INTER:                  -8.797
REMARK INTRA:                  -0.654
REMARK UNBOUND:                -0.634
REMARK  Name = /home/qwerty/github/datacon2025hack/step_04_hit_selection/docking/ligands/lig_716.pdb
REMARK  7 active torsions:
REMARK  status: ('A' for Active; 'I' for Inactive)
REMARK    1  A    between atoms: C1_1  and  C2_2
REMARK    2  A    between atoms: C5_5  and  C6_6
REMARK    3  A    between atoms: C9_11  and  C10_13
REMARK    4  A    between atoms: C14_18  and  C15_19
REMARK    5  A    between atoms: C17_21  and  C18_22
REMARK    6  A    between atoms: C20_24  and  C21_25
REMARK    7  A    between atoms: C24_28  and  N3_29
REMARK                            x       y       z     vdW  Elec       q    Type
REMARK                         _______ _______ _______ _____ _____    ______ ____
ROOT
ATOM      1  C10 UNL     1      19.505   3.283  27.508  0.00  0.00    +0.127 A 
ATOM      2  C11 UNL     1      19.981   4.549  27.122  0.00  0.00    +0.035 A 
ATOM      3  C12 UNL     1      20.719   5.316  28.025  0.00  0.00    +0.032 A 
ATOM      4  C13 UNL     1      20.975   4.824  29.305  0.00  0.00    +0.092 A 
ATOM      5  N2  UNL     1      21.679   5.563  30.200  0.00  0.00    -0.245 NA
ATOM      6  C14 UNL     1      21.936   5.121  31.464  0.00  0.00    +0.074 A 
ATOM      7  C23 UNL     1      21.474   3.851  31.855  0.00  0.00    +0.053 A 
ATOM      8  C24 UNL     1      20.748   3.060  30.954  0.00  0.00    +0.054 A 
ATOM      9  C25 UNL     1      20.489   3.553  29.664  0.00  0.00    +0.111 A 
ATOM     10  N4  UNL     1      19.774   2.825  28.763  0.00  0.00    -0.239 NA
ENDROOT
BRANCH   1  16
ATOM     11  C6  UNL     1      15.891   0.956  23.646  0.00  0.00    +0.080 A 
ATOM     12  C7  UNL     1      14.606   1.191  24.145  0.00  0.00    +0.076 A 
ATOM     13  S1  UNL     1      14.752   1.964  25.634  0.00  0.00    -0.060 S 
ATOM     14  C8  UNL     1      16.429   1.958  25.589  0.00  0.00    +0.165 A 
ATOM     15  N1  UNL     1      17.264   2.529  26.605  0.00  0.00    -0.259 N 
ATOM     16  C9  UNL     1      18.700   2.456  26.583  0.00  0.00    +0.268 C 
ATOM     17  O1  UNL     1      19.281   1.678  25.777  0.00  0.00    -0.268 OA
ATOM     18  N5  UNL     1      16.896   1.391  24.455  0.00  0.00    -0.225 NA
ATOM     19  H7  UNL     1      16.791   3.019  27.396  0.00  0.00    +0.157 HD
BRANCH  11  24
ATOM     20  C1  UNL     1      16.984  -1.485  18.491  0.00  0.00    +0.044 C 
ATOM     21  C2  UNL     1      16.683  -0.871  19.827  0.00  0.00    -0.050 A 
ATOM     22  C3  UNL     1      16.962  -1.570  21.011  0.00  0.00    +0.004 A 
ATOM     23  C4  UNL     1      16.702  -0.987  22.253  0.00  0.00    +0.010 A 
ATOM     24  C5  UNL     1      16.175   0.316  22.336  0.00  0.00    +0.001 A 
ATOM     25  C26 UNL     1      15.928   1.023  21.146  0.00  0.00    +0.010 A 
ATOM     26  C27 UNL     1      16.180   0.436  19.903  0.00  0.00    +0.004 A 
ENDBRANCH  11  24
ENDBRANCH   1  16
BRANCH   6  27
ATOM     27  C15 UNL     1      22.709   5.987  32.389  0.00  0.00    +0.001 A 
ATOM     28  C16 UNL     1      23.489   7.055  31.909  0.00  0.00    +0.013 A 
ATOM     29  C17 UNL     1      24.228   7.855  32.793  0.00  0.00    -0.050 A 
ATOM     30  C18 UNL     1      25.022   9.015  32.268  0.00  0.00    +0.044 C 
ATOM     31  C19 UNL     1      24.171   7.600  34.170  0.00  0.00    +0.006 A 
ATOM     32  C20 UNL     1      23.422   6.521  34.661  0.00  0.00    -0.050 A 
ATOM     33  C21 UNL     1      23.346   6.267  36.138  0.00  0.00    +0.044 C 
ATOM     34  C22 UNL     1      22.688   5.725  33.770  0.00  0.00    +0.013 A 
ENDBRANCH   6  27
BRANCH   8  35
ATOM     35  N3  UNL     1      20.289   1.765  31.356  0.00  0.00    -0.356 N 
ATOM     36  H20 UNL     1      20.330   1.456  32.353  0.00  0.00    +0.142 HD
ATOM     37  H21 UNL     1      19.893   1.100  30.655  0.00  0.00    +0.142 HD
ENDBRANCH   8  35
TORSDOF 4
ENDMDL
MODEL 8
REMARK VINA RESULT:    -7.286      6.594      9.283
REMARK INTER + INTRA:          -9.411
REMARK INTER:                  -8.730
REMARK INTRA:                  -0.681
REMARK UNBOUND:                -0.634
REMARK  Name = /home/qwerty/github/datacon2025hack/step_04_hit_selection/docking/ligands/lig_716.pdb
REMARK  7 active torsions:
REMARK  status: ('A' for Active; 'I' for Inactive)
REMARK    1  A    between atoms: C1_1  and  C2_2
REMARK    2  A    between atoms: C5_5  and  C6_6
REMARK    3  A    between atoms: C9_11  and  C10_13
REMARK    4  A    between atoms: C14_18  and  C15_19
REMARK    5  A    between atoms: C17_21  and  C18_22
REMARK    6  A    between atoms: C20_24  and  C21_25
REMARK    7  A    between atoms: C24_28  and  N3_29
REMARK                            x       y       z     vdW  Elec       q    Type
REMARK                         _______ _______ _______ _____ _____    ______ ____
ROOT
ATOM      1  C10 UNL     1      20.203  12.517  29.580  0.00  0.00    +0.127 A 
ATOM      2  C11 UNL     1      19.248  12.835  30.563  0.00  0.00    +0.035 A 
ATOM      3  C12 UNL     1      19.283  12.183  31.797  0.00  0.00    +0.032 A 
ATOM      4  C13 UNL     1      20.261  11.221  32.045  0.00  0.00    +0.092 A 
ATOM      5  N2  UNL     1      20.300  10.568  33.236  0.00  0.00    -0.245 NA
ATOM      6  C14 UNL     1      21.231   9.611  33.509  0.00  0.00    +0.074 A 
ATOM      7  C23 UNL     1      22.198   9.296  32.536  0.00  0.00    +0.053 A 
ATOM      8  C24 UNL     1      22.189   9.954  31.298  0.00  0.00    +0.054 A 
ATOM      9  C25 UNL     1      21.206  10.924  31.045  0.00  0.00    +0.111 A 
ATOM     10  N4  UNL     1      21.151  11.576  29.852  0.00  0.00    -0.239 NA
ENDROOT
BRANCH   1  16
ATOM     11  C6  UNL     1      21.143  14.899  24.400  0.00  0.00    +0.080 A 
ATOM     12  C7  UNL     1      21.995  15.983  24.634  0.00  0.00    +0.076 A 
ATOM     13  S1  UNL     1      22.263  16.093  26.293  0.00  0.00    -0.060 S 
ATOM     14  C8  UNL     1      21.285  14.776  26.643  0.00  0.00    +0.165 A 
ATOM     15  N1  UNL     1      21.073  14.260  27.963  0.00  0.00    -0.259 N 
ATOM     16  C9  UNL     1      20.179  13.171  28.254  0.00  0.00    +0.268 C 
ATOM     17  O1  UNL     1      19.363  12.774  27.377  0.00  0.00    -0.268 OA
ATOM     18  N5  UNL     1      20.759  14.233  25.524  0.00  0.00    -0.225 NA
ATOM     19  H7  UNL     1      21.602  14.707  28.745  0.00  0.00    +0.157 HD
BRANCH  11  24
ATOM     20  C1  UNL     1      19.387  13.128  19.156  0.00  0.00    +0.044 C 
ATOM     21  C2  UNL     1      19.864  13.591  20.501  0.00  0.00    -0.050 A 
ATOM     22  C3  UNL     1      20.139  14.947  20.731  0.00  0.00    +0.004 A 
ATOM     23  C4  UNL     1      20.560  15.378  21.992  0.00  0.00    +0.010 A 
ATOM     24  C5  UNL     1      20.697  14.463  23.052  0.00  0.00    +0.001 A 
ATOM     25  C26 UNL     1      20.389  13.110  22.823  0.00  0.00    +0.010 A 
ATOM     26  C27 UNL     1      19.976  12.678  21.559  0.00  0.00    +0.004 A 
ENDBRANCH  11  24
ENDBRANCH   1  16
BRANCH   6  27
ATOM     27  C15 UNL     1      21.210   8.937  34.831  0.00  0.00    +0.001 A 
ATOM     28  C16 UNL     1      22.264   8.101  35.242  0.00  0.00    +0.013 A 
ATOM     29  C17 UNL     1      22.223   7.458  36.488  0.00  0.00    -0.050 A 
ATOM     30  C18 UNL     1      23.375   6.602  36.926  0.00  0.00    +0.044 C 
ATOM     31  C19 UNL     1      21.130   7.667  37.340  0.00  0.00    +0.006 A 
ATOM     32  C20 UNL     1      20.058   8.475  36.933  0.00  0.00    -0.050 A 
ATOM     33  C21 UNL     1      18.902   8.715  37.859  0.00  0.00    +0.044 C 
ATOM     34  C22 UNL     1      20.106   9.112  35.685  0.00  0.00    +0.013 A 
ENDBRANCH   6  27
BRANCH   8  35
ATOM     35  N3  UNL     1      23.182   9.635  30.317  0.00  0.00    -0.356 N 
ATOM     36  H20 UNL     1      23.562  10.360  29.670  0.00  0.00    +0.142 HD
ATOM     37  H21 UNL     1      23.555   8.663  30.235  0.00  0.00    +0.142 HD
ENDBRANCH   8  35
TORSDOF 4
ENDMDL
MODEL 9
REMARK VINA RESULT:    -6.424     11.092     12.112
REMARK INTER + INTRA:          -8.372
REMARK INTER:                  -7.724
REMARK INTRA:                  -0.648
REMARK UNBOUND:                -0.634
REMARK  Name = /home/qwerty/github/datacon2025hack/step_04_hit_selection/docking/ligands/lig_716.pdb
REMARK  7 active torsions:
REMARK  status: ('A' for Active; 'I' for Inactive)
REMARK    1  A    between atoms: C1_1  and  C2_2
REMARK    2  A    between atoms: C5_5  and  C6_6
REMARK    3  A    between atoms: C9_11  and  C10_13
REMARK    4  A    between atoms: C14_18  and  C15_19
REMARK    5  A    between atoms: C17_21  and  C18_22
REMARK    6  A    between atoms: C20_24  and  C21_25
REMARK    7  A    between atoms: C24_28  and  N3_29
REMARK                            x       y       z     vdW  Elec       q    Type
REMARK                         _______ _______ _______ _____ _____    ______ ____
ROOT
ATOM      1  C10 UNL     1      18.475   5.782  21.319  0.00  0.00    +0.127 A 
ATOM      2  C11 UNL     1      19.118   5.527  22.544  0.00  0.00    +0.035 A 
ATOM      3  C12 UNL     1      18.869   4.330  23.219  0.00  0.00    +0.032 A 
ATOM      4  C13 UNL     1      17.983   3.400  22.677  0.00  0.00    +0.092 A 
ATOM      5  N2  UNL     1      17.719   2.238  23.328  0.00  0.00    -0.245 NA
ATOM      6  C14 UNL     1      16.848   1.312  22.837  0.00  0.00    +0.074 A 
ATOM      7  C23 UNL     1      16.210   1.554  21.606  0.00  0.00    +0.053 A 
ATOM      8  C24 UNL     1      16.462   2.742  20.906  0.00  0.00    +0.054 A 
ATOM      9  C25 UNL     1      17.355   3.681  21.449  0.00  0.00    +0.111 A 
ATOM     10  N4  UNL     1      17.618   4.854  20.810  0.00  0.00    -0.239 NA
ENDROOT
BRANCH   1  16
ATOM     11  C6  UNL     1      18.864  11.179  19.291  0.00  0.00    +0.080 A 
ATOM     12  C7  UNL     1      17.545  11.613  19.122  0.00  0.00    +0.076 A 
ATOM     13  S1  UNL     1      16.517  10.341  19.523  0.00  0.00    -0.060 S 
ATOM     14  C8  UNL     1      17.780   9.297  19.882  0.00  0.00    +0.165 A 
ATOM     15  N1  UNL     1      17.606   7.954  20.352  0.00  0.00    -0.259 N 
ATOM     16  C9  UNL     1      18.698   7.050  20.591  0.00  0.00    +0.268 C 
ATOM     17  O1  UNL     1      19.855   7.333  20.172  0.00  0.00    -0.268 OA
ATOM     18  N5  UNL     1      18.982   9.892  19.718  0.00  0.00    -0.225 NA
ATOM     19  H7  UNL     1      16.629   7.629  20.525  0.00  0.00    +0.157 HD
BRANCH  11  24
ATOM     20  C1  UNL     1      23.497  14.567  18.409  0.00  0.00    +0.044 C 
ATOM     21  C2  UNL     1      22.302  13.683  18.613  0.00  0.00    -0.050 A 
ATOM     22  C3  UNL     1      22.450  12.289  18.673  0.00  0.00    +0.004 A 
ATOM     23  C4  UNL     1      21.339  11.470  18.887  0.00  0.00    +0.010 A 
ATOM     24  C5  UNL     1      20.059  12.031  19.062  0.00  0.00    +0.001 A 
ATOM     25  C26 UNL     1      19.924  13.430  19.032  0.00  0.00    +0.010 A 
ATOM     26  C27 UNL     1      21.035  14.249  18.810  0.00  0.00    +0.004 A 
ENDBRANCH  11  24
ENDBRANCH   1  16
BRANCH   6  27
ATOM     27  C15 UNL     1      16.607   0.066  23.606  0.00  0.00    +0.001 A 
ATOM     28  C16 UNL     1      17.626  -0.887  23.790  0.00  0.00    +0.013 A 
ATOM     29  C17 UNL     1      17.380  -2.068  24.506  0.00  0.00    -0.050 A 
ATOM     30  C18 UNL     1      18.488  -3.054  24.726  0.00  0.00    +0.044 C 
ATOM     31  C19 UNL     1      16.112  -2.290  25.061  0.00  0.00    +0.006 A 
ATOM     32  C20 UNL     1      15.078  -1.364  24.862  0.00  0.00    -0.050 A 
ATOM     33  C21 UNL     1      13.730  -1.595  25.479  0.00  0.00    +0.044 C 
ATOM     34  C22 UNL     1      15.332  -0.187  24.144  0.00  0.00    +0.013 A 
ENDBRANCH   6  27
BRANCH   8  35
ATOM     35  N3  UNL     1      15.817   2.977  19.650  0.00  0.00    -0.356 N 
ATOM     36  H20 UNL     1      15.582   3.942  19.329  0.00  0.00    +0.142 HD
ATOM     37  H21 UNL     1      15.573   2.180  19.020  0.00  0.00    +0.142 HD
ENDBRANCH   8  35
TORSDOF 4
ENDMDL
