REMARK  Name = /home/qwerty/github/datacon2025hack/step_04_hit_selection/docking/ligands/lig_181.pdb
REMARK  5 active torsions:
REMARK  status: ('A' for Active; 'I' for Inactive)
REMARK    1  A    between atoms: C1_1  and  C2_2
REMARK    2  A    between atoms: C6_9  and  C7_10
REMARK    3  A    between atoms: N5_16  and  C11_17
REMARK    4  A    between atoms: C11_17  and  C12_18
REMARK    5  A    between atoms: C18_25  and  C19_26
REMARK                            x       y       z     vdW  Elec       q    Type
REMARK                         _______ _______ _______ _____ _____    ______ ____
ROOT
ATOM      1  C1  UNL     1      -4.276  -2.771   0.597  0.00  0.00    +0.008 C 
ATOM      2  C2  UNL     1      -3.527  -2.093  -0.568  0.00  0.00    -0.008 C 
ATOM      3  C3  UNL     1      -2.012  -2.378  -0.498  0.00  0.00    +0.022 C 
ATOM      4  C4  UNL     1      -1.331  -1.601   0.634  0.00  0.00    +0.108 C 
ATOM      5  N1  UNL     1      -1.666  -0.177   0.549  0.00  0.00    -0.299 N 
ATOM      6  C5  UNL     1      -0.716   0.792   1.010  0.00  0.00    +0.220 A 
ATOM      7  N2  UNL     1      -0.861   1.477   2.158  0.00  0.00    -0.113 NA
ATOM      8  N3  UNL     1       0.158   2.319   2.227  0.00  0.00    -0.126 NA
ATOM      9  C6  UNL     1       0.897   2.151   1.112  0.00  0.00    +0.182 A 
ATOM     10  N5  UNL     1       0.378   1.180   0.320  0.00  0.00    -0.292 N 
ATOM     11  C17 UNL     1      -3.079   0.205   0.475  0.00  0.00    +0.111 C 
ATOM     12  C18 UNL     1      -3.774  -0.561  -0.666  0.00  0.00    +0.006 C 
ATOM     13  C19 UNL     1      -5.264  -0.200  -0.741  0.00  0.00    +0.009 C 
ENDROOT
BRANCH   9  14
ATOM     14  C7  UNL     1       2.109   2.951   0.850  0.00  0.00    +0.085 A 
ATOM     15  C8  UNL     1       2.541   3.431  -0.376  0.00  0.00    +0.046 A 
ATOM     16  C9  UNL     1       3.682   4.160  -0.114  0.00  0.00    +0.036 A 
ATOM     17 BR1  UNL     1       4.752   5.082  -1.396  0.00  0.00    -0.049 Br
ATOM     18  C10 UNL     1       3.893   4.115   1.246  0.00  0.00    +0.098 A 
ATOM     19  N4  UNL     1       2.925   3.386   1.830  0.00  0.00    -0.357 N 
ATOM     20  H11 UNL     1       2.832   3.194   2.852  0.00  0.00    +0.165 HD
ENDBRANCH   9  14
BRANCH  10  21
ATOM     21  C11 UNL     1       0.853   0.650  -0.965  0.00  0.00    +0.158 C 
BRANCH  21  22
ATOM     22  C12 UNL     1       2.228  -0.024  -0.824  0.00  0.00    +0.142 C 
ATOM     23  C13 UNL     1       2.669  -0.634  -2.169  0.00  0.00    +0.060 C 
ATOM     24  C14 UNL     1       3.865  -1.526  -1.980  0.00  0.00    -0.026 C 
ATOM     25  C15 UNL     1       4.193  -1.993  -0.768  0.00  0.00    -0.003 C 
ATOM     26  C16 UNL     1       3.465  -1.511   0.463  0.00  0.00    +0.187 C 
ATOM     27  O1  UNL     1       2.162  -1.042   0.160  0.00  0.00    -0.371 OA
ENDBRANCH  21  22
ENDBRANCH  10  21
TORSDOF 3
