MODEL 1
REMARK VINA RESULT:    -6.629      0.000      0.000
REMARK INTER + INTRA:          -9.864
REMARK INTER:                  -8.760
REMARK INTRA:                  -1.104
REMARK UNBOUND:                -1.104
REMARK  Name = /home/qwerty/github/datacon2025hack/step_04_hit_selection/docking/ligands/lig_107.pdb
REMARK  6 active torsions:
REMARK  status: ('A' for Active; 'I' for Inactive)
REMARK    1  A    between atoms: C2_2  and  C3_3
REMARK    2  A    between atoms: C3_3  and  O1_4
REMARK    3  A    between atoms: C3_3  and  C4_5
REMARK    4  A    between atoms: C8_12  and  N4_13
REMARK    5  A    between atoms: N5_20  and  C15_21
REMARK    6  A    between atoms: C15_21  and  C16_22
REMARK                            x       y       z     vdW  Elec       q    Type
REMARK                         _______ _______ _______ _____ _____    ______ ____
ROOT
ATOM      1  C4  UNL     1       8.280   7.000  22.012  0.00  0.00    +0.168 A 
ATOM      2  N1  UNL     1       8.406   5.993  22.896  0.00  0.00    -0.130 NA
ATOM      3  N2  UNL     1       8.549   6.541  24.091  0.00  0.00    -0.113 NA
ATOM      4  C5  UNL     1       8.491   7.877  23.928  0.00  0.00    +0.220 A 
ATOM      5  N3  UNL     1       8.663   8.786  25.036  0.00  0.00    -0.298 N 
ATOM      6  C6  UNL     1       8.107  10.129  25.129  0.00  0.00    +0.109 C 
ATOM      7  C7  UNL     1       8.149  10.510  26.603  0.00  0.00    +0.039 C 
ATOM      8  C8  UNL     1       9.128   9.520  27.253  0.00  0.00    +0.075 C 
ATOM      9  C14 UNL     1       9.226   8.328  26.297  0.00  0.00    +0.126 C 
ATOM     10  N5  UNL     1       8.309   8.210  22.623  0.00  0.00    -0.292 N 
ENDROOT
BRANCH   8  11
ATOM     11  N4  UNL     1       8.773   9.117  28.639  0.00  0.00    -0.298 NA
ATOM     12  C9  UNL     1       9.116   7.716  29.019  0.00  0.00    +0.085 C 
ATOM     13  C10 UNL     1       7.889   6.860  29.372  0.00  0.00    +0.015 C 
ATOM     14  C11 UNL     1       7.047   7.510  30.481  0.00  0.00    +0.002 C 
ATOM     15  C12 UNL     1       7.017   9.048  30.386  0.00  0.00    +0.015 C 
ATOM     16  C13 UNL     1       7.398   9.538  28.987  0.00  0.00    +0.085 C 
ENDBRANCH   8  11
BRANCH   1  17
ATOM     17  C3  UNL     1       8.073   6.776  20.536  0.00  0.00    +0.205 C 
BRANCH  17  19
ATOM     18  C1  UNL     1       5.669   6.143  20.356  0.00  0.00    +0.007 C 
ATOM     19  C2  UNL     1       6.958   5.786  20.311  0.00  0.00    +0.004 C 
ENDBRANCH  17  19
BRANCH  17  20
ATOM     20  O1  UNL     1       9.262   6.310  19.953  0.00  0.00    -0.380 OA
ATOM     21  H5  UNL     1       9.318   6.714  19.048  0.00  0.00    +0.211 HD
ENDBRANCH  17  20
ENDBRANCH   1  17
BRANCH  10  22
ATOM     22  C15 UNL     1       8.305   9.517  21.952  0.00  0.00    +0.161 C 
BRANCH  22  23
ATOM     23  C16 UNL     1       9.685   9.882  21.462  0.00  0.00    -0.028 A 
ATOM     24  C17 UNL     1       9.984   9.877  20.088  0.00  0.00    +0.005 A 
ATOM     25  C18 UNL     1      11.270  10.200  19.644  0.00  0.00    +0.000 A 
ATOM     26  C19 UNL     1      12.270  10.522  20.566  0.00  0.00    +0.000 A 
ATOM     27  C20 UNL     1      11.984  10.524  21.933  0.00  0.00    +0.000 A 
ATOM     28  C21 UNL     1      10.700  10.204  22.382  0.00  0.00    +0.005 A 
ENDBRANCH  22  23
ENDBRANCH  10  22
TORSDOF 6
ENDMDL
MODEL 2
REMARK VINA RESULT:    -6.461      8.829     13.612
REMARK INTER + INTRA:          -9.643
REMARK INTER:                  -8.553
REMARK INTRA:                  -1.090
REMARK UNBOUND:                -1.104
REMARK  Name = /home/qwerty/github/datacon2025hack/step_04_hit_selection/docking/ligands/lig_107.pdb
REMARK  6 active torsions:
REMARK  status: ('A' for Active; 'I' for Inactive)
REMARK    1  A    between atoms: C2_2  and  C3_3
REMARK    2  A    between atoms: C3_3  and  O1_4
REMARK    3  A    between atoms: C3_3  and  C4_5
REMARK    4  A    between atoms: C8_12  and  N4_13
REMARK    5  A    between atoms: N5_20  and  C15_21
REMARK    6  A    between atoms: C15_21  and  C16_22
REMARK                            x       y       z     vdW  Elec       q    Type
REMARK                         _______ _______ _______ _____ _____    ______ ____
ROOT
ATOM      1  C4  UNL     1      14.140  14.020  35.306  0.00  0.00    +0.168 A 
ATOM      2  N1  UNL     1      15.192  13.969  34.468  0.00  0.00    -0.130 NA
ATOM      3  N2  UNL     1      14.712  13.741  33.257  0.00  0.00    -0.113 NA
ATOM      4  C5  UNL     1      13.371  13.672  33.364  0.00  0.00    +0.220 A 
ATOM      5  N3  UNL     1      12.531  13.382  32.226  0.00  0.00    -0.298 N 
ATOM      6  C6  UNL     1      11.146  13.801  32.062  0.00  0.00    +0.109 C 
ATOM      7  C7  UNL     1      10.835  13.682  30.576  0.00  0.00    +0.039 C 
ATOM      8  C8  UNL     1      11.943  12.787  29.997  0.00  0.00    +0.075 C 
ATOM      9  C14 UNL     1      13.096  12.832  31.003  0.00  0.00    +0.126 C 
ATOM     10  N5  UNL     1      12.966  13.855  34.648  0.00  0.00    -0.292 N 
ENDROOT
BRANCH   8  11
ATOM     11  N4  UNL     1      12.369  13.143  28.618  0.00  0.00    -0.298 NA
ATOM     12  C9  UNL     1      13.787  12.835  28.274  0.00  0.00    +0.085 C 
ATOM     13  C10 UNL     1      14.618  14.083  27.931  0.00  0.00    +0.015 C 
ATOM     14  C11 UNL     1      13.971  14.897  26.799  0.00  0.00    +0.002 C 
ATOM     15  C12 UNL     1      12.432  14.886  26.858  0.00  0.00    +0.015 C 
ATOM     16  C13 UNL     1      11.919  14.503  28.248  0.00  0.00    +0.085 C 
ENDBRANCH   8  11
BRANCH   1  17
ATOM     17  C3  UNL     1      14.278  14.288  36.783  0.00  0.00    +0.205 C 
BRANCH  17  19
ATOM     18  C1  UNL     1      14.992  16.672  36.917  0.00  0.00    +0.007 C 
ATOM     19  C2  UNL     1      15.298  15.374  37.021  0.00  0.00    +0.004 C 
ENDBRANCH  17  19
BRANCH  17  20
ATOM     20  O1  UNL     1      14.657  13.110  37.448  0.00  0.00    -0.380 OA
ATOM     21  H5  UNL     1      15.625  12.977  37.270  0.00  0.00    +0.211 HD
ENDBRANCH  17  20
ENDBRANCH   1  17
BRANCH  10  22
ATOM     22  C15 UNL     1      11.637  13.750  35.265  0.00  0.00    +0.161 C 
BRANCH  22  23
ATOM     23  C16 UNL     1      11.400  12.365  35.814  0.00  0.00    -0.028 A 
ATOM     24  C17 UNL     1      11.343  11.252  34.956  0.00  0.00    +0.005 A 
ATOM     25  C18 UNL     1      11.106   9.973  35.471  0.00  0.00    +0.000 A 
ATOM     26  C19 UNL     1      10.916   9.795  36.845  0.00  0.00    +0.000 A 
ATOM     27  C20 UNL     1      10.964  10.896  37.704  0.00  0.00    +0.000 A 
ATOM     28  C21 UNL     1      11.203  12.175  37.194  0.00  0.00    +0.005 A 
ENDBRANCH  22  23
ENDBRANCH  10  22
TORSDOF 6
ENDMDL
MODEL 3
REMARK VINA RESULT:    -6.312      6.409      8.624
REMARK INTER + INTRA:          -9.446
REMARK INTER:                  -8.044
REMARK INTRA:                  -1.402
REMARK UNBOUND:                -1.104
REMARK  Name = /home/qwerty/github/datacon2025hack/step_04_hit_selection/docking/ligands/lig_107.pdb
REMARK  6 active torsions:
REMARK  status: ('A' for Active; 'I' for Inactive)
REMARK    1  A    between atoms: C2_2  and  C3_3
REMARK    2  A    between atoms: C3_3  and  O1_4
REMARK    3  A    between atoms: C3_3  and  C4_5
REMARK    4  A    between atoms: C8_12  and  N4_13
REMARK    5  A    between atoms: N5_20  and  C15_21
REMARK    6  A    between atoms: C15_21  and  C16_22
REMARK                            x       y       z     vdW  Elec       q    Type
REMARK                         _______ _______ _______ _____ _____    ______ ____
ROOT
ATOM      1  C4  UNL     1       9.688   3.782  22.144  0.00  0.00    +0.168 A 
ATOM      2  N1  UNL     1      10.048   2.807  22.999  0.00  0.00    -0.130 NA
ATOM      3  N2  UNL     1      11.229   2.361  22.604  0.00  0.00    -0.113 NA
ATOM      4  C5  UNL     1      11.587   3.081  21.523  0.00  0.00    +0.220 A 
ATOM      5  N3  UNL     1      12.811   2.816  20.805  0.00  0.00    -0.298 N 
ATOM      6  C6  UNL     1      13.567   3.788  20.026  0.00  0.00    +0.109 C 
ATOM      7  C7  UNL     1      14.965   3.207  19.856  0.00  0.00    +0.039 C 
ATOM      8  C8  UNL     1      14.830   1.713  20.192  0.00  0.00    +0.075 C 
ATOM      9  C14 UNL     1      13.542   1.575  21.007  0.00  0.00    +0.126 C 
ATOM     10  N5  UNL     1      10.640   4.002  21.205  0.00  0.00    -0.292 N 
ENDROOT
BRANCH   8  11
ATOM     11  N4  UNL     1      16.010   1.124  20.878  0.00  0.00    -0.298 NA
ATOM     12  C9  UNL     1      16.379  -0.261  20.466  0.00  0.00    +0.085 C 
ATOM     13  C10 UNL     1      16.281  -1.285  21.609  0.00  0.00    +0.015 C 
ATOM     14  C11 UNL     1      17.123  -0.860  22.822  0.00  0.00    +0.002 C 
ATOM     15  C12 UNL     1      17.129   0.665  23.041  0.00  0.00    +0.015 C 
ATOM     16  C13 UNL     1      15.951   1.345  22.340  0.00  0.00    +0.085 C 
ENDBRANCH   8  11
BRANCH   1  17
ATOM     17  C3  UNL     1       8.403   4.558  22.278  0.00  0.00    +0.205 C 
BRANCH  17  19
ATOM     18  C1  UNL     1       8.923   6.478  23.779  0.00  0.00    +0.007 C 
ATOM     19  C2  UNL     1       8.363   5.276  23.604  0.00  0.00    +0.004 C 
ENDBRANCH  17  19
BRANCH  17  20
ATOM     20  O1  UNL     1       7.306   3.687  22.163  0.00  0.00    -0.380 OA
ATOM     21  H5  UNL     1       6.488   4.237  22.279  0.00  0.00    +0.211 HD
ENDBRANCH  17  20
ENDBRANCH   1  17
BRANCH  10  22
ATOM     22  C15 UNL     1      10.529   4.916  20.059  0.00  0.00    +0.161 C 
BRANCH  22  23
ATOM     23  C16 UNL     1      10.698   6.352  20.490  0.00  0.00    -0.028 A 
ATOM     24  C17 UNL     1       9.687   7.299  20.248  0.00  0.00    +0.005 A 
ATOM     25  C18 UNL     1       9.860   8.632  20.635  0.00  0.00    +0.000 A 
ATOM     26  C19 UNL     1      11.044   9.032  21.260  0.00  0.00    +0.000 A 
ATOM     27  C20 UNL     1      12.057   8.100  21.499  0.00  0.00    +0.000 A 
ATOM     28  C21 UNL     1      11.888   6.767  21.115  0.00  0.00    +0.005 A 
ENDBRANCH  22  23
ENDBRANCH  10  22
TORSDOF 6
ENDMDL
MODEL 4
REMARK VINA RESULT:    -6.287     14.300     16.052
REMARK INTER + INTRA:          -9.413
REMARK INTER:                  -8.035
REMARK INTRA:                  -1.378
REMARK UNBOUND:                -1.104
REMARK  Name = /home/qwerty/github/datacon2025hack/step_04_hit_selection/docking/ligands/lig_107.pdb
REMARK  6 active torsions:
REMARK  status: ('A' for Active; 'I' for Inactive)
REMARK    1  A    between atoms: C2_2  and  C3_3
REMARK    2  A    between atoms: C3_3  and  O1_4
REMARK    3  A    between atoms: C3_3  and  C4_5
REMARK    4  A    between atoms: C8_12  and  N4_13
REMARK    5  A    between atoms: N5_20  and  C15_21
REMARK    6  A    between atoms: C15_21  and  C16_22
REMARK                            x       y       z     vdW  Elec       q    Type
REMARK                         _______ _______ _______ _____ _____    ______ ____
ROOT
ATOM      1  C4  UNL     1      20.254   3.265  28.628  0.00  0.00    +0.168 A 
ATOM      2  N1  UNL     1      20.148   4.554  28.254  0.00  0.00    -0.130 NA
ATOM      3  N2  UNL     1      20.668   5.285  29.225  0.00  0.00    -0.113 NA
ATOM      4  C5  UNL     1      21.104   4.435  30.176  0.00  0.00    +0.220 A 
ATOM      5  N3  UNL     1      21.687   4.908  31.409  0.00  0.00    -0.298 N 
ATOM      6  C6  UNL     1      22.652   4.185  32.226  0.00  0.00    +0.109 C 
ATOM      7  C7  UNL     1      23.310   5.219  33.129  0.00  0.00    +0.039 C 
ATOM      8  C8  UNL     1      22.385   6.446  33.087  0.00  0.00    +0.075 C 
ATOM      9  C14 UNL     1      21.534   6.294  31.824  0.00  0.00    +0.126 C 
ATOM     10  N5  UNL     1      20.870   3.142  29.830  0.00  0.00    -0.292 N 
ENDROOT
BRANCH   8  11
ATOM     11  N4  UNL     1      23.089   7.754  33.151  0.00  0.00    -0.298 NA
ATOM     12  C9  UNL     1      22.332   8.928  32.627  0.00  0.00    +0.085 C 
ATOM     13  C10 UNL     1      23.004   9.598  31.418  0.00  0.00    +0.015 C 
ATOM     14  C11 UNL     1      24.451  10.008  31.731  0.00  0.00    +0.002 C 
ATOM     15  C12 UNL     1      25.168   9.011  32.660  0.00  0.00    +0.015 C 
ATOM     16  C13 UNL     1      24.481   7.643  32.664  0.00  0.00    +0.085 C 
ENDBRANCH   8  11
BRANCH   1  17
ATOM     17  C3  UNL     1      19.790   2.119  27.767  0.00  0.00    +0.205 C 
BRANCH  17  19
ATOM     18  C1  UNL     1      21.903   2.172  26.447  0.00  0.00    +0.007 C 
ATOM     19  C2  UNL     1      20.569   2.089  26.476  0.00  0.00    +0.004 C 
ENDBRANCH  17  19
BRANCH  17  20
ATOM     20  O1  UNL     1      18.416   2.245  27.505  0.00  0.00    -0.380 OA
ATOM     21  H5  UNL     1      18.225   1.699  26.699  0.00  0.00    +0.211 HD
ENDBRANCH  17  20
ENDBRANCH   1  17
BRANCH  10  22
ATOM     22  C15 UNL     1      21.055   1.893  30.582  0.00  0.00    +0.161 C 
BRANCH  22  23
ATOM     23  C16 UNL     1      22.110   1.024  29.943  0.00  0.00    -0.028 A 
ATOM     24  C17 UNL     1      21.791  -0.261  29.467  0.00  0.00    +0.005 A 
ATOM     25  C18 UNL     1      22.779  -1.067  28.893  0.00  0.00    +0.000 A 
ATOM     26  C19 UNL     1      24.093  -0.602  28.795  0.00  0.00    +0.000 A 
ATOM     27  C20 UNL     1      24.421   0.670  29.271  0.00  0.00    +0.000 A 
ATOM     28  C21 UNL     1      23.437   1.480  29.844  0.00  0.00    +0.005 A 
ENDBRANCH  22  23
ENDBRANCH  10  22
TORSDOF 6
ENDMDL
MODEL 5
REMARK VINA RESULT:    -6.272     14.529     16.037
REMARK INTER + INTRA:          -9.393
REMARK INTER:                  -7.951
REMARK INTRA:                  -1.442
REMARK UNBOUND:                -1.104
REMARK  Name = /home/qwerty/github/datacon2025hack/step_04_hit_selection/docking/ligands/lig_107.pdb
REMARK  6 active torsions:
REMARK  status: ('A' for Active; 'I' for Inactive)
REMARK    1  A    between atoms: C2_2  and  C3_3
REMARK    2  A    between atoms: C3_3  and  O1_4
REMARK    3  A    between atoms: C3_3  and  C4_5
REMARK    4  A    between atoms: C8_12  and  N4_13
REMARK    5  A    between atoms: N5_20  and  C15_21
REMARK    6  A    between atoms: C15_21  and  C16_22
REMARK                            x       y       z     vdW  Elec       q    Type
REMARK                         _______ _______ _______ _____ _____    ______ ____
ROOT
ATOM      1  C4  UNL     1      20.496   1.992  32.735  0.00  0.00    +0.168 A 
ATOM      2  N1  UNL     1      19.731   2.526  33.705  0.00  0.00    -0.130 NA
ATOM      3  N2  UNL     1      20.255   3.700  34.011  0.00  0.00    -0.113 NA
ATOM      4  C5  UNL     1      21.325   3.882  33.212  0.00  0.00    +0.220 A 
ATOM      5  N3  UNL     1      22.164   5.051  33.319  0.00  0.00    -0.298 N 
ATOM      6  C6  UNL     1      22.956   5.631  32.243  0.00  0.00    +0.109 C 
ATOM      7  C7  UNL     1      23.283   7.055  32.671  0.00  0.00    +0.039 C 
ATOM      8  C8  UNL     1      23.017   7.099  34.184  0.00  0.00    +0.075 C 
ATOM      9  C14 UNL     1      22.097   5.914  34.488  0.00  0.00    +0.126 C 
ATOM     10  N5  UNL     1      21.505   2.823  32.379  0.00  0.00    -0.292 N 
ENDROOT
BRANCH   8  11
ATOM     11  N4  UNL     1      22.474   8.391  34.680  0.00  0.00    -0.298 NA
ATOM     12  C9  UNL     1      21.856   8.360  36.037  0.00  0.00    +0.085 C 
ATOM     13  C10 UNL     1      20.360   8.716  36.037  0.00  0.00    +0.015 C 
ATOM     14  C11 UNL     1      20.105  10.080  35.378  0.00  0.00    +0.002 C 
ATOM     15  C12 UNL     1      21.049  10.359  34.193  0.00  0.00    +0.015 C 
ATOM     16  C13 UNL     1      21.667   9.071  33.643  0.00  0.00    +0.085 C 
ENDBRANCH   8  11
BRANCH   1  17
ATOM     17  C3  UNL     1      20.204   0.657  32.100  0.00  0.00    +0.205 C 
BRANCH  17  19
ATOM     18  C1  UNL     1      18.599   1.348  30.324  0.00  0.00    +0.007 C 
ATOM     19  C2  UNL     1      18.842   0.674  31.453  0.00  0.00    +0.004 C 
ENDBRANCH  17  19
BRANCH  17  20
ATOM     20  O1  UNL     1      20.269  -0.357  33.070  0.00  0.00    -0.380 OA
ATOM     21  H5  UNL     1      20.358   0.092  33.951  0.00  0.00    +0.211 HD
ENDBRANCH  17  20
ENDBRANCH   1  17
BRANCH  10  22
ATOM     22  C15 UNL     1      22.585   2.515  31.431  0.00  0.00    +0.161 C 
BRANCH  22  23
ATOM     23  C16 UNL     1      22.074   2.492  30.012  0.00  0.00    -0.028 A 
ATOM     24  C17 UNL     1      22.272   1.364  29.195  0.00  0.00    +0.005 A 
ATOM     25  C18 UNL     1      21.810   1.357  27.875  0.00  0.00    +0.000 A 
ATOM     26  C19 UNL     1      21.154   2.477  27.356  0.00  0.00    +0.000 A 
ATOM     27  C20 UNL     1      20.958   3.604  28.158  0.00  0.00    +0.000 A 
ATOM     28  C21 UNL     1      21.416   3.615  29.478  0.00  0.00    +0.005 A 
ENDBRANCH  22  23
ENDBRANCH  10  22
TORSDOF 6
ENDMDL
MODEL 6
REMARK VINA RESULT:    -6.259      7.664     10.571
REMARK INTER + INTRA:          -9.376
REMARK INTER:                  -7.909
REMARK INTRA:                  -1.467
REMARK UNBOUND:                -1.104
REMARK  Name = /home/qwerty/github/datacon2025hack/step_04_hit_selection/docking/ligands/lig_107.pdb
REMARK  6 active torsions:
REMARK  status: ('A' for Active; 'I' for Inactive)
REMARK    1  A    between atoms: C2_2  and  C3_3
REMARK    2  A    between atoms: C3_3  and  O1_4
REMARK    3  A    between atoms: C3_3  and  C4_5
REMARK    4  A    between atoms: C8_12  and  N4_13
REMARK    5  A    between atoms: N5_20  and  C15_21
REMARK    6  A    between atoms: C15_21  and  C16_22
REMARK                            x       y       z     vdW  Elec       q    Type
REMARK                         _______ _______ _______ _____ _____    ______ ____
ROOT
ATOM      1  C4  UNL     1      12.224  14.437  29.556  0.00  0.00    +0.168 A 
ATOM      2  N1  UNL     1      13.468  14.802  29.916  0.00  0.00    -0.130 NA
ATOM      3  N2  UNL     1      13.545  14.679  31.230  0.00  0.00    -0.113 NA
ATOM      4  C5  UNL     1      12.352  14.222  31.659  0.00  0.00    +0.220 A 
ATOM      5  N3  UNL     1      12.075  14.022  33.062  0.00  0.00    -0.298 N 
ATOM      6  C6  UNL     1      11.118  13.072  33.612  0.00  0.00    +0.109 C 
ATOM      7  C7  UNL     1      11.494  12.884  35.076  0.00  0.00    +0.039 C 
ATOM      8  C8  UNL     1      12.409  14.070  35.419  0.00  0.00    +0.075 C 
ATOM      9  C14 UNL     1      12.933  14.603  34.083  0.00  0.00    +0.126 C 
ATOM     10  N5  UNL     1      11.488  14.045  30.625  0.00  0.00    -0.292 N 
ENDROOT
BRANCH   8  11
ATOM     11  N4  UNL     1      13.498  13.754  36.379  0.00  0.00    -0.298 NA
ATOM     12  C9  UNL     1      14.589  14.766  36.483  0.00  0.00    +0.085 C 
ATOM     13  C10 UNL     1      15.967  14.226  36.066  0.00  0.00    +0.015 C 
ATOM     14  C11 UNL     1      16.344  12.967  36.863  0.00  0.00    +0.002 C 
ATOM     15  C12 UNL     1      15.132  12.068  37.171  0.00  0.00    +0.015 C 
ATOM     16  C13 UNL     1      13.958  12.356  36.233  0.00  0.00    +0.085 C 
ENDBRANCH   8  11
BRANCH   1  17
ATOM     17  C3  UNL     1      11.754  14.419  28.124  0.00  0.00    +0.205 C 
BRANCH  17  19
ATOM     18  C1  UNL     1      11.829  12.251  26.898  0.00  0.00    +0.007 C 
ATOM     19  C2  UNL     1      12.466  13.334  27.356  0.00  0.00    +0.004 C 
ENDBRANCH  17  19
BRANCH  17  20
ATOM     20  O1  UNL     1      11.988  15.671  27.531  0.00  0.00    -0.380 OA
ATOM     21  H5  UNL     1      12.403  16.246  28.225  0.00  0.00    +0.211 HD
ENDBRANCH  17  20
ENDBRANCH   1  17
BRANCH  10  22
ATOM     22  C15 UNL     1      10.063  13.686  30.609  0.00  0.00    +0.161 C 
BRANCH  22  23
ATOM     23  C16 UNL     1       9.853  12.321  30.003  0.00  0.00    -0.028 A 
ATOM     24  C17 UNL     1       8.851  12.110  29.038  0.00  0.00    +0.005 A 
ATOM     25  C18 UNL     1       8.651  10.837  28.493  0.00  0.00    +0.000 A 
ATOM     26  C19 UNL     1       9.442   9.764  28.912  0.00  0.00    +0.000 A 
ATOM     27  C20 UNL     1      10.435   9.962  29.874  0.00  0.00    +0.000 A 
ATOM     28  C21 UNL     1      10.640  11.232  30.420  0.00  0.00    +0.005 A 
ENDBRANCH  22  23
ENDBRANCH  10  22
TORSDOF 6
ENDMDL
MODEL 7
REMARK VINA RESULT:    -6.126      3.004      7.664
REMARK INTER + INTRA:          -9.200
REMARK INTER:                  -7.730
REMARK INTRA:                  -1.470
REMARK UNBOUND:                -1.104
REMARK  Name = /home/qwerty/github/datacon2025hack/step_04_hit_selection/docking/ligands/lig_107.pdb
REMARK  6 active torsions:
REMARK  status: ('A' for Active; 'I' for Inactive)
REMARK    1  A    between atoms: C2_2  and  C3_3
REMARK    2  A    between atoms: C3_3  and  O1_4
REMARK    3  A    between atoms: C3_3  and  C4_5
REMARK    4  A    between atoms: C8_12  and  N4_13
REMARK    5  A    between atoms: N5_20  and  C15_21
REMARK    6  A    between atoms: C15_21  and  C16_22
REMARK                            x       y       z     vdW  Elec       q    Type
REMARK                         _______ _______ _______ _____ _____    ______ ____
ROOT
ATOM      1  C4  UNL     1       9.179   8.310  28.431  0.00  0.00    +0.168 A 
ATOM      2  N1  UNL     1       9.832   7.251  27.918  0.00  0.00    -0.130 NA
ATOM      3  N2  UNL     1       9.663   7.288  26.607  0.00  0.00    -0.113 NA
ATOM      4  C5  UNL     1       8.923   8.379  26.329  0.00  0.00    +0.220 A 
ATOM      5  N3  UNL     1       8.508   8.695  24.983  0.00  0.00    -0.298 N 
ATOM      6  C6  UNL     1       8.216  10.028  24.474  0.00  0.00    +0.109 C 
ATOM      7  C7  UNL     1       8.280   9.930  22.956  0.00  0.00    +0.039 C 
ATOM      8  C8  UNL     1       8.193   8.428  22.639  0.00  0.00    +0.075 C 
ATOM      9  C14 UNL     1       8.583   7.698  23.926  0.00  0.00    +0.126 C 
ATOM     10  N5  UNL     1       8.604   9.062  27.461  0.00  0.00    -0.292 N 
ENDROOT
BRANCH   8  11
ATOM     11  N4  UNL     1       8.997   7.996  21.466  0.00  0.00    -0.298 NA
ATOM     12  C9  UNL     1       8.479   6.812  20.721  0.00  0.00    +0.085 C 
ATOM     13  C10 UNL     1       9.438   5.610  20.738  0.00  0.00    +0.015 C 
ATOM     14  C11 UNL     1      10.830   5.991  20.210  0.00  0.00    +0.002 C 
ATOM     15  C12 UNL     1      11.247   7.421  20.600  0.00  0.00    +0.015 C 
ATOM     16  C13 UNL     1      10.440   7.945  21.790  0.00  0.00    +0.085 C 
ENDBRANCH   8  11
BRANCH   1  17
ATOM     17  C3  UNL     1       9.158   8.627  29.904  0.00  0.00    +0.205 C 
BRANCH  17  19
ATOM     18  C1  UNL     1      10.595  10.347  30.992  0.00  0.00    +0.007 C 
ATOM     19  C2  UNL     1      10.490   9.187  30.335  0.00  0.00    +0.004 C 
ENDBRANCH  17  19
BRANCH  17  20
ATOM     20  O1  UNL     1       8.857   7.467  30.637  0.00  0.00    -0.380 OA
ATOM     21  H5  UNL     1       8.243   6.924  30.078  0.00  0.00    +0.211 HD
ENDBRANCH  17  20
ENDBRANCH   1  17
BRANCH  10  22
ATOM     22  C15 UNL     1       7.729  10.224  27.672  0.00  0.00    +0.161 C 
BRANCH  22  23
ATOM     23  C16 UNL     1       8.526  11.437  28.085  0.00  0.00    -0.028 A 
ATOM     24  C17 UNL     1       8.089  12.259  29.139  0.00  0.00    +0.005 A 
ATOM     25  C18 UNL     1       8.824  13.391  29.504  0.00  0.00    +0.000 A 
ATOM     26  C19 UNL     1       9.996  13.718  28.815  0.00  0.00    +0.000 A 
ATOM     27  C20 UNL     1      10.434  12.911  27.762  0.00  0.00    +0.000 A 
ATOM     28  C21 UNL     1       9.704  11.778  27.395  0.00  0.00    +0.005 A 
ENDBRANCH  22  23
ENDBRANCH  10  22
TORSDOF 6
ENDMDL
MODEL 8
REMARK VINA RESULT:    -6.033     11.576     13.659
REMARK INTER + INTRA:          -9.077
REMARK INTER:                  -7.662
REMARK INTRA:                  -1.416
REMARK UNBOUND:                -1.104
REMARK  Name = /home/qwerty/github/datacon2025hack/step_04_hit_selection/docking/ligands/lig_107.pdb
REMARK  6 active torsions:
REMARK  status: ('A' for Active; 'I' for Inactive)
REMARK    1  A    between atoms: C2_2  and  C3_3
REMARK    2  A    between atoms: C3_3  and  O1_4
REMARK    3  A    between atoms: C3_3  and  C4_5
REMARK    4  A    between atoms: C8_12  and  N4_13
REMARK    5  A    between atoms: N5_20  and  C15_21
REMARK    6  A    between atoms: C15_21  and  C16_22
REMARK                            x       y       z     vdW  Elec       q    Type
REMARK                         _______ _______ _______ _____ _____    ______ ____
ROOT
ATOM      1  C4  UNL     1      20.908   2.853  25.286  0.00  0.00    +0.168 A 
ATOM      2  N1  UNL     1      20.318   3.727  24.449  0.00  0.00    -0.130 NA
ATOM      3  N2  UNL     1      19.131   3.230  24.143  0.00  0.00    -0.113 NA
ATOM      4  C5  UNL     1      19.000   2.066  24.808  0.00  0.00    +0.220 A 
ATOM      5  N3  UNL     1      17.832   1.231  24.659  0.00  0.00    -0.298 N 
ATOM      6  C6  UNL     1      17.317   0.302  25.656  0.00  0.00    +0.109 C 
ATOM      7  C7  UNL     1      15.874   0.013  25.266  0.00  0.00    +0.039 C 
ATOM      8  C8  UNL     1      15.746   0.467  23.803  0.00  0.00    +0.075 C 
ATOM      9  C14 UNL     1      16.907   1.434  23.555  0.00  0.00    +0.126 C 
ATOM     10  N5  UNL     1      20.104   1.795  25.555  0.00  0.00    -0.292 N 
ENDROOT
BRANCH   8  11
ATOM     11  N4  UNL     1      14.426   1.051  23.449  0.00  0.00    -0.298 NA
ATOM     12  C9  UNL     1      13.633   1.606  24.584  0.00  0.00    +0.085 C 
ATOM     13  C10 UNL     1      12.293   0.886  24.804  0.00  0.00    +0.015 C 
ATOM     14  C11 UNL     1      11.439   0.879  23.526  0.00  0.00    +0.002 C 
ATOM     15  C12 UNL     1      12.282   0.740  22.244  0.00  0.00    +0.015 C 
ATOM     16  C13 UNL     1      13.670   0.165  22.536  0.00  0.00    +0.085 C 
ENDBRANCH   8  11
BRANCH   1  17
ATOM     17  C3  UNL     1      22.274   3.080  25.881  0.00  0.00    +0.205 C 
BRANCH  17  19
ATOM     18  C1  UNL     1      21.580   4.477  27.823  0.00  0.00    +0.007 C 
ATOM     19  C2  UNL     1      22.283   4.350  26.693  0.00  0.00    +0.004 C 
ENDBRANCH  17  19
BRANCH  17  20
ATOM     20  O1  UNL     1      23.234   3.149  24.857  0.00  0.00    -0.380 OA
ATOM     21  H5  UNL     1      23.421   2.216  24.574  0.00  0.00    +0.211 HD
ENDBRANCH  17  20
ENDBRANCH   1  17
BRANCH  10  22
ATOM     22  C15 UNL     1      20.470   0.609  26.341  0.00  0.00    +0.161 C 
BRANCH  22  23
ATOM     23  C16 UNL     1      20.526   0.928  27.814  0.00  0.00    -0.028 A 
ATOM     24  C17 UNL     1      21.683   0.652  28.566  0.00  0.00    +0.005 A 
ATOM     25  C18 UNL     1      21.721   0.935  29.935  0.00  0.00    +0.000 A 
ATOM     26  C19 UNL     1      20.604   1.488  30.567  0.00  0.00    +0.000 A 
ATOM     27  C20 UNL     1      19.448   1.760  29.831  0.00  0.00    +0.000 A 
ATOM     28  C21 UNL     1      19.406   1.480  28.462  0.00  0.00    +0.005 A 
ENDBRANCH  22  23
ENDBRANCH  10  22
TORSDOF 6
ENDMDL
MODEL 9
REMARK VINA RESULT:    -5.873      3.187      7.288
REMARK INTER + INTRA:          -8.865
REMARK INTER:                  -7.366
REMARK INTRA:                  -1.500
REMARK UNBOUND:                -1.104
REMARK  Name = /home/qwerty/github/datacon2025hack/step_04_hit_selection/docking/ligands/lig_107.pdb
REMARK  6 active torsions:
REMARK  status: ('A' for Active; 'I' for Inactive)
REMARK    1  A    between atoms: C2_2  and  C3_3
REMARK    2  A    between atoms: C3_3  and  O1_4
REMARK    3  A    between atoms: C3_3  and  C4_5
REMARK    4  A    between atoms: C8_12  and  N4_13
REMARK    5  A    between atoms: N5_20  and  C15_21
REMARK    6  A    between atoms: C15_21  and  C16_22
REMARK                            x       y       z     vdW  Elec       q    Type
REMARK                         _______ _______ _______ _____ _____    ______ ____
ROOT
ATOM      1  C4  UNL     1       7.701   8.894  27.748  0.00  0.00    +0.168 A 
ATOM      2  N1  UNL     1       7.726   7.554  27.628  0.00  0.00    -0.130 NA
ATOM      3  N2  UNL     1       8.126   7.281  26.398  0.00  0.00    -0.113 NA
ATOM      4  C5  UNL     1       8.360   8.457  25.783  0.00  0.00    +0.220 A 
ATOM      5  N3  UNL     1       8.765   8.524  24.399  0.00  0.00    -0.298 N 
ATOM      6  C6  UNL     1       9.548   9.592  23.793  0.00  0.00    +0.109 C 
ATOM      7  C7  UNL     1      10.112   9.028  22.496  0.00  0.00    +0.039 C 
ATOM      8  C8  UNL     1       9.274   7.774  22.197  0.00  0.00    +0.075 C 
ATOM      9  C14 UNL     1       8.626   7.370  23.524  0.00  0.00    +0.126 C 
ATOM     10  N5  UNL     1       8.111   9.506  26.610  0.00  0.00    -0.292 N 
ENDROOT
BRANCH   8  11
ATOM     11  N4  UNL     1      10.030   6.662  21.565  0.00  0.00    -0.298 NA
ATOM     12  C9  UNL     1      10.045   5.374  22.317  0.00  0.00    +0.085 C 
ATOM     13  C10 UNL     1      11.453   4.938  22.755  0.00  0.00    +0.015 C 
ATOM     14  C11 UNL     1      12.416   4.856  21.561  0.00  0.00    +0.002 C 
ATOM     15  C12 UNL     1      12.151   5.943  20.502  0.00  0.00    +0.015 C 
ATOM     16  C13 UNL     1      11.352   7.115  21.078  0.00  0.00    +0.085 C 
ENDBRANCH   8  11
BRANCH   1  17
ATOM     17  C3  UNL     1       7.316   9.599  29.023  0.00  0.00    +0.205 C 
BRANCH  17  19
ATOM     18  C1  UNL     1       9.338   9.922  30.442  0.00  0.00    +0.007 C 
ATOM     19  C2  UNL     1       8.252   9.205  30.138  0.00  0.00    +0.004 C 
ENDBRANCH  17  19
BRANCH  17  20
ATOM     20  O1  UNL     1       5.991   9.278  29.363  0.00  0.00    -0.380 OA
ATOM     21  H5  UNL     1       5.475   9.249  28.516  0.00  0.00    +0.211 HD
ENDBRANCH  17  20
ENDBRANCH   1  17
BRANCH  10  22
ATOM     22  C15 UNL     1       8.106  10.954  26.357  0.00  0.00    +0.161 C 
BRANCH  22  23
ATOM     23  C16 UNL     1       9.191  11.648  27.143  0.00  0.00    -0.028 A 
ATOM     24  C17 UNL     1      10.530  11.232  27.040  0.00  0.00    +0.005 A 
ATOM     25  C18 UNL     1      11.528  11.869  27.785  0.00  0.00    +0.000 A 
ATOM     26  C19 UNL     1      11.196  12.920  28.644  0.00  0.00    +0.000 A 
ATOM     27  C20 UNL     1       9.867  13.337  28.758  0.00  0.00    +0.000 A 
ATOM     28  C21 UNL     1       8.868  12.704  28.014  0.00  0.00    +0.005 A 
ENDBRANCH  22  23
ENDBRANCH  10  22
TORSDOF 6
ENDMDL
