MODEL 1
REMARK VINA RESULT:    -8.408      0.000      0.000
REMARK INTER + INTRA:         -11.677
REMARK INTER:                 -10.865
REMARK INTRA:                  -0.811
REMARK UNBOUND:                -0.811
REMARK  Name = /home/qwerty/github/datacon2025hack/step_04_hit_selection/docking/ligands/lig_331.pdb
REMARK  6 active torsions:
REMARK  status: ('A' for Active; 'I' for Inactive)
REMARK    1  A    between atoms: C1_1  and  O1_2
REMARK    2  A    between atoms: O1_2  and  C2_3
REMARK    3  A    between atoms: C2_3  and  C3_5
REMARK    4  A    between atoms: C8_11  and  C9_12
REMARK    5  A    between atoms: C12_16  and  C13_17
REMARK    6  A    between atoms: C17_23  and  C18_24
REMARK                            x       y       z     vdW  Elec       q    Type
REMARK                         _______ _______ _______ _____ _____    ______ ____
ROOT
ATOM      1  C9  UNL     1      12.476  14.250  32.544  0.00  0.00    +0.092 A 
ATOM      2  C10 UNL     1      11.292  14.347  33.289  0.00  0.00    +0.139 A 
ATOM      3  N2  UNL     1      11.322  14.126  34.629  0.00  0.00    -0.259 NA
ATOM      4  C11 UNL     1      12.476  13.804  35.269  0.00  0.00    +0.139 A 
ATOM      5  C12 UNL     1      13.667  13.691  34.535  0.00  0.00    +0.091 A 
ATOM      6  N6  UNL     1      13.625  13.927  33.196  0.00  0.00    -0.244 NA
ENDROOT
BRANCH   1  13
ATOM      7  C3  UNL     1       9.491  13.401  29.091  0.00  0.00    +0.060 A 
ATOM      8  C4  UNL     1      10.011  13.815  27.838  0.00  0.00    +0.017 A 
ATOM      9  C5  UNL     1      11.278  14.413  27.747  0.00  0.00    +0.027 A 
ATOM     10  C6  UNL     1      12.008  14.582  28.920  0.00  0.00    +0.047 A 
ATOM     11  N1  UNL     1      13.227  15.131  29.037  0.00  0.00    -0.360 N 
ATOM     12  C7  UNL     1      13.535  15.085  30.352  0.00  0.00    +0.093 A 
ATOM     13  C8  UNL     1      12.500  14.498  31.082  0.00  0.00    +0.027 A 
ATOM     14  C25 UNL     1      11.525  14.182  30.140  0.00  0.00    +0.010 A 
ATOM     15  C26 UNL     1      10.262  13.591  30.262  0.00  0.00    +0.025 A 
ATOM     16  H6  UNL     1      13.823  15.514  28.270  0.00  0.00    +0.165 HD
BRANCH   7  17
ATOM     17  C2  UNL     1       8.152  12.776  29.170  0.00  0.00    +0.339 C 
ATOM     18  O2  UNL     1       7.203  13.379  29.744  0.00  0.00    -0.245 OA
BRANCH  17  20
ATOM     19  C1  UNL     1       7.558  10.382  29.385  0.00  0.00    +0.280 C 
ATOM     20  O1  UNL     1       7.939  11.512  28.609  0.00  0.00    -0.464 OA
ENDBRANCH  17  20
ENDBRANCH   7  17
ENDBRANCH   1  13
BRANCH   5  21
ATOM     21  C13 UNL     1      14.962  13.343  35.173  0.00  0.00    +0.021 A 
ATOM     22  C14 UNL     1      15.026  13.136  36.578  0.00  0.00    +0.123 A 
ATOM     23  N3  UNL     1      16.212  12.844  37.191  0.00  0.00    -0.237 NA
ATOM     24  C15 UNL     1      17.336  12.741  36.444  0.00  0.00    +0.139 A 
ATOM     25  N4  UNL     1      18.572  12.505  36.911  0.00  0.00    -0.345 N 
ATOM     26  C16 UNL     1      19.382  12.536  35.828  0.00  0.00    +0.093 A 
ATOM     27  C17 UNL     1      18.645  12.784  34.669  0.00  0.00    +0.010 A 
ATOM     28  C23 UNL     1      17.332  12.920  35.090  0.00  0.00    +0.027 A 
ATOM     29  C24 UNL     1      16.156  13.249  34.418  0.00  0.00    +0.023 A 
ATOM     30  H11 UNL     1      18.853  12.344  37.904  0.00  0.00    +0.167 HD
BRANCH  27  31
ATOM     31  C18 UNL     1      19.186  12.878  33.296  0.00  0.00    +0.002 A 
ATOM     32  C19 UNL     1      19.191  14.096  32.599  0.00  0.00    +0.011 A 
ATOM     33  C20 UNL     1      19.696  14.157  31.300  0.00  0.00    +0.020 A 
ATOM     34  C21 UNL     1      20.184  12.996  30.700  0.00  0.00    +0.111 A 
ATOM     35  N5  UNL     1      20.159  11.818  31.378  0.00  0.00    -0.263 NA
ATOM     36  C22 UNL     1      19.672  11.733  32.645  0.00  0.00    +0.119 A 
ENDBRANCH  27  31
ENDBRANCH   5  21
TORSDOF 5
ENDMDL
MODEL 2
REMARK VINA RESULT:    -8.131     13.028     16.559
REMARK INTER + INTRA:         -11.319
REMARK INTER:                  -9.866
REMARK INTRA:                  -1.454
REMARK UNBOUND:                -0.811
REMARK  Name = /home/qwerty/github/datacon2025hack/step_04_hit_selection/docking/ligands/lig_331.pdb
REMARK  6 active torsions:
REMARK  status: ('A' for Active; 'I' for Inactive)
REMARK    1  A    between atoms: C1_1  and  O1_2
REMARK    2  A    between atoms: O1_2  and  C2_3
REMARK    3  A    between atoms: C2_3  and  C3_5
REMARK    4  A    between atoms: C8_11  and  C9_12
REMARK    5  A    between atoms: C12_16  and  C13_17
REMARK    6  A    between atoms: C17_23  and  C18_24
REMARK                            x       y       z     vdW  Elec       q    Type
REMARK                         _______ _______ _______ _____ _____    ______ ____
ROOT
ATOM      1  C9  UNL     1      20.268   4.899  24.408  0.00  0.00    +0.092 A 
ATOM      2  C10 UNL     1      20.169   6.294  24.520  0.00  0.00    +0.139 A 
ATOM      3  N2  UNL     1      19.275   6.967  23.751  0.00  0.00    -0.259 NA
ATOM      4  C11 UNL     1      18.473   6.321  22.865  0.00  0.00    +0.139 A 
ATOM      5  C12 UNL     1      18.568   4.927  22.733  0.00  0.00    +0.091 A 
ATOM      6  N6  UNL     1      19.459   4.263  23.518  0.00  0.00    -0.244 NA
ENDROOT
BRANCH   1  13
ATOM      7  C3  UNL     1      19.746   1.862  27.881  0.00  0.00    +0.060 A 
ATOM      8  C4  UNL     1      20.998   1.406  28.367  0.00  0.00    +0.017 A 
ATOM      9  C5  UNL     1      22.200   1.860  27.799  0.00  0.00    +0.027 A 
ATOM     10  C6  UNL     1      22.125   2.772  26.750  0.00  0.00    +0.047 A 
ATOM     11  N1  UNL     1      23.154   3.315  26.081  0.00  0.00    -0.360 N 
ATOM     12  C7  UNL     1      22.609   4.136  25.156  0.00  0.00    +0.093 A 
ATOM     13  C8  UNL     1      21.215   4.115  25.237  0.00  0.00    +0.027 A 
ATOM     14  C25 UNL     1      20.924   3.230  26.271  0.00  0.00    +0.010 A 
ATOM     15  C26 UNL     1      19.711   2.789  26.811  0.00  0.00    +0.025 A 
ATOM     16  H6  UNL     1      24.171   3.145  26.242  0.00  0.00    +0.165 HD
BRANCH   7  17
ATOM     17  C2  UNL     1      18.490   1.371  28.488  0.00  0.00    +0.339 C 
ATOM     18  O2  UNL     1      18.469   1.007  29.697  0.00  0.00    -0.245 OA
BRANCH  17  20
ATOM     19  C1  UNL     1      16.898   0.119  27.063  0.00  0.00    +0.280 C 
ATOM     20  O1  UNL     1      17.323   1.308  27.719  0.00  0.00    -0.464 OA
ENDBRANCH  17  20
ENDBRANCH   7  17
ENDBRANCH   1  13
BRANCH   5  21
ATOM     21  C13 UNL     1      17.721   4.160  21.785  0.00  0.00    +0.021 A 
ATOM     22  C14 UNL     1      17.294   4.763  20.569  0.00  0.00    +0.123 A 
ATOM     23  N3  UNL     1      16.490   4.087  19.696  0.00  0.00    -0.237 NA
ATOM     24  C15 UNL     1      16.106   2.823  19.990  0.00  0.00    +0.139 A 
ATOM     25  N4  UNL     1      15.287   2.058  19.253  0.00  0.00    -0.345 N 
ATOM     26  C16 UNL     1      15.143   0.905  19.946  0.00  0.00    +0.093 A 
ATOM     27  C17 UNL     1      15.888   0.945  21.126  0.00  0.00    +0.010 A 
ATOM     28  C23 UNL     1      16.494   2.191  21.138  0.00  0.00    +0.027 A 
ATOM     29  C24 UNL     1      17.289   2.844  22.077  0.00  0.00    +0.023 A 
ATOM     30  H11 UNL     1      14.842   2.304  18.341  0.00  0.00    +0.167 HD
BRANCH  27  31
ATOM     31  C18 UNL     1      15.986  -0.135  22.132  0.00  0.00    +0.002 A 
ATOM     32  C19 UNL     1      15.005  -0.295  23.123  0.00  0.00    +0.011 A 
ATOM     33  C20 UNL     1      15.125  -1.314  24.068  0.00  0.00    +0.020 A 
ATOM     34  C21 UNL     1      16.231  -2.163  24.023  0.00  0.00    +0.111 A 
ATOM     35  N5  UNL     1      17.183  -1.989  23.069  0.00  0.00    -0.263 NA
ATOM     36  C22 UNL     1      17.089  -1.003  22.137  0.00  0.00    +0.119 A 
ENDBRANCH  27  31
ENDBRANCH   5  21
TORSDOF 5
ENDMDL
MODEL 3
REMARK VINA RESULT:    -8.004      9.295     12.996
REMARK INTER + INTRA:         -11.155
REMARK INTER:                 -10.341
REMARK INTRA:                  -0.814
REMARK UNBOUND:                -0.811
REMARK  Name = /home/qwerty/github/datacon2025hack/step_04_hit_selection/docking/ligands/lig_331.pdb
REMARK  6 active torsions:
REMARK  status: ('A' for Active; 'I' for Inactive)
REMARK    1  A    between atoms: C1_1  and  O1_2
REMARK    2  A    between atoms: O1_2  and  C2_3
REMARK    3  A    between atoms: C2_3  and  C3_5
REMARK    4  A    between atoms: C8_11  and  C9_12
REMARK    5  A    between atoms: C12_16  and  C13_17
REMARK    6  A    between atoms: C17_23  and  C18_24
REMARK                            x       y       z     vdW  Elec       q    Type
REMARK                         _______ _______ _______ _____ _____    ______ ____
ROOT
ATOM      1  C9  UNL     1      21.954   4.381  33.473  0.00  0.00    +0.092 A 
ATOM      2  C10 UNL     1      23.205   4.681  32.914  0.00  0.00    +0.139 A 
ATOM      3  N2  UNL     1      23.782   5.884  33.165  0.00  0.00    -0.259 NA
ATOM      4  C11 UNL     1      23.172   6.814  33.945  0.00  0.00    +0.139 A 
ATOM      5  C12 UNL     1      21.915   6.533  34.503  0.00  0.00    +0.091 A 
ATOM      6  N6  UNL     1      21.354   5.319  34.253  0.00  0.00    -0.244 NA
ENDROOT
BRANCH   1  13
ATOM      7  C3  UNL     1      21.747   1.474  29.859  0.00  0.00    +0.060 A 
ATOM      8  C4  UNL     1      20.937   0.345  30.144  0.00  0.00    +0.017 A 
ATOM      9  C5  UNL     1      20.321   0.199  31.397  0.00  0.00    +0.027 A 
ATOM     10  C6  UNL     1      20.526   1.195  32.349  0.00  0.00    +0.047 A 
ATOM     11  N1  UNL     1      20.029   1.232  33.595  0.00  0.00    -0.360 N 
ATOM     12  C7  UNL     1      20.490   2.375  34.148  0.00  0.00    +0.093 A 
ATOM     13  C8  UNL     1      21.290   3.075  33.243  0.00  0.00    +0.027 A 
ATOM     14  C25 UNL     1      21.301   2.296  32.090  0.00  0.00    +0.010 A 
ATOM     15  C26 UNL     1      21.933   2.464  30.853  0.00  0.00    +0.025 A 
ATOM     16  H6  UNL     1      19.408   0.526  34.048  0.00  0.00    +0.165 HD
BRANCH   7  17
ATOM     17  C2  UNL     1      22.391   1.611  28.535  0.00  0.00    +0.339 C 
ATOM     18  O2  UNL     1      21.692   1.846  27.510  0.00  0.00    -0.245 OA
BRANCH  17  20
ATOM     19  C1  UNL     1      24.527   0.540  29.183  0.00  0.00    +0.280 C 
ATOM     20  O1  UNL     1      23.779   1.477  28.418  0.00  0.00    -0.464 OA
ENDBRANCH  17  20
ENDBRANCH   7  17
ENDBRANCH   1  13
BRANCH   5  21
ATOM     21  C13 UNL     1      21.194   7.505  35.365  0.00  0.00    +0.021 A 
ATOM     22  C14 UNL     1      21.768   8.779  35.629  0.00  0.00    +0.123 A 
ATOM     23  N3  UNL     1      21.137   9.677  36.442  0.00  0.00    -0.237 NA
ATOM     24  C15 UNL     1      19.946   9.350  36.994  0.00  0.00    +0.139 A 
ATOM     25  N4  UNL     1      19.236  10.109  37.842  0.00  0.00    -0.345 N 
ATOM     26  C16 UNL     1      18.151   9.371  38.171  0.00  0.00    +0.093 A 
ATOM     27  C17 UNL     1      18.176   8.140  37.514  0.00  0.00    +0.010 A 
ATOM     28  C23 UNL     1      19.343   8.145  36.767  0.00  0.00    +0.027 A 
ATOM     29  C24 UNL     1      19.956   7.180  35.970  0.00  0.00    +0.023 A 
ATOM     30  H11 UNL     1      19.477  11.064  38.188  0.00  0.00    +0.167 HD
BRANCH  27  31
ATOM     31  C18 UNL     1      17.154   7.075  37.618  0.00  0.00    +0.002 A 
ATOM     32  C19 UNL     1      15.896   7.216  37.013  0.00  0.00    +0.011 A 
ATOM     33  C20 UNL     1      14.944   6.203  37.134  0.00  0.00    +0.020 A 
ATOM     34  C21 UNL     1      15.253   5.058  37.868  0.00  0.00    +0.111 A 
ATOM     35  N5  UNL     1      16.470   4.939  38.463  0.00  0.00    -0.263 NA
ATOM     36  C22 UNL     1      17.414   5.912  38.360  0.00  0.00    +0.119 A 
ENDBRANCH  27  31
ENDBRANCH   5  21
TORSDOF 5
ENDMDL
MODEL 4
REMARK VINA RESULT:    -7.858      8.318     13.192
REMARK INTER + INTRA:         -10.965
REMARK INTER:                 -10.037
REMARK INTRA:                  -0.929
REMARK UNBOUND:                -0.811
REMARK  Name = /home/qwerty/github/datacon2025hack/step_04_hit_selection/docking/ligands/lig_331.pdb
REMARK  6 active torsions:
REMARK  status: ('A' for Active; 'I' for Inactive)
REMARK    1  A    between atoms: C1_1  and  O1_2
REMARK    2  A    between atoms: O1_2  and  C2_3
REMARK    3  A    between atoms: C2_3  and  C3_5
REMARK    4  A    between atoms: C8_11  and  C9_12
REMARK    5  A    between atoms: C12_16  and  C13_17
REMARK    6  A    between atoms: C17_23  and  C18_24
REMARK                            x       y       z     vdW  Elec       q    Type
REMARK                         _______ _______ _______ _____ _____    ______ ____
ROOT
ATOM      1  C9  UNL     1       7.893   9.196  24.667  0.00  0.00    +0.092 A 
ATOM      2  C10 UNL     1       7.525  10.377  24.007  0.00  0.00    +0.139 A 
ATOM      3  N2  UNL     1       7.825  10.533  22.692  0.00  0.00    -0.259 NA
ATOM      4  C11 UNL     1       8.484   9.570  21.996  0.00  0.00    +0.139 A 
ATOM      5  C12 UNL     1       8.869   8.387  22.646  0.00  0.00    +0.091 A 
ATOM      6  N6  UNL     1       8.551   8.239  23.960  0.00  0.00    -0.244 NA
ENDROOT
BRANCH   1  13
ATOM      7  C3  UNL     1       8.302  11.784  28.500  0.00  0.00    +0.060 A 
ATOM      8  C4  UNL     1       7.871  11.080  29.653  0.00  0.00    +0.017 A 
ATOM      9  C5  UNL     1       7.382   9.768  29.554  0.00  0.00    +0.027 A 
ATOM     10  C6  UNL     1       7.336   9.179  28.293  0.00  0.00    +0.047 A 
ATOM     11  N1  UNL     1       6.901   7.944  27.997  0.00  0.00    -0.360 N 
ATOM     12  C7  UNL     1       7.042   7.807  26.660  0.00  0.00    +0.093 A 
ATOM     13  C8  UNL     1       7.573   8.970  26.098  0.00  0.00    +0.027 A 
ATOM     14  C25 UNL     1       7.755   9.841  27.168  0.00  0.00    +0.010 A 
ATOM     15  C26 UNL     1       8.239  11.152  27.235  0.00  0.00    +0.025 A 
ATOM     16  H6  UNL     1       6.533   7.228  28.662  0.00  0.00    +0.165 HD
BRANCH   7  17
ATOM     17  C2  UNL     1       8.812  13.168  28.621  0.00  0.00    +0.339 C 
ATOM     18  O2  UNL     1       8.576  13.842  29.663  0.00  0.00    -0.245 OA
BRANCH  17  20
ATOM     19  C1  UNL     1      10.884  14.205  27.749  0.00  0.00    +0.280 C 
ATOM     20  O1  UNL     1       9.554  13.731  27.577  0.00  0.00    -0.464 OA
ENDBRANCH  17  20
ENDBRANCH   7  17
ENDBRANCH   1  13
BRANCH   5  21
ATOM     21  C13 UNL     1       9.591   7.295  21.944  0.00  0.00    +0.021 A 
ATOM     22  C14 UNL     1      10.115   7.516  20.640  0.00  0.00    +0.123 A 
ATOM     23  N3  UNL     1      10.756   6.518  19.964  0.00  0.00    -0.237 NA
ATOM     24  C15 UNL     1      10.901   5.307  20.550  0.00  0.00    +0.139 A 
ATOM     25  N4  UNL     1      11.467   4.225  19.992  0.00  0.00    -0.345 N 
ATOM     26  C16 UNL     1      11.349   3.238  20.910  0.00  0.00    +0.093 A 
ATOM     27  C17 UNL     1      10.713   3.709  22.060  0.00  0.00    +0.010 A 
ATOM     28  C23 UNL     1      10.427   5.040  21.803  0.00  0.00    +0.027 A 
ATOM     29  C24 UNL     1       9.739   6.013  22.526  0.00  0.00    +0.023 A 
ATOM     30  H11 UNL     1      11.895   4.154  19.043  0.00  0.00    +0.167 HD
BRANCH  27  31
ATOM     31  C18 UNL     1      10.419   2.923  23.278  0.00  0.00    +0.002 A 
ATOM     32  C19 UNL     1      10.987   3.263  24.515  0.00  0.00    +0.011 A 
ATOM     33  C20 UNL     1      10.704   2.500  25.648  0.00  0.00    +0.020 A 
ATOM     34  C21 UNL     1       9.862   1.393  25.535  0.00  0.00    +0.111 A 
ATOM     35  N5  UNL     1       9.330   1.063  24.328  0.00  0.00    -0.263 NA
ATOM     36  C22 UNL     1       9.591   1.791  23.209  0.00  0.00    +0.119 A 
ENDBRANCH  27  31
ENDBRANCH   5  21
TORSDOF 5
ENDMDL
MODEL 5
REMARK VINA RESULT:    -7.835      7.305     12.662
REMARK INTER + INTRA:         -10.936
REMARK INTER:                  -9.731
REMARK INTRA:                  -1.206
REMARK UNBOUND:                -0.811
REMARK  Name = /home/qwerty/github/datacon2025hack/step_04_hit_selection/docking/ligands/lig_331.pdb
REMARK  6 active torsions:
REMARK  status: ('A' for Active; 'I' for Inactive)
REMARK    1  A    between atoms: C1_1  and  O1_2
REMARK    2  A    between atoms: O1_2  and  C2_3
REMARK    3  A    between atoms: C2_3  and  C3_5
REMARK    4  A    between atoms: C8_11  and  C9_12
REMARK    5  A    between atoms: C12_16  and  C13_17
REMARK    6  A    between atoms: C17_23  and  C18_24
REMARK                            x       y       z     vdW  Elec       q    Type
REMARK                         _______ _______ _______ _____ _____    ______ ____
ROOT
ATOM      1  C9  UNL     1       8.523   7.165  28.526  0.00  0.00    +0.092 A 
ATOM      2  C10 UNL     1       9.266   6.331  29.373  0.00  0.00    +0.139 A 
ATOM      3  N2  UNL     1       9.708   5.131  28.915  0.00  0.00    -0.259 NA
ATOM      4  C11 UNL     1       9.441   4.712  27.651  0.00  0.00    +0.139 A 
ATOM      5  C12 UNL     1       8.688   5.531  26.795  0.00  0.00    +0.091 A 
ATOM      6  N6  UNL     1       8.262   6.735  27.262  0.00  0.00    -0.244 NA
ENDROOT
BRANCH   1  13
ATOM      7  C3  UNL     1       9.921  11.528  27.773  0.00  0.00    +0.060 A 
ATOM      8  C4  UNL     1       9.111  12.463  28.467  0.00  0.00    +0.017 A 
ATOM      9  C5  UNL     1       8.030  12.033  29.254  0.00  0.00    +0.027 A 
ATOM     10  C6  UNL     1       7.780  10.666  29.334  0.00  0.00    +0.047 A 
ATOM     11  N1  UNL     1       6.799  10.066  30.026  0.00  0.00    -0.360 N 
ATOM     12  C7  UNL     1       6.945   8.740  29.811  0.00  0.00    +0.093 A 
ATOM     13  C8  UNL     1       8.032   8.492  28.971  0.00  0.00    +0.027 A 
ATOM     14  C25 UNL     1       8.556   9.746  28.675  0.00  0.00    +0.010 A 
ATOM     15  C26 UNL     1       9.635  10.146  27.878  0.00  0.00    +0.025 A 
ATOM     16  H6  UNL     1       6.072  10.526  30.617  0.00  0.00    +0.165 HD
BRANCH   7  17
ATOM     17  C2  UNL     1      11.055  11.997  26.946  0.00  0.00    +0.339 C 
ATOM     18  O2  UNL     1      11.475  11.291  25.986  0.00  0.00    -0.245 OA
BRANCH  17  20
ATOM     19  C1  UNL     1      12.957  13.322  27.815  0.00  0.00    +0.280 C 
ATOM     20  O1  UNL     1      11.664  13.224  27.230  0.00  0.00    -0.464 OA
ENDBRANCH  17  20
ENDBRANCH   7  17
ENDBRANCH   1  13
BRANCH   5  21
ATOM     21  C13 UNL     1       8.362   5.133  25.401  0.00  0.00    +0.021 A 
ATOM     22  C14 UNL     1       7.925   3.808  25.127  0.00  0.00    +0.123 A 
ATOM     23  N3  UNL     1       7.648   3.411  23.849  0.00  0.00    -0.237 NA
ATOM     24  C15 UNL     1       7.781   4.299  22.836  0.00  0.00    +0.139 A 
ATOM     25  N4  UNL     1       7.587   4.041  21.534  0.00  0.00    -0.345 N 
ATOM     26  C16 UNL     1       7.879   5.192  20.887  0.00  0.00    +0.093 A 
ATOM     27  C17 UNL     1       8.250   6.186  21.794  0.00  0.00    +0.010 A 
ATOM     28  C23 UNL     1       8.187   5.587  23.042  0.00  0.00    +0.027 A 
ATOM     29  C24 UNL     1       8.511   6.036  24.321  0.00  0.00    +0.023 A 
ATOM     30  H11 UNL     1       7.288   3.136  21.106  0.00  0.00    +0.167 HD
BRANCH  27  31
ATOM     31  C18 UNL     1       8.627   7.576  21.459  0.00  0.00    +0.002 A 
ATOM     32  C19 UNL     1       7.891   8.665  21.949  0.00  0.00    +0.011 A 
ATOM     33  C20 UNL     1       8.260   9.968  21.610  0.00  0.00    +0.020 A 
ATOM     34  C21 UNL     1       9.357  10.173  20.773  0.00  0.00    +0.111 A 
ATOM     35  N5  UNL     1      10.053   9.109  20.291  0.00  0.00    -0.263 NA
ATOM     36  C22 UNL     1       9.714   7.831  20.607  0.00  0.00    +0.119 A 
ENDBRANCH  27  31
ENDBRANCH   5  21
TORSDOF 5
ENDMDL
MODEL 6
REMARK VINA RESULT:    -7.779      7.981     12.257
REMARK INTER + INTRA:         -10.864
REMARK INTER:                 -10.078
REMARK INTRA:                  -0.785
REMARK UNBOUND:                -0.811
REMARK  Name = /home/qwerty/github/datacon2025hack/step_04_hit_selection/docking/ligands/lig_331.pdb
REMARK  6 active torsions:
REMARK  status: ('A' for Active; 'I' for Inactive)
REMARK    1  A    between atoms: C1_1  and  O1_2
REMARK    2  A    between atoms: O1_2  and  C2_3
REMARK    3  A    between atoms: C2_3  and  C3_5
REMARK    4  A    between atoms: C8_11  and  C9_12
REMARK    5  A    between atoms: C12_16  and  C13_17
REMARK    6  A    between atoms: C17_23  and  C18_24
REMARK                            x       y       z     vdW  Elec       q    Type
REMARK                         _______ _______ _______ _____ _____    ______ ____
ROOT
ATOM      1  C9  UNL     1      21.772   7.009  35.291  0.00  0.00    +0.092 A 
ATOM      2  C10 UNL     1      22.983   7.639  34.968  0.00  0.00    +0.139 A 
ATOM      3  N2  UNL     1      23.782   7.106  34.007  0.00  0.00    -0.259 NA
ATOM      4  C11 UNL     1      23.440   5.968  33.351  0.00  0.00    +0.139 A 
ATOM      5  C12 UNL     1      22.236   5.319  33.670  0.00  0.00    +0.091 A 
ATOM      6  N6  UNL     1      21.440   5.870  34.626  0.00  0.00    -0.244 NA
ENDROOT
BRANCH   1  13
ATOM      7  C3  UNL     1      19.424  10.992  35.702  0.00  0.00    +0.060 A 
ATOM      8  C4  UNL     1      18.696  11.045  36.918  0.00  0.00    +0.017 A 
ATOM      9  C5  UNL     1      18.728   9.972  37.824  0.00  0.00    +0.027 A 
ATOM     10  C6  UNL     1      19.497   8.859  37.494  0.00  0.00    +0.047 A 
ATOM     11  N1  UNL     1      19.650   7.743  38.222  0.00  0.00    -0.360 N 
ATOM     12  C7  UNL     1      20.478   6.943  37.514  0.00  0.00    +0.093 A 
ATOM     13  C8  UNL     1      20.857   7.559  36.319  0.00  0.00    +0.027 A 
ATOM     14  C25 UNL     1      20.213   8.793  36.326  0.00  0.00    +0.010 A 
ATOM     15  C26 UNL     1      20.194   9.843  35.402  0.00  0.00    +0.025 A 
ATOM     16  H6  UNL     1      19.223   7.531  39.151  0.00  0.00    +0.165 HD
BRANCH   7  17
ATOM     17  C2  UNL     1      19.377  12.130  34.758  0.00  0.00    +0.339 C 
ATOM     18  O2  UNL     1      20.000  12.070  33.661  0.00  0.00    -0.245 OA
BRANCH  17  20
ATOM     19  C1  UNL     1      17.387  13.577  34.486  0.00  0.00    +0.280 C 
ATOM     20  O1  UNL     1      18.642  13.275  35.083  0.00  0.00    -0.464 OA
ENDBRANCH  17  20
ENDBRANCH   7  17
ENDBRANCH   1  13
BRANCH   5  21
ATOM     21  C13 UNL     1      21.802   4.072  32.990  0.00  0.00    +0.021 A 
ATOM     22  C14 UNL     1      21.384   2.953  33.762  0.00  0.00    +0.123 A 
ATOM     23  N3  UNL     1      21.009   1.786  33.159  0.00  0.00    -0.237 NA
ATOM     24  C15 UNL     1      21.026   1.702  31.809  0.00  0.00    +0.139 A 
ATOM     25  N4  UNL     1      20.728   0.613  31.084  0.00  0.00    -0.345 N 
ATOM     26  C16 UNL     1      20.927   0.968  29.794  0.00  0.00    +0.093 A 
ATOM     27  C17 UNL     1      21.344   2.297  29.708  0.00  0.00    +0.010 A 
ATOM     28  C23 UNL     1      21.408   2.748  31.017  0.00  0.00    +0.027 A 
ATOM     29  C24 UNL     1      21.829   3.951  31.580  0.00  0.00    +0.023 A 
ATOM     30  H11 UNL     1      20.420  -0.319  31.441  0.00  0.00    +0.167 HD
BRANCH  27  31
ATOM     31  C18 UNL     1      21.648   3.037  28.464  0.00  0.00    +0.002 A 
ATOM     32  C19 UNL     1      22.516   2.507  27.498  0.00  0.00    +0.011 A 
ATOM     33  C20 UNL     1      22.796   3.229  26.337  0.00  0.00    +0.020 A 
ATOM     34  C21 UNL     1      22.213   4.483  26.154  0.00  0.00    +0.111 A 
ATOM     35  N5  UNL     1      21.386   4.994  27.104  0.00  0.00    -0.263 NA
ATOM     36  C22 UNL     1      21.098   4.310  28.243  0.00  0.00    +0.119 A 
ENDBRANCH  27  31
ENDBRANCH   5  21
TORSDOF 5
ENDMDL
MODEL 7
REMARK VINA RESULT:    -7.580      8.191     12.134
REMARK INTER + INTRA:         -10.606
REMARK INTER:                  -9.884
REMARK INTRA:                  -0.722
REMARK UNBOUND:                -0.811
REMARK  Name = /home/qwerty/github/datacon2025hack/step_04_hit_selection/docking/ligands/lig_331.pdb
REMARK  6 active torsions:
REMARK  status: ('A' for Active; 'I' for Inactive)
REMARK    1  A    between atoms: C1_1  and  O1_2
REMARK    2  A    between atoms: O1_2  and  C2_3
REMARK    3  A    between atoms: C2_3  and  C3_5
REMARK    4  A    between atoms: C8_11  and  C9_12
REMARK    5  A    between atoms: C12_16  and  C13_17
REMARK    6  A    between atoms: C17_23  and  C18_24
REMARK                            x       y       z     vdW  Elec       q    Type
REMARK                         _______ _______ _______ _____ _____    ______ ____
ROOT
ATOM      1  C9  UNL     1      22.077   4.378  33.350  0.00  0.00    +0.092 A 
ATOM      2  C10 UNL     1      23.286   4.760  32.750  0.00  0.00    +0.139 A 
ATOM      3  N2  UNL     1      23.822   5.975  33.034  0.00  0.00    -0.259 NA
ATOM      4  C11 UNL     1      23.211   6.839  33.885  0.00  0.00    +0.139 A 
ATOM      5  C12 UNL     1      21.995   6.476  34.486  0.00  0.00    +0.091 A 
ATOM      6  N6  UNL     1      21.475   5.251  34.202  0.00  0.00    -0.244 NA
ENDROOT
BRANCH   1  13
ATOM      7  C3  UNL     1      21.627   1.741  29.556  0.00  0.00    +0.060 A 
ATOM      8  C4  UNL     1      20.911   0.548  29.832  0.00  0.00    +0.017 A 
ATOM      9  C5  UNL     1      20.443   0.273  31.127  0.00  0.00    +0.027 A 
ATOM     10  C6  UNL     1      20.699   1.206  32.129  0.00  0.00    +0.047 A 
ATOM     11  N1  UNL     1      20.339   1.121  33.418  0.00  0.00    -0.360 N 
ATOM     12  C7  UNL     1      20.798   2.245  34.011  0.00  0.00    +0.093 A 
ATOM     13  C8  UNL     1      21.459   3.056  33.087  0.00  0.00    +0.027 A 
ATOM     14  C25 UNL     1      21.384   2.368  31.880  0.00  0.00    +0.010 A 
ATOM     15  C26 UNL     1      21.870   2.664  30.601  0.00  0.00    +0.025 A 
ATOM     16  H6  UNL     1      19.807   0.348  33.876  0.00  0.00    +0.165 HD
BRANCH   7  17
ATOM     17  C2  UNL     1      22.117   2.014  28.187  0.00  0.00    +0.339 C 
ATOM     18  O2  UNL     1      23.350   1.937  27.928  0.00  0.00    -0.245 OA
BRANCH  17  20
ATOM     19  C1  UNL     1      21.605   2.559  25.827  0.00  0.00    +0.280 C 
ATOM     20  O1  UNL     1      21.211   2.361  27.179  0.00  0.00    -0.464 OA
ENDBRANCH  17  20
ENDBRANCH   7  17
ENDBRANCH   1  13
BRANCH   5  21
ATOM     21  C13 UNL     1      21.276   7.372  35.426  0.00  0.00    +0.021 A 
ATOM     22  C14 UNL     1      21.188   7.030  36.804  0.00  0.00    +0.123 A 
ATOM     23  N3  UNL     1      20.506   7.824  37.682  0.00  0.00    -0.237 NA
ATOM     24  C15 UNL     1      19.917   8.956  37.232  0.00  0.00    +0.139 A 
ATOM     25  N4  UNL     1      19.181   9.805  37.965  0.00  0.00    -0.345 N 
ATOM     26  C16 UNL     1      18.756  10.757  37.103  0.00  0.00    +0.093 A 
ATOM     27  C17 UNL     1      19.238  10.507  35.818  0.00  0.00    +0.010 A 
ATOM     28  C23 UNL     1      19.977   9.340  35.922  0.00  0.00    +0.027 A 
ATOM     29  C24 UNL     1      20.634   8.552  34.978  0.00  0.00    +0.023 A 
ATOM     30  H11 UNL     1      18.969   9.739  38.986  0.00  0.00    +0.167 HD
BRANCH  27  31
ATOM     31  C18 UNL     1      18.992  11.336  34.618  0.00  0.00    +0.002 A 
ATOM     32  C19 UNL     1      17.880  11.105  33.793  0.00  0.00    +0.011 A 
ATOM     33  C20 UNL     1      17.674  11.893  32.660  0.00  0.00    +0.020 A 
ATOM     34  C21 UNL     1      18.588  12.901  32.352  0.00  0.00    +0.111 A 
ATOM     35  N5  UNL     1      19.670  13.105  33.149  0.00  0.00    -0.263 NA
ATOM     36  C22 UNL     1      19.893  12.351  34.259  0.00  0.00    +0.119 A 
ENDBRANCH  27  31
ENDBRANCH   5  21
TORSDOF 5
ENDMDL
MODEL 8
REMARK VINA RESULT:    -7.522      5.078      8.721
REMARK INTER + INTRA:         -10.532
REMARK INTER:                  -9.489
REMARK INTRA:                  -1.043
REMARK UNBOUND:                -0.811
REMARK  Name = /home/qwerty/github/datacon2025hack/step_04_hit_selection/docking/ligands/lig_331.pdb
REMARK  6 active torsions:
REMARK  status: ('A' for Active; 'I' for Inactive)
REMARK    1  A    between atoms: C1_1  and  O1_2
REMARK    2  A    between atoms: O1_2  and  C2_3
REMARK    3  A    between atoms: C2_3  and  C3_5
REMARK    4  A    between atoms: C8_11  and  C9_12
REMARK    5  A    between atoms: C12_16  and  C13_17
REMARK    6  A    between atoms: C17_23  and  C18_24
REMARK                            x       y       z     vdW  Elec       q    Type
REMARK                         _______ _______ _______ _____ _____    ______ ____
ROOT
ATOM      1  C9  UNL     1       8.770  10.130  26.043  0.00  0.00    +0.092 A 
ATOM      2  C10 UNL     1       8.402   9.081  26.898  0.00  0.00    +0.139 A 
ATOM      3  N2  UNL     1       8.743   9.135  28.212  0.00  0.00    -0.259 NA
ATOM      4  C11 UNL     1       9.442  10.183  28.721  0.00  0.00    +0.139 A 
ATOM      5  C12 UNL     1       9.827  11.234  27.875  0.00  0.00    +0.091 A 
ATOM      6  N6  UNL     1       9.469  11.173  26.564  0.00  0.00    -0.244 NA
ENDROOT
BRANCH   1  13
ATOM      7  C3  UNL     1      11.225   9.887  22.110  0.00  0.00    +0.060 A 
ATOM      8  C4  UNL     1      10.388   9.953  20.967  0.00  0.00    +0.017 A 
ATOM      9  C5  UNL     1       8.994  10.065  21.102  0.00  0.00    +0.027 A 
ATOM     10  C6  UNL     1       8.462  10.113  22.387  0.00  0.00    +0.047 A 
ATOM     11  N1  UNL     1       7.165  10.214  22.718  0.00  0.00    -0.360 N 
ATOM     12  C7  UNL     1       7.122  10.224  24.068  0.00  0.00    +0.093 A 
ATOM     13  C8  UNL     1       8.407  10.127  24.605  0.00  0.00    +0.027 A 
ATOM     14  C25 UNL     1       9.256  10.056  23.504  0.00  0.00    +0.010 A 
ATOM     15  C26 UNL     1      10.646   9.937  23.401  0.00  0.00    +0.025 A 
ATOM     16  H6  UNL     1       6.351  10.278  22.067  0.00  0.00    +0.165 HD
BRANCH   7  17
ATOM     17  C2  UNL     1      12.691   9.766  21.951  0.00  0.00    +0.339 C 
ATOM     18  O2  UNL     1      13.261  10.255  20.936  0.00  0.00    -0.245 OA
BRANCH  17  20
ATOM     19  C1  UNL     1      14.818   8.778  22.745  0.00  0.00    +0.280 C 
ATOM     20  O1  UNL     1      13.446   9.106  22.927  0.00  0.00    -0.464 OA
ENDBRANCH  17  20
ENDBRANCH   7  17
ENDBRANCH   1  13
BRANCH   5  21
ATOM     21  C13 UNL     1      10.592  12.409  28.367  0.00  0.00    +0.021 A 
ATOM     22  C14 UNL     1      11.062  13.385  27.445  0.00  0.00    +0.123 A 
ATOM     23  N3  UNL     1      11.792  14.457  27.871  0.00  0.00    -0.237 NA
ATOM     24  C15 UNL     1      12.061  14.595  29.190  0.00  0.00    +0.139 A 
ATOM     25  N4  UNL     1      12.799  15.568  29.746  0.00  0.00    -0.345 N 
ATOM     26  C16 UNL     1      12.842  15.283  31.068  0.00  0.00    +0.093 A 
ATOM     27  C17 UNL     1      12.115  14.125  31.345  0.00  0.00    +0.010 A 
ATOM     28  C23 UNL     1      11.626  13.695  30.122  0.00  0.00    +0.027 A 
ATOM     29  C24 UNL     1      10.903  12.567  29.739  0.00  0.00    +0.023 A 
ATOM     30  H11 UNL     1      13.257  16.371  29.259  0.00  0.00    +0.167 HD
BRANCH  27  31
ATOM     31  C18 UNL     1      11.927  13.511  32.677  0.00  0.00    +0.002 A 
ATOM     32  C19 UNL     1      11.034  14.062  33.610  0.00  0.00    +0.011 A 
ATOM     33  C20 UNL     1      10.882  13.472  34.866  0.00  0.00    +0.020 A 
ATOM     34  C21 UNL     1      11.632  12.339  35.185  0.00  0.00    +0.111 A 
ATOM     35  N5  UNL     1      12.505  11.824  34.279  0.00  0.00    -0.263 NA
ATOM     36  C22 UNL     1      12.671  12.381  33.050  0.00  0.00    +0.119 A 
ENDBRANCH  27  31
ENDBRANCH   5  21
TORSDOF 5
ENDMDL
MODEL 9
REMARK VINA RESULT:    -7.382     12.966     17.016
REMARK INTER + INTRA:         -10.351
REMARK INTER:                  -9.616
REMARK INTRA:                  -0.735
REMARK UNBOUND:                -0.811
REMARK  Name = /home/qwerty/github/datacon2025hack/step_04_hit_selection/docking/ligands/lig_331.pdb
REMARK  6 active torsions:
REMARK  status: ('A' for Active; 'I' for Inactive)
REMARK    1  A    between atoms: C1_1  and  O1_2
REMARK    2  A    between atoms: O1_2  and  C2_3
REMARK    3  A    between atoms: C2_3  and  C3_5
REMARK    4  A    between atoms: C8_11  and  C9_12
REMARK    5  A    between atoms: C12_16  and  C13_17
REMARK    6  A    between atoms: C17_23  and  C18_24
REMARK                            x       y       z     vdW  Elec       q    Type
REMARK                         _______ _______ _______ _____ _____    ______ ____
ROOT
ATOM      1  C9  UNL     1      15.563   1.590  21.359  0.00  0.00    +0.092 A 
ATOM      2  C10 UNL     1      16.508   2.119  20.467  0.00  0.00    +0.139 A 
ATOM      3  N2  UNL     1      16.185   3.199  19.710  0.00  0.00    -0.259 NA
ATOM      4  C11 UNL     1      14.960   3.780  19.788  0.00  0.00    +0.139 A 
ATOM      5  C12 UNL     1      14.000   3.255  20.667  0.00  0.00    +0.091 A 
ATOM      6  N6  UNL     1      14.340   2.181  21.429  0.00  0.00    -0.244 NA
ENDROOT
BRANCH   1  13
ATOM      7  C3  UNL     1      18.734   0.778  24.652  0.00  0.00    +0.060 A 
ATOM      8  C4  UNL     1      18.626  -0.540  25.166  0.00  0.00    +0.017 A 
ATOM      9  C5  UNL     1      17.643  -1.421  24.687  0.00  0.00    +0.027 A 
ATOM     10  C6  UNL     1      16.781  -0.964  23.694  0.00  0.00    +0.047 A 
ATOM     11  N1  UNL     1      15.783  -1.650  23.116  0.00  0.00    -0.360 N 
ATOM     12  C7  UNL     1      15.223  -0.812  22.216  0.00  0.00    +0.093 A 
ATOM     13  C8  UNL     1      15.872   0.424  22.221  0.00  0.00    +0.027 A 
ATOM     14  C25 UNL     1      16.873   0.305  23.180  0.00  0.00    +0.010 A 
ATOM     15  C26 UNL     1      17.838   1.207  23.643  0.00  0.00    +0.025 A 
ATOM     16  H6  UNL     1      15.496  -2.634  23.315  0.00  0.00    +0.165 HD
BRANCH   7  17
ATOM     17  C2  UNL     1      19.773   1.695  25.169  0.00  0.00    +0.339 C 
ATOM     18  O2  UNL     1      19.840   2.882  24.745  0.00  0.00    -0.245 OA
BRANCH  17  20
ATOM     19  C1  UNL     1      21.671   2.089  26.710  0.00  0.00    +0.280 C 
ATOM     20  O1  UNL     1      20.686   1.243  26.129  0.00  0.00    -0.464 OA
ENDBRANCH  17  20
ENDBRANCH   7  17
ENDBRANCH   1  13
BRANCH   5  21
ATOM     21  C13 UNL     1      12.642   3.842  20.803  0.00  0.00    +0.021 A 
ATOM     22  C14 UNL     1      11.510   2.990  20.924  0.00  0.00    +0.123 A 
ATOM     23  N3  UNL     1      10.250   3.507  21.020  0.00  0.00    -0.237 NA
ATOM     24  C15 UNL     1      10.082   4.850  21.010  0.00  0.00    +0.139 A 
ATOM     25  N4  UNL     1       8.906   5.496  21.052  0.00  0.00    -0.345 N 
ATOM     26  C16 UNL     1       9.211   6.811  20.970  0.00  0.00    +0.093 A 
ATOM     27  C17 UNL     1      10.592   6.992  20.886  0.00  0.00    +0.010 A 
ATOM     28  C23 UNL     1      11.133   5.717  20.906  0.00  0.00    +0.027 A 
ATOM     29  C24 UNL     1      12.437   5.243  20.775  0.00  0.00    +0.023 A 
ATOM     30  H11 UNL     1       7.954   5.073  21.120  0.00  0.00    +0.167 HD
BRANCH  27  31
ATOM     31  C18 UNL     1      11.298   8.289  20.794  0.00  0.00    +0.002 A 
ATOM     32  C19 UNL     1      10.908   9.263  19.862  0.00  0.00    +0.011 A 
ATOM     33  C20 UNL     1      11.596  10.474  19.787  0.00  0.00    +0.020 A 
ATOM     34  C21 UNL     1      12.678  10.701  20.638  0.00  0.00    +0.111 A 
ATOM     35  N5  UNL     1      13.057   9.744  21.526  0.00  0.00    -0.263 NA
ATOM     36  C22 UNL     1      12.403   8.556  21.618  0.00  0.00    +0.119 A 
ENDBRANCH  27  31
ENDBRANCH   5  21
TORSDOF 5
ENDMDL
