REMARK  Name = /home/qwerty/github/datacon2025hack/step_04_hit_selection/docking/ligands/lig_791.pdb
REMARK  7 active torsions:
REMARK  status: ('A' for Active; 'I' for Inactive)
REMARK    1  A    between atoms: C1_1  and  C2_2
REMARK    2  A    between atoms: C2_2  and  C3_3
REMARK    3  A    between atoms: C3_3  and  C4_4
REMARK    4  A    between atoms: C3_3  and  C5_5
REMARK    5  A    between atoms: C5_5  and  N1_6
REMARK    6  A    between atoms: C8_9  and  N2_10
REMARK    7  A    between atoms: C9_11  and  C10_13
REMARK                            x       y       z     vdW  Elec       q    Type
REMARK                         _______ _______ _______ _____ _____    ______ ____
ROOT
ATOM      1  N2  UNL     1       0.610  -0.279  -0.028  0.00  0.00    -0.305 N 
ATOM      2  C9  UNL     1       1.604   0.343   0.802  0.00  0.00    +0.280 C 
ATOM      3  O1  UNL     1       1.251   1.034   1.795  0.00  0.00    -0.267 OA
ATOM      4  H17 UNL     1       0.915  -0.906  -0.804  0.00  0.00    +0.149 HD
ENDROOT
BRANCH   2   5
ATOM      5  C10 UNL     1       3.043   0.194   0.520  0.00  0.00    +0.190 A 
ATOM      6  C11 UNL     1       3.618  -0.511  -0.532  0.00  0.00    +0.058 A 
ATOM      7  C12 UNL     1       4.975  -0.344  -0.369  0.00  0.00    -0.006 A 
ATOM      8  C13 UNL     1       5.147   0.412   0.764  0.00  0.00    +0.109 A 
ATOM      9  O2  UNL     1       3.982   0.734   1.272  0.00  0.00    -0.455 OA
ATOM     10  C14 UNL     1       6.485   0.831   1.292  0.00  0.00    +0.075 C 
ATOM     11  C15 UNL     1       7.601  -0.056   0.705  0.00  0.00    +0.008 C 
ATOM     12  C16 UNL     1       7.428  -0.262  -0.815  0.00  0.00    +0.005 C 
ATOM     13  C17 UNL     1       6.096  -0.962  -1.147  0.00  0.00    +0.038 C 
ENDBRANCH   2   5
BRANCH   1  17
ATOM     14  N1  UNL     1      -2.959  -0.281  -0.849  0.00  0.00    -0.300 NA
ATOM     15  C6  UNL     1      -2.579   1.141  -0.874  0.00  0.00    +0.086 C 
ATOM     16  C7  UNL     1      -1.297   1.305  -0.060  0.00  0.00    +0.039 C 
ATOM     17  C8  UNL     1      -0.824  -0.113   0.237  0.00  0.00    +0.088 C 
ATOM     18  C18 UNL     1      -1.685  -0.988  -0.667  0.00  0.00    +0.106 C 
BRANCH  14  19
ATOM     19  C5  UNL     1      -3.929  -0.580   0.238  0.00  0.00    +0.087 C 
BRANCH  19  20
ATOM     20  C3  UNL     1      -5.327  -0.865  -0.353  0.00  0.00    -0.000 C 
ATOM     21  C4  UNL     1      -6.263  -1.452   0.714  0.00  0.00    +0.009 C 
BRANCH  20  23
ATOM     22  C1  UNL     1      -6.389   1.492  -0.132  0.00  0.00    +0.004 C 
ATOM     23  C2  UNL     1      -5.959   0.357  -1.066  0.00  0.00    +0.001 C 
ENDBRANCH  20  23
ENDBRANCH  19  20
ENDBRANCH  14  19
ENDBRANCH   1  17
TORSDOF 5
