REMARK  Name = /home/qwerty/github/datacon2025hack/step_04_hit_selection/docking/ligands/lig_159.pdb
REMARK  6 active torsions:
REMARK  status: ('A' for Active; 'I' for Inactive)
REMARK    1  A    between atoms: C1_1  and  O1_2
REMARK    2  A    between atoms: O1_2  and  C2_3
REMARK    3  A    between atoms: C5_6  and  C6_7
REMARK    4  A    between atoms: N1_9  and  C7_10
REMARK    5  A    between atoms: C9_12  and  C10_13
REMARK    6  A    between atoms: C13_16  and  C14_17
REMARK                            x       y       z     vdW  Elec       q    Type
REMARK                         _______ _______ _______ _____ _____    ______ ____
ROOT
ATOM      1  C6  UNL     1       1.317   0.919  -0.106  0.00  0.00    +0.249 C 
ATOM      2  O2  UNL     1       0.652   1.584  -0.946  0.00  0.00    -0.270 OA
ATOM      3  N1  UNL     1       0.712   0.533   1.139  0.00  0.00    -0.267 N 
ATOM      4  H6  UNL     1       1.328   0.366   1.965  0.00  0.00    +0.157 HD
ENDROOT
BRANCH   1   8
ATOM      5  C2  UNL     1       5.423  -0.041  -0.985  0.00  0.00    +0.120 A 
ATOM      6  C3  UNL     1       4.773   0.996  -1.662  0.00  0.00    +0.046 A 
ATOM      7  C4  UNL     1       3.441   1.307  -1.377  0.00  0.00    +0.016 A 
ATOM      8  C5  UNL     1       2.733   0.586  -0.399  0.00  0.00    +0.037 A 
ATOM      9  C15 UNL     1       3.384  -0.463   0.275  0.00  0.00    +0.016 A 
ATOM     10  C16 UNL     1       4.717  -0.773  -0.013  0.00  0.00    +0.046 A 
BRANCH   5  12
ATOM     11  C1  UNL     1       7.543  -1.336  -0.700  0.00  0.00    +0.277 C 
ATOM     12  O1  UNL     1       6.761  -0.312  -1.308  0.00  0.00    -0.495 OA
ENDBRANCH   5  12
ENDBRANCH   1   8
BRANCH   3  13
ATOM     13  C7  UNL     1      -0.706   0.447   1.347  0.00  0.00    +0.121 A 
ATOM     14  C8  UNL     1      -1.687   0.377   0.376  0.00  0.00    +0.074 A 
ATOM     15  C9  UNL     1      -2.858   0.250   1.105  0.00  0.00    +0.101 A 
ATOM     16  N2  UNL     1      -2.581   0.235   2.426  0.00  0.00    -0.172 NA
ATOM     17  N3  UNL     1      -1.271   0.350   2.563  0.00  0.00    -0.263 N 
ATOM     18  H13 UNL     1      -0.774   0.359   3.481  0.00  0.00    +0.190 HD
BRANCH  15  19
ATOM     19  C10 UNL     1      -4.216   0.129   0.557  0.00  0.00    +0.040 A 
ATOM     20  C11 UNL     1      -4.564   0.126  -0.791  0.00  0.00    +0.018 A 
ATOM     21  C12 UNL     1      -5.940  -0.014  -1.006  0.00  0.00    +0.011 A 
ATOM     22  C13 UNL     1      -6.673  -0.103   0.171  0.00  0.00    -0.013 A 
ATOM     23  C14 UNL     1      -8.143  -0.335   0.266  0.00  0.00    +0.051 C 
ATOM     24  S1  UNL     1      -5.615  -0.044   1.477  0.00  0.00    -0.092 S 
ENDBRANCH  15  19
ENDBRANCH   3  13
TORSDOF 4
