MODEL 1
REMARK VINA RESULT:    -5.499      0.000      0.000
REMARK INTER + INTRA:          -8.142
REMARK INTER:                  -7.106
REMARK INTRA:                  -1.036
REMARK UNBOUND:                -1.036
REMARK  Name = /home/qwerty/github/datacon2025hack/step_04_hit_selection/docking/ligands/lig_256.pdb
REMARK  9 active torsions:
REMARK  status: ('A' for Active; 'I' for Inactive)
REMARK    1  A    between atoms: C1_1  and  C2_2
REMARK    2  A    between atoms: C4_4  and  C5_5
REMARK    3  A    between atoms: C8_10  and  C9_11
REMARK    4  A    between atoms: C9_11  and  N2_12
REMARK    5  A    between atoms: N2_12  and  C10_13
REMARK    6  A    between atoms: N2_12  and  C11_14
REMARK    7  A    between atoms: C11_14  and  C12_15
REMARK    8  A    between atoms: C14_18  and  C15_19
REMARK    9  A    between atoms: C17_22  and  C18_23
REMARK                            x       y       z     vdW  Elec       q    Type
REMARK                         _______ _______ _______ _____ _____    ______ ____
ROOT
ATOM      1  C5  UNL     1       9.616   7.770  22.884  0.00  0.00    +0.250 C 
ATOM      2  O1  UNL     1      10.760   7.727  23.413  0.00  0.00    -0.270 OA
ATOM      3  N1  UNL     1       8.771   6.608  22.921  0.00  0.00    -0.297 N 
ATOM      4  C6  UNL     1       7.793   6.292  21.894  0.00  0.00    +0.108 C 
ATOM      5  C7  UNL     1       7.445   4.823  22.102  0.00  0.00    +0.025 C 
ATOM      6  C8  UNL     1       7.885   4.491  23.533  0.00  0.00    +0.022 C 
ATOM      7  C16 UNL     1       8.991   5.506  23.840  0.00  0.00    +0.113 C 
ENDROOT
BRANCH   1  11
ATOM      8  C1  UNL     1       7.178  12.009  21.723  0.00  0.00    +0.086 C 
ATOM      9  C2  UNL     1       8.121  10.853  21.696  0.00  0.00    +0.103 A 
ATOM     10  C3  UNL     1       8.192   9.853  22.647  0.00  0.00    +0.057 A 
ATOM     11  C4  UNL     1       9.191   9.006  22.210  0.00  0.00    +0.078 A 
ATOM     12  C17 UNL     1       9.636   9.522  21.001  0.00  0.00    +0.114 A 
ATOM     13  C18 UNL     1      10.661   8.936  20.084  0.00  0.00    +0.087 C 
ATOM     14  O2  UNL     1       8.983  10.629  20.731  0.00  0.00    -0.464 OA
ENDBRANCH   1  11
BRANCH   6  15
ATOM     15  C9  UNL     1       8.384   3.033  23.731  0.00  0.00    +0.089 C 
BRANCH  15  16
ATOM     16  N2  UNL     1       9.822   2.805  23.450  0.00  0.00    -0.299 NA
ATOM     17  C10 UNL     1      10.534   2.132  24.549  0.00  0.00    +0.105 C 
BRANCH  16  18
ATOM     18  C11 UNL     1      10.085   2.179  22.141  0.00  0.00    +0.147 C 
BRANCH  18  19
ATOM     19  C12 UNL     1      10.947   3.076  21.310  0.00  0.00    +0.092 A 
ATOM     20  N3  UNL     1      10.537   4.276  20.842  0.00  0.00    -0.251 NA
ATOM     21  C13 UNL     1      11.515   4.907  20.142  0.00  0.00    +0.122 A 
ATOM     22  C14 UNL     1      12.718   4.214  20.071  0.00  0.00    +0.006 A 
ATOM     23  C15 UNL     1      13.930   4.637  19.310  0.00  0.00    +0.053 C 
ATOM     24  S1  UNL     1      12.542   2.751  20.882  0.00  0.00    -0.076 S 
ENDBRANCH  18  19
ENDBRANCH  16  18
ENDBRANCH  15  16
ENDBRANCH   6  15
TORSDOF 5
ENDMDL
MODEL 2
REMARK VINA RESULT:    -5.482     13.855     15.894
REMARK INTER + INTRA:          -8.120
REMARK INTER:                  -7.527
REMARK INTRA:                  -0.593
REMARK UNBOUND:                -1.036
REMARK  Name = /home/qwerty/github/datacon2025hack/step_04_hit_selection/docking/ligands/lig_256.pdb
REMARK  9 active torsions:
REMARK  status: ('A' for Active; 'I' for Inactive)
REMARK    1  A    between atoms: C1_1  and  C2_2
REMARK    2  A    between atoms: C4_4  and  C5_5
REMARK    3  A    between atoms: C8_10  and  C9_11
REMARK    4  A    between atoms: C9_11  and  N2_12
REMARK    5  A    between atoms: N2_12  and  C10_13
REMARK    6  A    between atoms: N2_12  and  C11_14
REMARK    7  A    between atoms: C11_14  and  C12_15
REMARK    8  A    between atoms: C14_18  and  C15_19
REMARK    9  A    between atoms: C17_22  and  C18_23
REMARK                            x       y       z     vdW  Elec       q    Type
REMARK                         _______ _______ _______ _____ _____    ______ ____
ROOT
ATOM      1  C5  UNL     1      22.302   5.250  32.333  0.00  0.00    +0.250 C 
ATOM      2  O1  UNL     1      22.239   6.054  31.364  0.00  0.00    -0.270 OA
ATOM      3  N1  UNL     1      22.045   3.853  32.117  0.00  0.00    -0.297 N 
ATOM      4  C6  UNL     1      21.478   2.974  33.126  0.00  0.00    +0.108 C 
ATOM      5  C7  UNL     1      20.996   1.743  32.370  0.00  0.00    +0.025 C 
ATOM      6  C8  UNL     1      21.734   1.767  31.025  0.00  0.00    +0.022 C 
ATOM      7  C16 UNL     1      22.074   3.243  30.799  0.00  0.00    +0.113 C 
ENDROOT
BRANCH   1  11
ATOM      8  C1  UNL     1      21.846   7.064  36.998  0.00  0.00    +0.086 C 
ATOM      9  C2  UNL     1      22.411   6.576  35.707  0.00  0.00    +0.103 A 
ATOM     10  C3  UNL     1      21.678   6.102  34.637  0.00  0.00    +0.057 A 
ATOM     11  C4  UNL     1      22.609   5.775  33.672  0.00  0.00    +0.078 A 
ATOM     12  C17 UNL     1      23.848   6.109  34.201  0.00  0.00    +0.114 A 
ATOM     13  C18 UNL     1      25.179   6.018  33.526  0.00  0.00    +0.087 C 
ATOM     14  O2  UNL     1      23.693   6.574  35.420  0.00  0.00    -0.464 OA
ENDBRANCH   1  11
BRANCH   6  15
ATOM     15  C9  UNL     1      20.923   1.185  29.835  0.00  0.00    +0.089 C 
BRANCH  15  16
ATOM     16  N2  UNL     1      21.725   0.746  28.667  0.00  0.00    -0.299 NA
ATOM     17  C10 UNL     1      22.477  -0.498  28.906  0.00  0.00    +0.105 C 
BRANCH  16  18
ATOM     18  C11 UNL     1      20.971   0.715  27.400  0.00  0.00    +0.147 C 
BRANCH  18  19
ATOM     19  C12 UNL     1      21.344   1.891  26.555  0.00  0.00    +0.092 A 
ATOM     20  N3  UNL     1      20.758   2.171  25.370  0.00  0.00    -0.251 NA
ATOM     21  C13 UNL     1      21.254   3.308  24.815  0.00  0.00    +0.122 A 
ATOM     22  C14 UNL     1      22.227   3.947  25.574  0.00  0.00    +0.006 A 
ATOM     23  C15 UNL     1      22.989   5.166  25.174  0.00  0.00    +0.053 C 
ATOM     24  S1  UNL     1      22.498   3.044  26.967  0.00  0.00    -0.076 S 
ENDBRANCH  18  19
ENDBRANCH  16  18
ENDBRANCH  15  16
ENDBRANCH   6  15
TORSDOF 5
ENDMDL
MODEL 3
REMARK VINA RESULT:    -5.322     10.297     12.542
REMARK INTER + INTRA:          -7.914
REMARK INTER:                  -7.267
REMARK INTRA:                  -0.646
REMARK UNBOUND:                -1.036
REMARK  Name = /home/qwerty/github/datacon2025hack/step_04_hit_selection/docking/ligands/lig_256.pdb
REMARK  9 active torsions:
REMARK  status: ('A' for Active; 'I' for Inactive)
REMARK    1  A    between atoms: C1_1  and  C2_2
REMARK    2  A    between atoms: C4_4  and  C5_5
REMARK    3  A    between atoms: C8_10  and  C9_11
REMARK    4  A    between atoms: C9_11  and  N2_12
REMARK    5  A    between atoms: N2_12  and  C10_13
REMARK    6  A    between atoms: N2_12  and  C11_14
REMARK    7  A    between atoms: C11_14  and  C12_15
REMARK    8  A    between atoms: C14_18  and  C15_19
REMARK    9  A    between atoms: C17_22  and  C18_23
REMARK                            x       y       z     vdW  Elec       q    Type
REMARK                         _______ _______ _______ _____ _____    ______ ____
ROOT
ATOM      1  C5  UNL     1      11.664  12.605  32.880  0.00  0.00    +0.250 C 
ATOM      2  O1  UNL     1      11.270  11.423  33.069  0.00  0.00    -0.270 OA
ATOM      3  N1  UNL     1      11.383  13.258  31.631  0.00  0.00    -0.297 N 
ATOM      4  C6  UNL     1      12.243  14.272  31.042  0.00  0.00    +0.108 C 
ATOM      5  C7  UNL     1      11.813  14.373  29.584  0.00  0.00    +0.025 C 
ATOM      6  C8  UNL     1      10.412  13.752  29.521  0.00  0.00    +0.022 C 
ATOM      7  C16 UNL     1      10.365  12.787  30.709  0.00  0.00    +0.113 C 
ENDROOT
BRANCH   1  11
ATOM      8  C1  UNL     1      15.445  14.366  35.685  0.00  0.00    +0.086 C 
ATOM      9  C2  UNL     1      14.084  14.038  35.171  0.00  0.00    +0.103 A 
ATOM     10  C3  UNL     1      13.810  13.350  34.004  0.00  0.00    +0.057 A 
ATOM     11  C4  UNL     1      12.434  13.275  33.939  0.00  0.00    +0.078 A 
ATOM     12  C17 UNL     1      11.957  13.885  35.091  0.00  0.00    +0.114 A 
ATOM     13  C18 UNL     1      10.534  14.004  35.536  0.00  0.00    +0.087 C 
ATOM     14  O2  UNL     1      12.969  14.337  35.797  0.00  0.00    -0.464 OA
ENDBRANCH   1  11
BRANCH   6  15
ATOM     15  C9  UNL     1      10.092  13.022  28.187  0.00  0.00    +0.089 C 
BRANCH  15  16
ATOM     16  N2  UNL     1       8.664  12.690  27.966  0.00  0.00    -0.299 NA
ATOM     17  C10 UNL     1       7.877  13.812  27.425  0.00  0.00    +0.105 C 
BRANCH  16  18
ATOM     18  C11 UNL     1       8.449  11.437  27.217  0.00  0.00    +0.147 C 
BRANCH  18  19
ATOM     19  C12 UNL     1       7.997  10.357  28.148  0.00  0.00    +0.092 A 
ATOM     20  N3  UNL     1       7.499  10.599  29.381  0.00  0.00    -0.251 NA
ATOM     21  C13 UNL     1       7.133   9.453  30.013  0.00  0.00    +0.122 A 
ATOM     22  C14 UNL     1       7.322   8.294  29.269  0.00  0.00    +0.006 A 
ATOM     23  C15 UNL     1       7.077   6.900  29.741  0.00  0.00    +0.053 C 
ATOM     24  S1  UNL     1       7.998   8.713  27.787  0.00  0.00    -0.076 S 
ENDBRANCH  18  19
ENDBRANCH  16  18
ENDBRANCH  15  16
ENDBRANCH   6  15
TORSDOF 5
ENDMDL
MODEL 4
REMARK VINA RESULT:    -5.203      9.520     12.385
REMARK INTER + INTRA:          -7.759
REMARK INTER:                  -7.113
REMARK INTRA:                  -0.647
REMARK UNBOUND:                -1.036
REMARK  Name = /home/qwerty/github/datacon2025hack/step_04_hit_selection/docking/ligands/lig_256.pdb
REMARK  9 active torsions:
REMARK  status: ('A' for Active; 'I' for Inactive)
REMARK    1  A    between atoms: C1_1  and  C2_2
REMARK    2  A    between atoms: C4_4  and  C5_5
REMARK    3  A    between atoms: C8_10  and  C9_11
REMARK    4  A    between atoms: C9_11  and  N2_12
REMARK    5  A    between atoms: N2_12  and  C10_13
REMARK    6  A    between atoms: N2_12  and  C11_14
REMARK    7  A    between atoms: C11_14  and  C12_15
REMARK    8  A    between atoms: C14_18  and  C15_19
REMARK    9  A    between atoms: C17_22  and  C18_23
REMARK                            x       y       z     vdW  Elec       q    Type
REMARK                         _______ _______ _______ _____ _____    ______ ____
ROOT
ATOM      1  C5  UNL     1      21.214   1.722  26.970  0.00  0.00    +0.250 C 
ATOM      2  O1  UNL     1      21.997   2.234  26.125  0.00  0.00    -0.270 OA
ATOM      3  N1  UNL     1      20.023   1.052  26.524  0.00  0.00    -0.297 N 
ATOM      4  C6  UNL     1      18.796   0.991  27.300  0.00  0.00    +0.108 C 
ATOM      5  C7  UNL     1      17.711   0.580  26.313  0.00  0.00    +0.025 C 
ATOM      6  C8  UNL     1      18.449  -0.035  25.117  0.00  0.00    +0.022 C 
ATOM      7  C16 UNL     1      19.841   0.604  25.155  0.00  0.00    +0.113 C 
ENDROOT
BRANCH   1  11
ATOM      8  C1  UNL     1      21.859   3.598  31.589  0.00  0.00    +0.086 C 
ATOM      9  C2  UNL     1      21.818   2.675  30.418  0.00  0.00    +0.103 A 
ATOM     10  C3  UNL     1      21.377   3.005  29.150  0.00  0.00    +0.057 A 
ATOM     11  C4  UNL     1      21.527   1.856  28.401  0.00  0.00    +0.078 A 
ATOM     12  C17 UNL     1      22.088   0.911  29.249  0.00  0.00    +0.114 A 
ATOM     13  C18 UNL     1      22.516  -0.480  28.905  0.00  0.00    +0.087 C 
ATOM     14  O2  UNL     1      22.239   1.431  30.446  0.00  0.00    -0.464 OA
ENDBRANCH   1  11
BRANCH   6  15
ATOM     15  C9  UNL     1      17.758   0.198  23.745  0.00  0.00    +0.089 C 
BRANCH  15  16
ATOM     16  N2  UNL     1      17.019  -0.964  23.195  0.00  0.00    -0.299 NA
ATOM     17  C10 UNL     1      17.364  -2.239  23.847  0.00  0.00    +0.105 C 
BRANCH  16  18
ATOM     18  C11 UNL     1      15.562  -0.756  23.098  0.00  0.00    +0.147 C 
BRANCH  18  19
ATOM     19  C12 UNL     1      15.259   0.237  22.021  0.00  0.00    +0.092 A 
ATOM     20  N3  UNL     1      15.766   0.155  20.771  0.00  0.00    -0.251 NA
ATOM     21  C13 UNL     1      15.314   1.160  19.975  0.00  0.00    +0.122 A 
ATOM     22  C14 UNL     1      14.427   2.034  20.591  0.00  0.00    +0.006 A 
ATOM     23  C15 UNL     1      13.836   3.260  19.978  0.00  0.00    +0.053 C 
ATOM     24  S1  UNL     1      14.225   1.554  22.190  0.00  0.00    -0.076 S 
ENDBRANCH  18  19
ENDBRANCH  16  18
ENDBRANCH  15  16
ENDBRANCH   6  15
TORSDOF 5
ENDMDL
MODEL 5
REMARK VINA RESULT:    -5.156      3.366      7.213
REMARK INTER + INTRA:          -7.699
REMARK INTER:                  -6.834
REMARK INTRA:                  -0.865
REMARK UNBOUND:                -1.036
REMARK  Name = /home/qwerty/github/datacon2025hack/step_04_hit_selection/docking/ligands/lig_256.pdb
REMARK  9 active torsions:
REMARK  status: ('A' for Active; 'I' for Inactive)
REMARK    1  A    between atoms: C1_1  and  C2_2
REMARK    2  A    between atoms: C4_4  and  C5_5
REMARK    3  A    between atoms: C8_10  and  C9_11
REMARK    4  A    between atoms: C9_11  and  N2_12
REMARK    5  A    between atoms: N2_12  and  C10_13
REMARK    6  A    between atoms: N2_12  and  C11_14
REMARK    7  A    between atoms: C11_14  and  C12_15
REMARK    8  A    between atoms: C14_18  and  C15_19
REMARK    9  A    between atoms: C17_22  and  C18_23
REMARK                            x       y       z     vdW  Elec       q    Type
REMARK                         _______ _______ _______ _____ _____    ______ ____
ROOT
ATOM      1  C5  UNL     1      13.011   3.130  20.270  0.00  0.00    +0.250 C 
ATOM      2  O1  UNL     1      12.811   3.993  19.373  0.00  0.00    -0.270 OA
ATOM      3  N1  UNL     1      11.984   2.859  21.239  0.00  0.00    -0.297 N 
ATOM      4  C6  UNL     1      12.257   2.426  22.599  0.00  0.00    +0.108 C 
ATOM      5  C7  UNL     1      10.964   2.664  23.369  0.00  0.00    +0.025 C 
ATOM      6  C8  UNL     1       9.864   2.783  22.306  0.00  0.00    +0.022 C 
ATOM      7  C16 UNL     1      10.598   3.244  21.043  0.00  0.00    +0.113 C 
ENDROOT
BRANCH   1  11
ATOM      8  C1  UNL     1      16.592  -0.389  20.042  0.00  0.00    +0.086 C 
ATOM      9  C2  UNL     1      15.875   0.905  20.228  0.00  0.00    +0.103 A 
ATOM     10  C3  UNL     1      14.525   1.114  20.018  0.00  0.00    +0.057 A 
ATOM     11  C4  UNL     1      14.310   2.443  20.318  0.00  0.00    +0.078 A 
ATOM     12  C17 UNL     1      15.535   2.950  20.731  0.00  0.00    +0.114 A 
ATOM     13  C18 UNL     1      15.825   4.328  21.236  0.00  0.00    +0.087 C 
ATOM     14  O2  UNL     1      16.447   2.008  20.655  0.00  0.00    -0.464 OA
ENDBRANCH   1  11
BRANCH   6  15
ATOM     15  C9  UNL     1       8.712   3.757  22.678  0.00  0.00    +0.089 C 
BRANCH  15  16
ATOM     16  N2  UNL     1       8.559   4.935  21.791  0.00  0.00    -0.299 NA
ATOM     17  C10 UNL     1       7.333   4.898  20.975  0.00  0.00    +0.105 C 
BRANCH  16  18
ATOM     18  C11 UNL     1       8.741   6.229  22.476  0.00  0.00    +0.147 C 
BRANCH  18  19
ATOM     19  C12 UNL     1       9.551   7.149  21.619  0.00  0.00    +0.092 A 
ATOM     20  N3  UNL     1      10.717   6.791  21.038  0.00  0.00    -0.251 NA
ATOM     21  C13 UNL     1      11.239   7.796  20.287  0.00  0.00    +0.122 A 
ATOM     22  C14 UNL     1      10.472   8.955  20.255  0.00  0.00    +0.006 A 
ATOM     23  C15 UNL     1      10.839  10.230  19.573  0.00  0.00    +0.053 C 
ATOM     24  S1  UNL     1       9.114   8.726  21.221  0.00  0.00    -0.076 S 
ENDBRANCH  18  19
ENDBRANCH  16  18
ENDBRANCH  15  16
ENDBRANCH   6  15
TORSDOF 5
ENDMDL
MODEL 6
REMARK VINA RESULT:    -5.086      3.431      6.084
REMARK INTER + INTRA:          -7.608
REMARK INTER:                  -6.458
REMARK INTRA:                  -1.150
REMARK UNBOUND:                -1.036
REMARK  Name = /home/qwerty/github/datacon2025hack/step_04_hit_selection/docking/ligands/lig_256.pdb
REMARK  9 active torsions:
REMARK  status: ('A' for Active; 'I' for Inactive)
REMARK    1  A    between atoms: C1_1  and  C2_2
REMARK    2  A    between atoms: C4_4  and  C5_5
REMARK    3  A    between atoms: C8_10  and  C9_11
REMARK    4  A    between atoms: C9_11  and  N2_12
REMARK    5  A    between atoms: N2_12  and  C10_13
REMARK    6  A    between atoms: N2_12  and  C11_14
REMARK    7  A    between atoms: C11_14  and  C12_15
REMARK    8  A    between atoms: C14_18  and  C15_19
REMARK    9  A    between atoms: C17_22  and  C18_23
REMARK                            x       y       z     vdW  Elec       q    Type
REMARK                         _______ _______ _______ _____ _____    ______ ____
ROOT
ATOM      1  C5  UNL     1       8.142   9.525  24.856  0.00  0.00    +0.250 C 
ATOM      2  O1  UNL     1       7.184   9.796  24.084  0.00  0.00    -0.270 OA
ATOM      3  N1  UNL     1       9.493   9.627  24.379  0.00  0.00    -0.297 N 
ATOM      4  C6  UNL     1      10.584   8.802  24.869  0.00  0.00    +0.108 C 
ATOM      5  C7  UNL     1      11.694   8.937  23.834  0.00  0.00    +0.025 C 
ATOM      6  C8  UNL     1      11.365  10.207  23.038  0.00  0.00    +0.022 C 
ATOM      7  C16 UNL     1       9.850  10.371  23.184  0.00  0.00    +0.113 C 
ENDROOT
BRANCH   1  11
ATOM      8  C1  UNL     1       7.231   9.469  29.799  0.00  0.00    +0.086 C 
ATOM      9  C2  UNL     1       7.456   9.048  28.386  0.00  0.00    +0.103 A 
ATOM     10  C3  UNL     1       7.690   9.898  27.323  0.00  0.00    +0.057 A 
ATOM     11  C4  UNL     1       7.845   9.076  26.225  0.00  0.00    +0.078 A 
ATOM     12  C17 UNL     1       7.735   7.775  26.698  0.00  0.00    +0.114 A 
ATOM     13  C18 UNL     1       7.899   6.508  25.920  0.00  0.00    +0.087 C 
ATOM     14  O2  UNL     1       7.493   7.797  27.989  0.00  0.00    -0.464 OA
ENDBRANCH   1  11
BRANCH   6  15
ATOM     15  C9  UNL     1      11.788  10.157  21.543  0.00  0.00    +0.089 C 
BRANCH  15  16
ATOM     16  N2  UNL     1      10.755   9.659  20.603  0.00  0.00    -0.299 NA
ATOM     17  C10 UNL     1      10.570  10.523  19.425  0.00  0.00    +0.105 C 
BRANCH  16  18
ATOM     18  C11 UNL     1      10.910   8.237  20.241  0.00  0.00    +0.147 C 
BRANCH  18  19
ATOM     19  C12 UNL     1       9.804   7.433  20.846  0.00  0.00    +0.092 A 
ATOM     20  N3  UNL     1       8.636   7.971  21.262  0.00  0.00    -0.251 NA
ATOM     21  C13 UNL     1       7.786   7.026  21.745  0.00  0.00    +0.122 A 
ATOM     22  C14 UNL     1       8.275   5.726  21.694  0.00  0.00    +0.006 A 
ATOM     23  C15 UNL     1       7.588   4.510  22.221  0.00  0.00    +0.053 C 
ATOM     24  S1  UNL     1       9.830   5.763  21.054  0.00  0.00    -0.076 S 
ENDBRANCH  18  19
ENDBRANCH  16  18
ENDBRANCH  15  16
ENDBRANCH   6  15
TORSDOF 5
ENDMDL
MODEL 7
REMARK VINA RESULT:    -5.071      6.242      8.835
REMARK INTER + INTRA:          -7.589
REMARK INTER:                  -6.841
REMARK INTRA:                  -0.747
REMARK UNBOUND:                -1.036
REMARK  Name = /home/qwerty/github/datacon2025hack/step_04_hit_selection/docking/ligands/lig_256.pdb
REMARK  9 active torsions:
REMARK  status: ('A' for Active; 'I' for Inactive)
REMARK    1  A    between atoms: C1_1  and  C2_2
REMARK    2  A    between atoms: C4_4  and  C5_5
REMARK    3  A    between atoms: C8_10  and  C9_11
REMARK    4  A    between atoms: C9_11  and  N2_12
REMARK    5  A    between atoms: N2_12  and  C10_13
REMARK    6  A    between atoms: N2_12  and  C11_14
REMARK    7  A    between atoms: C11_14  and  C12_15
REMARK    8  A    between atoms: C14_18  and  C15_19
REMARK    9  A    between atoms: C17_22  and  C18_23
REMARK                            x       y       z     vdW  Elec       q    Type
REMARK                         _______ _______ _______ _____ _____    ______ ____
ROOT
ATOM      1  C5  UNL     1       7.960   9.709  24.076  0.00  0.00    +0.250 C 
ATOM      2  O1  UNL     1       6.740  10.021  24.132  0.00  0.00    -0.270 OA
ATOM      3  N1  UNL     1       8.820   9.987  25.193  0.00  0.00    -0.297 N 
ATOM      4  C6  UNL     1      10.238  10.275  25.065  0.00  0.00    +0.108 C 
ATOM      5  C7  UNL     1      10.647  10.907  26.390  0.00  0.00    +0.025 C 
ATOM      6  C8  UNL     1       9.550  10.520  27.389  0.00  0.00    +0.022 C 
ATOM      7  C16 UNL     1       8.311  10.272  26.523  0.00  0.00    +0.113 C 
ENDROOT
BRANCH   1  11
ATOM      8  C1  UNL     1       9.967   6.453  20.815  0.00  0.00    +0.086 C 
ATOM      9  C2  UNL     1       9.364   7.674  21.421  0.00  0.00    +0.103 A 
ATOM     10  C3  UNL     1       8.964   7.805  22.737  0.00  0.00    +0.057 A 
ATOM     11  C4  UNL     1       8.479   9.092  22.845  0.00  0.00    +0.078 A 
ATOM     12  C17 UNL     1       8.653   9.678  21.599  0.00  0.00    +0.114 A 
ATOM     13  C18 UNL     1       8.355  11.091  21.208  0.00  0.00    +0.087 C 
ATOM     14  O2  UNL     1       9.174   8.801  20.771  0.00  0.00    -0.464 OA
ENDBRANCH   1  11
BRANCH   6  15
ATOM     15  C9  UNL     1       9.270  11.589  28.482  0.00  0.00    +0.089 C 
BRANCH  15  16
ATOM     16  N2  UNL     1       9.554  12.991  28.093  0.00  0.00    -0.299 NA
ATOM     17  C10 UNL     1       8.345  13.761  27.753  0.00  0.00    +0.105 C 
BRANCH  16  18
ATOM     18  C11 UNL     1      10.432  13.709  29.036  0.00  0.00    +0.147 C 
BRANCH  18  19
ATOM     19  C12 UNL     1      11.682  14.143  28.340  0.00  0.00    +0.092 A 
ATOM     20  N3  UNL     1      11.785  14.252  26.997  0.00  0.00    -0.251 NA
ATOM     21  C13 UNL     1      13.013  14.693  26.617  0.00  0.00    +0.122 A 
ATOM     22  C14 UNL     1      13.885  14.957  27.666  0.00  0.00    +0.006 A 
ATOM     23  C15 UNL     1      15.310  15.380  27.536  0.00  0.00    +0.053 C 
ATOM     24  S1  UNL     1      13.107  14.596  29.113  0.00  0.00    -0.076 S 
ENDBRANCH  18  19
ENDBRANCH  16  18
ENDBRANCH  15  16
ENDBRANCH   6  15
TORSDOF 5
ENDMDL
MODEL 8
REMARK VINA RESULT:    -5.043     16.272     17.941
REMARK INTER + INTRA:          -7.553
REMARK INTER:                  -6.263
REMARK INTRA:                  -1.290
REMARK UNBOUND:                -1.036
REMARK  Name = /home/qwerty/github/datacon2025hack/step_04_hit_selection/docking/ligands/lig_256.pdb
REMARK  9 active torsions:
REMARK  status: ('A' for Active; 'I' for Inactive)
REMARK    1  A    between atoms: C1_1  and  C2_2
REMARK    2  A    between atoms: C4_4  and  C5_5
REMARK    3  A    between atoms: C8_10  and  C9_11
REMARK    4  A    between atoms: C9_11  and  N2_12
REMARK    5  A    between atoms: N2_12  and  C10_13
REMARK    6  A    between atoms: N2_12  and  C11_14
REMARK    7  A    between atoms: C11_14  and  C12_15
REMARK    8  A    between atoms: C14_18  and  C15_19
REMARK    9  A    between atoms: C17_22  and  C18_23
REMARK                            x       y       z     vdW  Elec       q    Type
REMARK                         _______ _______ _______ _____ _____    ______ ____
ROOT
ATOM      1  C5  UNL     1      21.050   7.322  33.865  0.00  0.00    +0.250 C 
ATOM      2  O1  UNL     1      20.119   7.404  33.019  0.00  0.00    -0.270 OA
ATOM      3  N1  UNL     1      20.741   7.052  35.242  0.00  0.00    -0.297 N 
ATOM      4  C6  UNL     1      21.541   7.532  36.356  0.00  0.00    +0.108 C 
ATOM      5  C7  UNL     1      20.655   7.388  37.586  0.00  0.00    +0.025 C 
ATOM      6  C8  UNL     1      19.557   6.392  37.192  0.00  0.00    +0.022 C 
ATOM      7  C16 UNL     1      19.464   6.505  35.667  0.00  0.00    +0.113 C 
ENDROOT
BRANCH   1  11
ATOM      8  C1  UNL     1      25.356   9.506  32.464  0.00  0.00    +0.086 C 
ATOM      9  C2  UNL     1      24.314   8.492  32.799  0.00  0.00    +0.103 A 
ATOM     10  C3  UNL     1      23.039   8.769  33.253  0.00  0.00    +0.057 A 
ATOM     11  C4  UNL     1      22.435   7.540  33.420  0.00  0.00    +0.078 A 
ATOM     12  C17 UNL     1      23.367   6.593  33.017  0.00  0.00    +0.114 A 
ATOM     13  C18 UNL     1      23.180   5.111  32.935  0.00  0.00    +0.087 C 
ATOM     14  O2  UNL     1      24.479   7.196  32.663  0.00  0.00    -0.464 OA
ENDBRANCH   1  11
BRANCH   6  15
ATOM     15  C9  UNL     1      18.180   6.654  37.863  0.00  0.00    +0.089 C 
BRANCH  15  16
ATOM     16  N2  UNL     1      17.199   7.402  37.040  0.00  0.00    -0.299 NA
ATOM     17  C10 UNL     1      15.917   6.697  36.871  0.00  0.00    +0.105 C 
BRANCH  16  18
ATOM     18  C11 UNL     1      17.020   8.807  37.452  0.00  0.00    +0.147 C 
BRANCH  18  19
ATOM     19  C12 UNL     1      17.940   9.689  36.669  0.00  0.00    +0.092 A 
ATOM     20  N3  UNL     1      18.846  10.513  37.242  0.00  0.00    -0.251 NA
ATOM     21  C13 UNL     1      19.579  11.183  36.315  0.00  0.00    +0.122 A 
ATOM     22  C14 UNL     1      19.268  10.875  34.996  0.00  0.00    +0.006 A 
ATOM     23  C15 UNL     1      19.861  11.512  33.784  0.00  0.00    +0.053 C 
ATOM     24  S1  UNL     1      18.015   9.753  34.989  0.00  0.00    -0.076 S 
ENDBRANCH  18  19
ENDBRANCH  16  18
ENDBRANCH  15  16
ENDBRANCH   6  15
TORSDOF 5
ENDMDL
MODEL 9
REMARK VINA RESULT:    -5.011     16.152     17.035
REMARK INTER + INTRA:          -7.512
REMARK INTER:                  -6.861
REMARK INTRA:                  -0.651
REMARK UNBOUND:                -1.036
REMARK  Name = /home/qwerty/github/datacon2025hack/step_04_hit_selection/docking/ligands/lig_256.pdb
REMARK  9 active torsions:
REMARK  status: ('A' for Active; 'I' for Inactive)
REMARK    1  A    between atoms: C1_1  and  C2_2
REMARK    2  A    between atoms: C4_4  and  C5_5
REMARK    3  A    between atoms: C8_10  and  C9_11
REMARK    4  A    between atoms: C9_11  and  N2_12
REMARK    5  A    between atoms: N2_12  and  C10_13
REMARK    6  A    between atoms: N2_12  and  C11_14
REMARK    7  A    between atoms: C11_14  and  C12_15
REMARK    8  A    between atoms: C14_18  and  C15_19
REMARK    9  A    between atoms: C17_22  and  C18_23
REMARK                            x       y       z     vdW  Elec       q    Type
REMARK                         _______ _______ _______ _____ _____    ______ ____
ROOT
ATOM      1  C5  UNL     1      16.130  11.651  35.270  0.00  0.00    +0.250 C 
ATOM      2  O1  UNL     1      15.860  11.241  34.109  0.00  0.00    -0.270 OA
ATOM      3  N1  UNL     1      17.096  10.946  36.067  0.00  0.00    -0.297 N 
ATOM      4  C6  UNL     1      17.051  10.886  37.519  0.00  0.00    +0.108 C 
ATOM      5  C7  UNL     1      17.968   9.733  37.907  0.00  0.00    +0.025 C 
ATOM      6  C8  UNL     1      18.864   9.487  36.687  0.00  0.00    +0.022 C 
ATOM      7  C16 UNL     1      18.050  10.010  35.500  0.00  0.00    +0.113 C 
ENDROOT
BRANCH   1  11
ATOM      8  C1  UNL     1      14.970  16.358  36.598  0.00  0.00    +0.086 C 
ATOM      9  C2  UNL     1      14.915  14.883  36.380  0.00  0.00    +0.103 A 
ATOM     10  C3  UNL     1      15.891  14.126  35.760  0.00  0.00    +0.057 A 
ATOM     11  C4  UNL     1      15.420  12.829  35.791  0.00  0.00    +0.078 A 
ATOM     12  C17 UNL     1      14.207  12.873  36.464  0.00  0.00    +0.114 A 
ATOM     13  C18 UNL     1      13.326  11.720  36.827  0.00  0.00    +0.087 C 
ATOM     14  O2  UNL     1      13.932  14.115  36.791  0.00  0.00    -0.464 OA
ENDBRANCH   1  11
BRANCH   6  15
ATOM     15  C9  UNL     1      19.276   8.003  36.480  0.00  0.00    +0.089 C 
BRANCH  15  16
ATOM     16  N2  UNL     1      20.734   7.750  36.396  0.00  0.00    -0.299 NA
ATOM     17  C10 UNL     1      21.311   7.225  37.646  0.00  0.00    +0.105 C 
BRANCH  16  18
ATOM     18  C11 UNL     1      21.139   6.964  35.215  0.00  0.00    +0.147 C 
BRANCH  18  19
ATOM     19  C12 UNL     1      22.007   7.794  34.323  0.00  0.00    +0.092 A 
ATOM     20  N3  UNL     1      21.571   8.903  33.685  0.00  0.00    -0.251 NA
ATOM     21  C13 UNL     1      22.559   9.493  32.962  0.00  0.00    +0.122 A 
ATOM     22  C14 UNL     1      23.794   8.860  33.043  0.00  0.00    +0.006 A 
ATOM     23  C15 UNL     1      25.028   9.247  32.298  0.00  0.00    +0.053 C 
ATOM     24  S1  UNL     1      23.637   7.502  34.024  0.00  0.00    -0.076 S 
ENDBRANCH  18  19
ENDBRANCH  16  18
ENDBRANCH  15  16
ENDBRANCH   6  15
TORSDOF 5
ENDMDL
