MODEL 1
REMARK VINA RESULT:    -6.812      0.000      0.000
REMARK INTER + INTRA:          -8.980
REMARK INTER:                  -8.404
REMARK INTRA:                  -0.576
REMARK UNBOUND:                -0.576
REMARK  Name = /home/qwerty/github/datacon2025hack/step_04_hit_selection/docking/ligands/lig_534.pdb
REMARK  4 active torsions:
REMARK  status: ('A' for Active; 'I' for Inactive)
REMARK    1  A    between atoms: C1_2  and  C11_14
REMARK    2  A    between atoms: N1_3  and  C2_4
REMARK    3  A    between atoms: C2_4  and  C3_5
REMARK    4  A    between atoms: N2_16  and  C12_17
REMARK                            x       y       z     vdW  Elec       q    Type
REMARK                         _______ _______ _______ _____ _____    ______ ____
ROOT
ATOM      1  O1  UNL     1      20.373   0.259  30.805  0.00  0.00    -0.265 OA
ATOM      2  C1  UNL     1      21.150   1.212  31.081  0.00  0.00    +0.300 C 
ATOM      3  N1  UNL     1      22.302   1.459  30.260  0.00  0.00    -0.303 N 
ATOM      4  H1  UNL     1      22.969   2.221  30.521  0.00  0.00    +0.149 HD
ENDROOT
BRANCH   2   5
ATOM      5  C11 UNL     1      20.862   2.070  32.247  0.00  0.00    +0.303 C 
ATOM      6  O3  UNL     1      20.526   1.539  33.340  0.00  0.00    -0.265 OA
ATOM      7  N2  UNL     1      20.928   3.502  32.129  0.00  0.00    -0.276 N 
ATOM      8  H11 UNL     1      20.881   3.919  31.172  0.00  0.00    +0.155 HD
BRANCH   7   9
ATOM      9  C12 UNL     1      20.940   4.400  33.252  0.00  0.00    +0.052 A 
ATOM     10  C13 UNL     1      19.735   4.936  33.720  0.00  0.00    +0.134 A 
ATOM     11  N3  UNL     1      19.731   5.809  34.762  0.00  0.00    -0.258 NA
ATOM     12  C14 UNL     1      20.876   6.215  35.371  0.00  0.00    +0.045 A 
ATOM     13  C15 UNL     1      22.117   5.702  34.937  0.00  0.00    -0.024 A 
ATOM     14  C16 UNL     1      22.137   4.811  33.856  0.00  0.00    +0.030 A 
ATOM     15  C17 UNL     1      23.423   6.183  35.525  0.00  0.00    +0.037 C 
ATOM     16  C18 UNL     1      23.245   6.828  36.903  0.00  0.00    +0.005 C 
ATOM     17  C19 UNL     1      22.096   7.838  36.877  0.00  0.00    +0.006 C 
ATOM     18  C20 UNL     1      20.773   7.132  36.563  0.00  0.00    +0.056 C 
ENDBRANCH   7   9
ENDBRANCH   2   5
BRANCH   3  19
ATOM     19  C2  UNL     1      22.587   0.680  29.058  0.00  0.00    +0.140 C 
BRANCH  19  20
ATOM     20  C3  UNL     1      22.098   1.410  27.837  0.00  0.00    -0.030 A 
ATOM     21  C4  UNL     1      21.016   0.888  27.089  0.00  0.00    +0.009 A 
ATOM     22  C5  UNL     1      20.566   1.547  25.933  0.00  0.00    +0.046 A 
ATOM     23  C6  UNL     1      21.214   2.718  25.548  0.00  0.00    +0.124 A 
ATOM     24  C7  UNL     1      22.260   3.228  26.259  0.00  0.00    -0.002 A 
ATOM     25  C8  UNL     1      22.731   2.597  27.411  0.00  0.00    +0.012 A 
ATOM     26  C9  UNL     1      22.754   4.471  25.612  0.00  0.00    +0.080 C 
ATOM     27  C10 UNL     1      21.815   4.612  24.389  0.00  0.00    +0.234 C 
ATOM     28  O2  UNL     1      20.924   3.497  24.450  0.00  0.00    -0.491 OA
ENDBRANCH  19  20
ENDBRANCH   3  19
TORSDOF 4
ENDMDL
MODEL 2
REMARK VINA RESULT:    -6.726      6.906     10.572
REMARK INTER + INTRA:          -8.875
REMARK INTER:                  -8.498
REMARK INTRA:                  -0.377
REMARK UNBOUND:                -0.576
REMARK  Name = /home/qwerty/github/datacon2025hack/step_04_hit_selection/docking/ligands/lig_534.pdb
REMARK  4 active torsions:
REMARK  status: ('A' for Active; 'I' for Inactive)
REMARK    1  A    between atoms: C1_2  and  C11_14
REMARK    2  A    between atoms: N1_3  and  C2_4
REMARK    3  A    between atoms: C2_4  and  C3_5
REMARK    4  A    between atoms: N2_16  and  C12_17
REMARK                            x       y       z     vdW  Elec       q    Type
REMARK                         _______ _______ _______ _____ _____    ______ ____
ROOT
ATOM      1  O1  UNL     1      18.404   8.570  38.386  0.00  0.00    -0.265 OA
ATOM      2  C1  UNL     1      18.822   9.361  37.498  0.00  0.00    +0.300 C 
ATOM      3  N1  UNL     1      20.163   9.235  36.999  0.00  0.00    -0.303 N 
ATOM      4  H1  UNL     1      20.520   9.923  36.298  0.00  0.00    +0.149 HD
ENDROOT
BRANCH   2   5
ATOM      5  C11 UNL     1      17.924  10.409  36.975  0.00  0.00    +0.303 C 
ATOM      6  O3  UNL     1      18.162  10.926  35.850  0.00  0.00    -0.265 OA
ATOM      7  N2  UNL     1      16.806  10.864  37.758  0.00  0.00    -0.276 N 
ATOM      8  H11 UNL     1      16.815  10.674  38.786  0.00  0.00    +0.155 HD
BRANCH   7   9
ATOM      9  C12 UNL     1      15.731  11.662  37.234  0.00  0.00    +0.052 A 
ATOM     10  C13 UNL     1      15.903  13.043  37.088  0.00  0.00    +0.134 A 
ATOM     11  N3  UNL     1      14.888  13.816  36.621  0.00  0.00    -0.258 NA
ATOM     12  C14 UNL     1      13.671  13.300  36.303  0.00  0.00    +0.045 A 
ATOM     13  C15 UNL     1      13.447  11.912  36.431  0.00  0.00    -0.024 A 
ATOM     14  C16 UNL     1      14.481  11.105  36.923  0.00  0.00    +0.030 A 
ATOM     15  C17 UNL     1      12.090  11.301  36.170  0.00  0.00    +0.037 C 
ATOM     16  C18 UNL     1      11.202  12.194  35.297  0.00  0.00    +0.005 C 
ATOM     17  C19 UNL     1      11.213  13.633  35.817  0.00  0.00    +0.006 C 
ATOM     18  C20 UNL     1      12.625  14.220  35.728  0.00  0.00    +0.056 C 
ENDBRANCH   7   9
ENDBRANCH   2   5
BRANCH   3  19
ATOM     19  C2  UNL     1      21.063   8.171  37.437  0.00  0.00    +0.140 C 
BRANCH  19  20
ATOM     20  C3  UNL     1      22.026   7.819  36.336  0.00  0.00    -0.030 A 
ATOM     21  C4  UNL     1      22.862   6.685  36.466  0.00  0.00    +0.009 A 
ATOM     22  C5  UNL     1      23.783   6.359  35.456  0.00  0.00    +0.046 A 
ATOM     23  C6  UNL     1      23.850   7.184  34.335  0.00  0.00    +0.124 A 
ATOM     24  C7  UNL     1      23.051   8.282  34.202  0.00  0.00    -0.002 A 
ATOM     25  C8  UNL     1      22.127   8.632  35.186  0.00  0.00    +0.012 A 
ATOM     26  C9  UNL     1      23.346   8.969  32.918  0.00  0.00    +0.080 C 
ATOM     27  C10 UNL     1      24.462   8.084  32.309  0.00  0.00    +0.234 C 
ATOM     28  O2  UNL     1      24.686   7.034  33.251  0.00  0.00    -0.491 OA
ENDBRANCH  19  20
ENDBRANCH   3  19
TORSDOF 4
ENDMDL
MODEL 3
REMARK VINA RESULT:    -6.625     11.459     15.052
REMARK INTER + INTRA:          -8.750
REMARK INTER:                  -8.295
REMARK INTRA:                  -0.455
REMARK UNBOUND:                -0.576
REMARK  Name = /home/qwerty/github/datacon2025hack/step_04_hit_selection/docking/ligands/lig_534.pdb
REMARK  4 active torsions:
REMARK  status: ('A' for Active; 'I' for Inactive)
REMARK    1  A    between atoms: C1_2  and  C11_14
REMARK    2  A    between atoms: N1_3  and  C2_4
REMARK    3  A    between atoms: C2_4  and  C3_5
REMARK    4  A    between atoms: N2_16  and  C12_17
REMARK                            x       y       z     vdW  Elec       q    Type
REMARK                         _______ _______ _______ _____ _____    ______ ____
ROOT
ATOM      1  O1  UNL     1       9.769   2.930  22.701  0.00  0.00    -0.265 OA
ATOM      2  C1  UNL     1      10.563   3.246  21.774  0.00  0.00    +0.300 C 
ATOM      3  N1  UNL     1      10.119   4.102  20.710  0.00  0.00    -0.303 N 
ATOM      4  H1  UNL     1      10.766   4.322  19.919  0.00  0.00    +0.149 HD
ENDROOT
BRANCH   2   5
ATOM      5  C11 UNL     1      11.947   2.736  21.798  0.00  0.00    +0.303 C 
ATOM      6  O3  UNL     1      12.893   3.521  22.081  0.00  0.00    -0.265 OA
ATOM      7  N2  UNL     1      12.222   1.364  21.464  0.00  0.00    -0.276 N 
ATOM      8  H11 UNL     1      11.498   0.834  20.928  0.00  0.00    +0.155 HD
BRANCH   7   9
ATOM      9  C12 UNL     1      13.477   0.710  21.724  0.00  0.00    +0.052 A 
ATOM     10  C13 UNL     1      14.492   0.758  20.762  0.00  0.00    +0.134 A 
ATOM     11  N3  UNL     1      15.673   0.121  20.979  0.00  0.00    -0.258 NA
ATOM     12  C14 UNL     1      15.912  -0.599  22.107  0.00  0.00    +0.045 A 
ATOM     13  C15 UNL     1      14.920  -0.676  23.108  0.00  0.00    -0.024 A 
ATOM     14  C16 UNL     1      13.693  -0.036  22.892  0.00  0.00    +0.030 A 
ATOM     15  C17 UNL     1      15.103  -1.530  24.341  0.00  0.00    +0.037 C 
ATOM     16  C18 UNL     1      16.576  -1.841  24.626  0.00  0.00    +0.005 C 
ATOM     17  C19 UNL     1      17.278  -2.321  23.354  0.00  0.00    +0.006 C 
ATOM     18  C20 UNL     1      17.275  -1.214  22.295  0.00  0.00    +0.056 C 
ENDBRANCH   7   9
ENDBRANCH   2   5
BRANCH   3  19
ATOM     19  C2  UNL     1       8.780   4.685  20.682  0.00  0.00    +0.140 C 
BRANCH  19  20
ATOM     20  C3  UNL     1       8.862   6.181  20.819  0.00  0.00    -0.030 A 
ATOM     21  C4  UNL     1       7.837   6.885  21.496  0.00  0.00    +0.009 A 
ATOM     22  C5  UNL     1       7.890   8.284  21.609  0.00  0.00    +0.046 A 
ATOM     23  C6  UNL     1       8.970   8.951  21.036  0.00  0.00    +0.124 A 
ATOM     24  C7  UNL     1       9.961   8.283  20.378  0.00  0.00    -0.002 A 
ATOM     25  C8  UNL     1       9.938   6.894  20.249  0.00  0.00    +0.012 A 
ATOM     26  C9  UNL     1      10.970   9.247  19.870  0.00  0.00    +0.080 C 
ATOM     27  C10 UNL     1      10.405  10.609  20.342  0.00  0.00    +0.234 C 
ATOM     28  O2  UNL     1       9.193  10.310  21.037  0.00  0.00    -0.491 OA
ENDBRANCH  19  20
ENDBRANCH   3  19
TORSDOF 4
ENDMDL
MODEL 4
REMARK VINA RESULT:    -6.581      3.839     10.289
REMARK INTER + INTRA:          -8.696
REMARK INTER:                  -8.127
REMARK INTRA:                  -0.569
REMARK UNBOUND:                -0.576
REMARK  Name = /home/qwerty/github/datacon2025hack/step_04_hit_selection/docking/ligands/lig_534.pdb
REMARK  4 active torsions:
REMARK  status: ('A' for Active; 'I' for Inactive)
REMARK    1  A    between atoms: C1_2  and  C11_14
REMARK    2  A    between atoms: N1_3  and  C2_4
REMARK    3  A    between atoms: C2_4  and  C3_5
REMARK    4  A    between atoms: N2_16  and  C12_17
REMARK                            x       y       z     vdW  Elec       q    Type
REMARK                         _______ _______ _______ _____ _____    ______ ____
ROOT
ATOM      1  O1  UNL     1      22.563   3.020  27.395  0.00  0.00    -0.265 OA
ATOM      2  C1  UNL     1      21.820   2.057  27.064  0.00  0.00    +0.300 C 
ATOM      3  N1  UNL     1      21.814   0.853  27.847  0.00  0.00    -0.303 N 
ATOM      4  H1  UNL     1      21.232   0.041  27.541  0.00  0.00    +0.149 HD
ENDROOT
BRANCH   2   5
ATOM      5  C11 UNL     1      20.956   2.182  25.874  0.00  0.00    +0.303 C 
ATOM      6  O3  UNL     1      21.450   2.590  24.788  0.00  0.00    -0.265 OA
ATOM      7  N2  UNL     1      19.553   1.878  25.961  0.00  0.00    -0.276 N 
ATOM      8  H11 UNL     1      19.109   1.866  26.907  0.00  0.00    +0.155 HD
BRANCH   7   9
ATOM      9  C12 UNL     1      18.698   1.702  24.818  0.00  0.00    +0.052 A 
ATOM     10  C13 UNL     1      18.037   2.807  24.272  0.00  0.00    +0.134 A 
ATOM     11  N3  UNL     1      17.203   2.654  23.210  0.00  0.00    -0.258 NA
ATOM     12  C14 UNL     1      16.956   1.439  22.653  0.00  0.00    +0.045 A 
ATOM     13  C15 UNL     1      17.600   0.292  23.165  0.00  0.00    -0.024 A 
ATOM     14  C16 UNL     1      18.451   0.434  24.269  0.00  0.00    +0.030 A 
ATOM     15  C17 UNL     1      17.296  -1.090  22.637  0.00  0.00    +0.037 C 
ATOM     16  C18 UNL     1      16.678  -1.060  21.235  0.00  0.00    +0.005 C 
ATOM     17  C19 UNL     1      15.538  -0.042  21.174  0.00  0.00    +0.006 C 
ATOM     18  C20 UNL     1      16.071   1.371  21.434  0.00  0.00    +0.056 C 
ENDBRANCH   7   9
ENDBRANCH   2   5
BRANCH   3  19
ATOM     19  C2  UNL     1      22.600   0.712  29.070  0.00  0.00    +0.140 C 
BRANCH  19  20
ATOM     20  C3  UNL     1      21.757   1.044  30.271  0.00  0.00    -0.030 A 
ATOM     21  C4  UNL     1      22.116   2.130  31.105  0.00  0.00    +0.009 A 
ATOM     22  C5  UNL     1      21.350   2.435  32.243  0.00  0.00    +0.046 A 
ATOM     23  C6  UNL     1      20.241   1.641  32.524  0.00  0.00    +0.124 A 
ATOM     24  C7  UNL     1      19.890   0.590  31.728  0.00  0.00    -0.002 A 
ATOM     25  C8  UNL     1      20.628   0.261  30.592  0.00  0.00    +0.012 A 
ATOM     26  C9  UNL     1      18.678  -0.074  32.274  0.00  0.00    +0.080 C 
ATOM     27  C10 UNL     1      18.368   0.769  33.536  0.00  0.00    +0.234 C 
ATOM     28  O2  UNL     1      19.378   1.778  33.588  0.00  0.00    -0.491 OA
ENDBRANCH  19  20
ENDBRANCH   3  19
TORSDOF 4
ENDMDL
MODEL 5
REMARK VINA RESULT:    -6.520     12.896     14.434
REMARK INTER + INTRA:          -8.621
REMARK INTER:                  -8.102
REMARK INTRA:                  -0.518
REMARK UNBOUND:                -0.576
REMARK  Name = /home/qwerty/github/datacon2025hack/step_04_hit_selection/docking/ligands/lig_534.pdb
REMARK  4 active torsions:
REMARK  status: ('A' for Active; 'I' for Inactive)
REMARK    1  A    between atoms: C1_2  and  C11_14
REMARK    2  A    between atoms: N1_3  and  C2_4
REMARK    3  A    between atoms: C2_4  and  C3_5
REMARK    4  A    between atoms: N2_16  and  C12_17
REMARK                            x       y       z     vdW  Elec       q    Type
REMARK                         _______ _______ _______ _____ _____    ______ ____
ROOT
ATOM      1  O1  UNL     1      11.127  13.460  28.308  0.00  0.00    -0.265 OA
ATOM      2  C1  UNL     1      10.686  13.685  29.467  0.00  0.00    +0.300 C 
ATOM      3  N1  UNL     1       9.269  13.707  29.703  0.00  0.00    -0.303 N 
ATOM      4  H1  UNL     1       8.908  13.940  30.656  0.00  0.00    +0.149 HD
ENDROOT
BRANCH   2   5
ATOM      5  C11 UNL     1      11.634  13.917  30.573  0.00  0.00    +0.303 C 
ATOM      6  O3  UNL     1      12.421  14.901  30.520  0.00  0.00    -0.265 OA
ATOM      7  N2  UNL     1      11.688  13.008  31.687  0.00  0.00    -0.276 N 
ATOM      8  H11 UNL     1      11.282  12.053  31.563  0.00  0.00    +0.155 HD
BRANCH   7   9
ATOM      9  C12 UNL     1      12.365  13.293  32.924  0.00  0.00    +0.052 A 
ATOM     10  C13 UNL     1      11.636  13.780  34.014  0.00  0.00    +0.134 A 
ATOM     11  N3  UNL     1      12.265  14.082  35.180  0.00  0.00    -0.258 NA
ATOM     12  C14 UNL     1      13.609  13.950  35.334  0.00  0.00    +0.045 A 
ATOM     13  C15 UNL     1      14.389  13.459  34.265  0.00  0.00    -0.024 A 
ATOM     14  C16 UNL     1      13.756  13.158  33.052  0.00  0.00    +0.030 A 
ATOM     15  C17 UNL     1      15.894  13.373  34.356  0.00  0.00    +0.037 C 
ATOM     16  C18 UNL     1      16.395  13.358  35.804  0.00  0.00    +0.005 C 
ATOM     17  C19 UNL     1      15.725  14.470  36.614  0.00  0.00    +0.006 C 
ATOM     18  C20 UNL     1      14.212  14.241  36.684  0.00  0.00    +0.056 C 
ENDBRANCH   7   9
ENDBRANCH   2   5
BRANCH   3  19
ATOM     19  C2  UNL     1       8.297  13.414  28.654  0.00  0.00    +0.140 C 
BRANCH  19  20
ATOM     20  C3  UNL     1       8.101  11.927  28.527  0.00  0.00    -0.030 A 
ATOM     21  C4  UNL     1       8.260  11.300  27.268  0.00  0.00    +0.009 A 
ATOM     22  C5  UNL     1       8.057   9.916  27.132  0.00  0.00    +0.046 A 
ATOM     23  C6  UNL     1       7.691   9.190  28.263  0.00  0.00    +0.124 A 
ATOM     24  C7  UNL     1       7.531   9.786  29.480  0.00  0.00    -0.002 A 
ATOM     25  C8  UNL     1       7.726  11.157  29.648  0.00  0.00    +0.012 A 
ATOM     26  C9  UNL     1       7.134   8.772  30.491  0.00  0.00    +0.080 C 
ATOM     27  C10 UNL     1       7.089   7.465  29.661  0.00  0.00    +0.234 C 
ATOM     28  O2  UNL     1       7.443   7.837  28.328  0.00  0.00    -0.491 OA
ENDBRANCH  19  20
ENDBRANCH   3  19
TORSDOF 4
ENDMDL
MODEL 6
REMARK VINA RESULT:    -6.513     12.937     14.957
REMARK INTER + INTRA:          -8.611
REMARK INTER:                  -8.134
REMARK INTRA:                  -0.477
REMARK UNBOUND:                -0.576
REMARK  Name = /home/qwerty/github/datacon2025hack/step_04_hit_selection/docking/ligands/lig_534.pdb
REMARK  4 active torsions:
REMARK  status: ('A' for Active; 'I' for Inactive)
REMARK    1  A    between atoms: C1_2  and  C11_14
REMARK    2  A    between atoms: N1_3  and  C2_4
REMARK    3  A    between atoms: C2_4  and  C3_5
REMARK    4  A    between atoms: N2_16  and  C12_17
REMARK                            x       y       z     vdW  Elec       q    Type
REMARK                         _______ _______ _______ _____ _____    ______ ____
ROOT
ATOM      1  O1  UNL     1      17.337   6.035  21.212  0.00  0.00    -0.265 OA
ATOM      2  C1  UNL     1      16.350   6.158  20.438  0.00  0.00    +0.300 C 
ATOM      3  N1  UNL     1      16.527   6.745  19.139  0.00  0.00    -0.303 N 
ATOM      4  H1  UNL     1      15.697   6.888  18.520  0.00  0.00    +0.149 HD
ENDROOT
BRANCH   2   5
ATOM      5  C11 UNL     1      15.021   5.689  20.875  0.00  0.00    +0.303 C 
ATOM      6  O3  UNL     1      14.804   5.495  22.101  0.00  0.00    -0.265 OA
ATOM      7  N2  UNL     1      13.992   5.420  19.907  0.00  0.00    -0.276 N 
ATOM      8  H11 UNL     1      14.278   5.269  18.913  0.00  0.00    +0.155 HD
BRANCH   7   9
ATOM      9  C12 UNL     1      12.605   5.232  20.240  0.00  0.00    +0.052 A 
ATOM     10  C13 UNL     1      12.125   3.944  20.498  0.00  0.00    +0.134 A 
ATOM     11  N3  UNL     1      10.812   3.746  20.786  0.00  0.00    -0.258 NA
ATOM     12  C14 UNL     1       9.914   4.767  20.813  0.00  0.00    +0.045 A 
ATOM     13  C15 UNL     1      10.349   6.085  20.561  0.00  0.00    -0.024 A 
ATOM     14  C16 UNL     1      11.697   6.302  20.250  0.00  0.00    +0.030 A 
ATOM     15  C17 UNL     1       9.378   7.241  20.497  0.00  0.00    +0.037 C 
ATOM     16  C18 UNL     1       8.059   6.941  21.215  0.00  0.00    +0.005 C 
ATOM     17  C19 UNL     1       7.519   5.573  20.794  0.00  0.00    +0.006 C 
ATOM     18  C20 UNL     1       8.491   4.465  21.209  0.00  0.00    +0.056 C 
ENDBRANCH   7   9
ENDBRANCH   2   5
BRANCH   3  19
ATOM     19  C2  UNL     1      17.835   7.158  18.639  0.00  0.00    +0.140 C 
BRANCH  19  20
ATOM     20  C3  UNL     1      18.050   8.625  18.895  0.00  0.00    -0.030 A 
ATOM     21  C4  UNL     1      16.953   9.448  19.243  0.00  0.00    +0.009 A 
ATOM     22  C5  UNL     1      17.137  10.824  19.461  0.00  0.00    +0.046 A 
ATOM     23  C6  UNL     1      18.420  11.348  19.321  0.00  0.00    +0.124 A 
ATOM     24  C7  UNL     1      19.483  10.563  18.982  0.00  0.00    -0.002 A 
ATOM     25  C8  UNL     1      19.334   9.194  18.759  0.00  0.00    +0.012 A 
ATOM     26  C9  UNL     1      20.715  11.390  18.899  0.00  0.00    +0.080 C 
ATOM     27  C10 UNL     1      20.197  12.806  19.250  0.00  0.00    +0.234 C 
ATOM     28  O2  UNL     1      18.796  12.662  19.487  0.00  0.00    -0.491 OA
ENDBRANCH  19  20
ENDBRANCH   3  19
TORSDOF 4
ENDMDL
MODEL 7
REMARK VINA RESULT:    -6.414      8.279     12.360
REMARK INTER + INTRA:          -8.490
REMARK INTER:                  -7.963
REMARK INTRA:                  -0.526
REMARK UNBOUND:                -0.576
REMARK  Name = /home/qwerty/github/datacon2025hack/step_04_hit_selection/docking/ligands/lig_534.pdb
REMARK  4 active torsions:
REMARK  status: ('A' for Active; 'I' for Inactive)
REMARK    1  A    between atoms: C1_2  and  C11_14
REMARK    2  A    between atoms: N1_3  and  C2_4
REMARK    3  A    between atoms: C2_4  and  C3_5
REMARK    4  A    between atoms: N2_16  and  C12_17
REMARK                            x       y       z     vdW  Elec       q    Type
REMARK                         _______ _______ _______ _____ _____    ______ ____
ROOT
ATOM      1  O1  UNL     1      17.303  13.813  34.378  0.00  0.00    -0.265 OA
ATOM      2  C1  UNL     1      17.555  13.390  35.538  0.00  0.00    +0.300 C 
ATOM      3  N1  UNL     1      16.777  13.850  36.654  0.00  0.00    -0.303 N 
ATOM      4  H1  UNL     1      17.020  13.533  37.620  0.00  0.00    +0.149 HD
ENDROOT
BRANCH   2   5
ATOM      5  C11 UNL     1      18.646  12.417  35.736  0.00  0.00    +0.303 C 
ATOM      6  O3  UNL     1      19.797  12.830  36.043  0.00  0.00    -0.265 OA
ATOM      7  N2  UNL     1      18.411  11.012  35.543  0.00  0.00    -0.276 N 
ATOM      8  H11 UNL     1      17.575  10.725  34.984  0.00  0.00    +0.155 HD
BRANCH   7   9
ATOM      9  C12 UNL     1      19.315   9.979  35.974  0.00  0.00    +0.052 A 
ATOM     10  C13 UNL     1      19.111   9.354  37.209  0.00  0.00    +0.134 A 
ATOM     11  N3  UNL     1      19.972   8.397  37.644  0.00  0.00    -0.258 NA
ATOM     12  C14 UNL     1      21.065   8.025  36.927  0.00  0.00    +0.045 A 
ATOM     13  C15 UNL     1      21.314   8.624  35.673  0.00  0.00    -0.024 A 
ATOM     14  C16 UNL     1      20.442   9.622  35.218  0.00  0.00    +0.030 A 
ATOM     15  C17 UNL     1      22.557   8.307  34.876  0.00  0.00    +0.037 C 
ATOM     16  C18 UNL     1      23.190   6.972  35.282  0.00  0.00    +0.005 C 
ATOM     17  C19 UNL     1      23.314   6.879  36.804  0.00  0.00    +0.006 C 
ATOM     18  C20 UNL     1      21.927   6.907  37.454  0.00  0.00    +0.056 C 
ENDBRANCH   7   9
ENDBRANCH   2   5
BRANCH   3  19
ATOM     19  C2  UNL     1      15.643  14.758  36.496  0.00  0.00    +0.140 C 
BRANCH  19  20
ATOM     20  C3  UNL     1      14.391  13.979  36.197  0.00  0.00    -0.030 A 
ATOM     21  C4  UNL     1      13.431  14.505  35.300  0.00  0.00    +0.009 A 
ATOM     22  C5  UNL     1      12.247  13.799  35.031  0.00  0.00    +0.046 A 
ATOM     23  C6  UNL     1      12.047  12.579  35.673  0.00  0.00    +0.124 A 
ATOM     24  C7  UNL     1      12.964  12.065  36.542  0.00  0.00    -0.002 A 
ATOM     25  C8  UNL     1      14.150  12.741  36.830  0.00  0.00    +0.012 A 
ATOM     26  C9  UNL     1      12.483  10.765  37.076  0.00  0.00    +0.080 C 
ATOM     27  C10 UNL     1      11.116  10.593  36.368  0.00  0.00    +0.234 C 
ATOM     28  O2  UNL     1      10.955  11.749  35.544  0.00  0.00    -0.491 OA
ENDBRANCH  19  20
ENDBRANCH   3  19
TORSDOF 4
ENDMDL
MODEL 8
REMARK VINA RESULT:    -6.377     14.365     17.037
REMARK INTER + INTRA:          -8.444
REMARK INTER:                  -8.098
REMARK INTRA:                  -0.346
REMARK UNBOUND:                -0.576
REMARK  Name = /home/qwerty/github/datacon2025hack/step_04_hit_selection/docking/ligands/lig_534.pdb
REMARK  4 active torsions:
REMARK  status: ('A' for Active; 'I' for Inactive)
REMARK    1  A    between atoms: C1_2  and  C11_14
REMARK    2  A    between atoms: N1_3  and  C2_4
REMARK    3  A    between atoms: C2_4  and  C3_5
REMARK    4  A    between atoms: N2_16  and  C12_17
REMARK                            x       y       z     vdW  Elec       q    Type
REMARK                         _______ _______ _______ _____ _____    ______ ____
ROOT
ATOM      1  O1  UNL     1       7.577  10.214  28.912  0.00  0.00    -0.265 OA
ATOM      2  C1  UNL     1       7.874  10.528  27.728  0.00  0.00    +0.300 C 
ATOM      3  N1  UNL     1       8.218  11.886  27.411  0.00  0.00    -0.303 N 
ATOM      4  H1  UNL     1       8.417  12.150  26.419  0.00  0.00    +0.149 HD
ENDROOT
BRANCH   2   5
ATOM      5  C11 UNL     1       7.871   9.491  26.679  0.00  0.00    +0.303 C 
ATOM      6  O3  UNL     1       7.163   8.458  26.829  0.00  0.00    -0.265 OA
ATOM      7  N2  UNL     1       8.696   9.637  25.510  0.00  0.00    -0.276 N 
ATOM      8  H11 UNL     1       9.497  10.307  25.554  0.00  0.00    +0.155 HD
BRANCH   7   9
ATOM      9  C12 UNL     1       8.557   8.836  24.324  0.00  0.00    +0.052 A 
ATOM     10  C13 UNL     1       8.072   9.421  23.149  0.00  0.00    +0.134 A 
ATOM     11  N3  UNL     1       7.908   8.673  22.026  0.00  0.00    -0.258 NA
ATOM     12  C14 UNL     1       8.177   7.340  21.998  0.00  0.00    +0.045 A 
ATOM     13  C15 UNL     1       8.671   6.704  23.157  0.00  0.00    -0.024 A 
ATOM     14  C16 UNL     1       8.832   7.460  24.325  0.00  0.00    +0.030 A 
ATOM     15  C17 UNL     1       8.906   5.212  23.202  0.00  0.00    +0.037 C 
ATOM     16  C18 UNL     1       9.062   4.600  21.806  0.00  0.00    +0.005 C 
ATOM     17  C19 UNL     1       7.944   5.085  20.881  0.00  0.00    +0.006 C 
ATOM     18  C20 UNL     1       8.031   6.603  20.692  0.00  0.00    +0.056 C 
ENDBRANCH   7   9
ENDBRANCH   2   5
BRANCH   3  19
ATOM     19  C2  UNL     1       8.302  12.929  28.429  0.00  0.00    +0.140 C 
BRANCH  19  20
ATOM     20  C3  UNL     1       9.727  13.386  28.589  0.00  0.00    -0.030 A 
ATOM     21  C4  UNL     1      10.294  13.489  29.882  0.00  0.00    +0.009 A 
ATOM     22  C5  UNL     1      11.615  13.937  30.046  0.00  0.00    +0.046 A 
ATOM     23  C6  UNL     1      12.341  14.279  28.907  0.00  0.00    +0.124 A 
ATOM     24  C7  UNL     1      11.802  14.188  27.657  0.00  0.00    -0.002 A 
ATOM     25  C8  UNL     1      10.494  13.746  27.461  0.00  0.00    +0.012 A 
ATOM     26  C9  UNL     1      12.799  14.622  26.645  0.00  0.00    +0.080 C 
ATOM     27  C10 UNL     1      14.028  14.987  27.513  0.00  0.00    +0.234 C 
ATOM     28  O2  UNL     1      13.637  14.741  28.865  0.00  0.00    -0.491 OA
ENDBRANCH  19  20
ENDBRANCH   3  19
TORSDOF 4
ENDMDL
MODEL 9
REMARK VINA RESULT:    -6.221     11.040     14.895
REMARK INTER + INTRA:          -8.251
REMARK INTER:                  -7.683
REMARK INTRA:                  -0.568
REMARK UNBOUND:                -0.576
REMARK  Name = /home/qwerty/github/datacon2025hack/step_04_hit_selection/docking/ligands/lig_534.pdb
REMARK  4 active torsions:
REMARK  status: ('A' for Active; 'I' for Inactive)
REMARK    1  A    between atoms: C1_2  and  C11_14
REMARK    2  A    between atoms: N1_3  and  C2_4
REMARK    3  A    between atoms: C2_4  and  C3_5
REMARK    4  A    between atoms: N2_16  and  C12_17
REMARK                            x       y       z     vdW  Elec       q    Type
REMARK                         _______ _______ _______ _____ _____    ______ ____
ROOT
ATOM      1  O1  UNL     1      13.154  11.940  35.778  0.00  0.00    -0.265 OA
ATOM      2  C1  UNL     1      13.012  13.053  35.204  0.00  0.00    +0.300 C 
ATOM      3  N1  UNL     1      13.754  14.195  35.659  0.00  0.00    -0.303 N 
ATOM      4  H1  UNL     1      13.597  15.126  35.211  0.00  0.00    +0.149 HD
ENDROOT
BRANCH   2   5
ATOM      5  C11 UNL     1      12.085  13.168  34.062  0.00  0.00    +0.303 C 
ATOM      6  O3  UNL     1      10.998  13.792  34.205  0.00  0.00    -0.265 OA
ATOM      7  N2  UNL     1      12.399  12.543  32.805  0.00  0.00    -0.276 N 
ATOM      8  H11 UNL     1      13.112  11.779  32.800  0.00  0.00    +0.155 HD
BRANCH   7   9
ATOM      9  C12 UNL     1      11.711  12.825  31.574  0.00  0.00    +0.052 A 
ATOM     10  C13 UNL     1      12.061  13.958  30.831  0.00  0.00    +0.134 A 
ATOM     11  N3  UNL     1      11.403  14.256  29.680  0.00  0.00    -0.258 NA
ATOM     12  C14 UNL     1      10.375  13.496  29.216  0.00  0.00    +0.045 A 
ATOM     13  C15 UNL     1       9.985  12.341  29.928  0.00  0.00    -0.024 A 
ATOM     14  C16 UNL     1      10.646  12.030  31.123  0.00  0.00    +0.030 A 
ATOM     15  C17 UNL     1       8.797  11.511  29.501  0.00  0.00    +0.037 C 
ATOM     16  C18 UNL     1       8.430  11.724  28.029  0.00  0.00    +0.005 C 
ATOM     17  C19 UNL     1       8.370  13.218  27.703  0.00  0.00    +0.006 C 
ATOM     18  C20 UNL     1       9.747  13.861  27.896  0.00  0.00    +0.056 C 
ENDBRANCH   7   9
ENDBRANCH   2   5
BRANCH   3  19
ATOM     19  C2  UNL     1      14.734  14.110  36.740  0.00  0.00    +0.140 C 
BRANCH  19  20
ATOM     20  C3  UNL     1      16.081  13.728  36.191  0.00  0.00    -0.030 A 
ATOM     21  C4  UNL     1      16.577  14.366  35.029  0.00  0.00    +0.009 A 
ATOM     22  C5  UNL     1      17.823  14.001  34.494  0.00  0.00    +0.046 A 
ATOM     23  C6  UNL     1      18.547  12.998  35.134  0.00  0.00    +0.124 A 
ATOM     24  C7  UNL     1      18.077  12.374  36.252  0.00  0.00    -0.002 A 
ATOM     25  C8  UNL     1      16.844  12.714  36.809  0.00  0.00    +0.012 A 
ATOM     26  C9  UNL     1      19.052  11.350  36.707  0.00  0.00    +0.080 C 
ATOM     27  C10 UNL     1      20.188  11.476  35.663  0.00  0.00    +0.234 C 
ATOM     28  O2  UNL     1      19.776  12.502  34.759  0.00  0.00    -0.491 OA
ENDBRANCH  19  20
ENDBRANCH   3  19
TORSDOF 4
ENDMDL
