REMARK  Name = /home/qwerty/github/datacon2025hack/step_04_hit_selection/docking/ligands/lig_382.pdb
REMARK  6 active torsions:
REMARK  status: ('A' for Active; 'I' for Inactive)
REMARK    1  A    between atoms: C1_1  and  C2_2
REMARK    2  A    between atoms: C6_6  and  N1_7
REMARK    3  A    between atoms: C11_14  and  C12_15
REMARK    4  A    between atoms: N3_17  and  C13_18
REMARK    5  A    between atoms: C16_21  and  N4_22
REMARK    6  A    between atoms: C19_25  and  N5_26
REMARK                            x       y       z     vdW  Elec       q    Type
REMARK                         _______ _______ _______ _____ _____    ______ ____
ROOT
ATOM      1  C12 UNL     1      -1.532  -0.646   1.148  0.00  0.00    +0.222 C 
ATOM      2  O2  UNL     1      -0.978   0.441   1.463  0.00  0.00    -0.275 OA
ATOM      3  N3  UNL     1      -0.766  -1.713   0.559  0.00  0.00    -0.285 N 
ATOM      4  H15 UNL     1      -1.291  -2.499   0.116  0.00  0.00    +0.155 HD
ENDROOT
BRANCH   1  12
ATOM      5  N1  UNL     1      -7.543  -0.400  -0.392  0.00  0.00    -0.269 N 
ATOM      6  C7  UNL     1      -6.142  -0.108  -0.541  0.00  0.00    +0.306 C 
ATOM      7  O1  UNL     1      -5.792   0.914  -1.194  0.00  0.00    -0.252 OA
ATOM      8  N2  UNL     1      -5.134  -0.979   0.021  0.00  0.00    -0.285 N 
ATOM      9  C8  UNL     1      -5.521  -2.249   0.658  0.00  0.00    +0.109 C 
ATOM     10  C9  UNL     1      -4.305  -3.008   1.205  0.00  0.00    +0.020 C 
ATOM     11  C10 UNL     1      -3.424  -2.081   2.050  0.00  0.00    +0.016 C 
ATOM     12  C11 UNL     1      -3.027  -0.776   1.304  0.00  0.00    +0.093 C 
ATOM     13  C28 UNL     1      -3.709  -0.626  -0.071  0.00  0.00    +0.122 C 
ATOM     14  H7  UNL     1      -7.841  -1.391  -0.258  0.00  0.00    +0.156 HD
BRANCH   5  20
ATOM     15  C1  UNL     1      -9.174   4.305   0.013  0.00  0.00    +0.044 C 
ATOM     16  C2  UNL     1      -9.407   2.869  -0.353  0.00  0.00    -0.049 A 
ATOM     17  C3  UNL     1     -10.627   2.472  -0.918  0.00  0.00    +0.003 A 
ATOM     18  C4  UNL     1     -10.835   1.138  -1.275  0.00  0.00    +0.002 A 
ATOM     19  C5  UNL     1      -9.819   0.196  -1.093  0.00  0.00    +0.023 A 
ATOM     20  C6  UNL     1      -8.576   0.584  -0.569  0.00  0.00    +0.035 A 
ATOM     21  C29 UNL     1      -8.381   1.924  -0.187  0.00  0.00    +0.026 A 
ENDBRANCH   5  20
ENDBRANCH   1  12
BRANCH   3  22
ATOM     22  C13 UNL     1       0.661  -1.682   0.379  0.00  0.00    +0.034 A 
ATOM     23  C14 UNL     1       1.511  -1.083   1.325  0.00  0.00    +0.025 A 
ATOM     24  C15 UNL     1       2.893  -1.057   1.116  0.00  0.00    +0.025 A 
ATOM     25  C16 UNL     1       3.454  -1.652  -0.027  0.00  0.00    +0.030 A 
ATOM     26  C26 UNL     1       2.604  -2.276  -0.954  0.00  0.00    +0.025 A 
ATOM     27  C27 UNL     1       1.222  -2.297  -0.748  0.00  0.00    +0.025 A 
BRANCH  25  28
ATOM     28  N4  UNL     1       4.874  -1.587  -0.269  0.00  0.00    -0.330 N 
ATOM     29  C17 UNL     1       5.375  -1.268  -1.613  0.00  0.00    +0.106 C 
ATOM     30  C18 UNL     1       6.791  -0.670  -1.558  0.00  0.00    +0.038 C 
ATOM     31  C19 UNL     1       6.935   0.262  -0.330  0.00  0.00    +0.060 C 
ATOM     32  C24 UNL     1       6.751  -0.565   0.977  0.00  0.00    +0.038 C 
ATOM     33  C25 UNL     1       5.843  -1.797   0.813  0.00  0.00    +0.106 C 
BRANCH  31  34
ATOM     34  N5  UNL     1       8.251   0.955  -0.336  0.00  0.00    -0.299 NA
ATOM     35  C20 UNL     1       8.420   1.846   0.820  0.00  0.00    +0.085 C 
ATOM     36  C21 UNL     1       9.442   2.890   0.419  0.00  0.00    +0.017 C 
ATOM     37  C22 UNL     1       9.324   2.992  -1.088  0.00  0.00    +0.017 C 
ATOM     38  C23 UNL     1       8.433   1.828  -1.508  0.00  0.00    +0.085 C 
ENDBRANCH  31  34
ENDBRANCH  25  28
ENDBRANCH   3  22
TORSDOF 5
