REMARK  Name = /home/qwerty/github/datacon2025hack/step_04_hit_selection/docking/ligands/lig_354.pdb
REMARK  7 active torsions:
REMARK  status: ('A' for Active; 'I' for Inactive)
REMARK    1  A    between atoms: C1_1  and  C2_2
REMARK    2  A    between atoms: N1_10  and  C9_11
REMARK    3  A    between atoms: C9_11  and  C10_12
REMARK    4  A    between atoms: N2_14  and  C11_15
REMARK    5  A    between atoms: C16_21  and  O3_22
REMARK    6  A    between atoms: O3_22  and  C17_23
REMARK    7  A    between atoms: C17_23  and  C18_24
REMARK                            x       y       z     vdW  Elec       q    Type
REMARK                         _______ _______ _______ _____ _____    ______ ____
ROOT
ATOM      1  C10 UNL     1       0.233  -2.765  -1.958  0.00  0.00    +0.235 C 
ATOM      2  O2  UNL     1      -0.783  -2.497  -2.657  0.00  0.00    -0.274 OA
ATOM      3  N2  UNL     1       0.087  -3.286  -0.628  0.00  0.00    -0.281 N 
ATOM      4  H9  UNL     1       0.908  -3.767  -0.195  0.00  0.00    +0.155 HD
ENDROOT
BRANCH   3   5
ATOM      5  C11 UNL     1      -1.172  -3.348   0.059  0.00  0.00    +0.078 A 
ATOM      6  C12 UNL     1      -1.533  -4.539   0.705  0.00  0.00    +0.065 A 
ATOM      7  C13 UNL     1      -2.748  -4.636   1.386  0.00  0.00    +0.125 A 
ATOM      8  F1  UNL     1      -3.093  -5.796   1.995  0.00  0.00    -0.205 F 
ATOM      9  C14 UNL     1      -3.608  -3.539   1.436  0.00  0.00    +0.042 A 
ATOM     10  C15 UNL     1      -3.249  -2.337   0.822  0.00  0.00    +0.050 A 
ATOM     11  C16 UNL     1      -2.018  -2.220   0.144  0.00  0.00    +0.142 A 
BRANCH  11  12
ATOM     12  O3  UNL     1      -1.596  -1.011  -0.437  0.00  0.00    -0.488 OA
BRANCH  12  13
ATOM     13  C17 UNL     1      -2.278   0.241  -0.351  0.00  0.00    +0.260 C 
BRANCH  13  14
ATOM     14  C18 UNL     1      -2.096   0.880   1.036  0.00  0.00    +0.156 C 
ATOM     15  C19 UNL     1      -0.641   1.263   1.297  0.00  0.00    +0.037 C 
ATOM     16  C20 UNL     1      -0.636   2.746   1.097  0.00  0.00    +0.031 C 
ATOM     17  C21 UNL     1      -2.063   3.128   1.413  0.00  0.00    +0.160 C 
ATOM     18  O4  UNL     1      -2.903   2.036   1.119  0.00  0.00    -0.373 OA
ENDBRANCH  13  14
ENDBRANCH  12  13
ENDBRANCH  11  12
ENDBRANCH   3   5
BRANCH   1  19
ATOM     19  C9  UNL     1       1.599  -2.522  -2.520  0.00  0.00    +0.213 C 
BRANCH  19  29
ATOM     20  C1  UNL     1       2.477   4.577  -0.142  0.00  0.00    +0.044 C 
ATOM     21  C2  UNL     1       2.572   3.082  -0.213  0.00  0.00    -0.050 A 
ATOM     22  C3  UNL     1       3.175   2.355   0.844  0.00  0.00    +0.004 A 
ATOM     23  C4  UNL     1       3.284   0.955   0.780  0.00  0.00    +0.014 A 
ATOM     24  C5  UNL     1       2.798   0.312  -0.355  0.00  0.00    +0.049 A 
ATOM     25  C6  UNL     1       2.220   1.013  -1.390  0.00  0.00    +0.050 A 
ATOM     26  C7  UNL     1       2.098   2.400  -1.354  0.00  0.00    +0.017 A 
ATOM     27  C8  UNL     1       1.793   0.045  -2.394  0.00  0.00    +0.254 C 
ATOM     28  O1  UNL     1       1.175   0.316  -3.459  0.00  0.00    -0.270 OA
ATOM     29  N1  UNL     1       2.145  -1.279  -1.983  0.00  0.00    -0.225 N 
ATOM     30  C22 UNL     1       2.746  -1.105  -0.697  0.00  0.00    +0.254 C 
ATOM     31  O5  UNL     1       3.148  -2.050   0.033  0.00  0.00    -0.270 OA
ENDBRANCH  19  29
ENDBRANCH   1  19
TORSDOF 6
