REMARK  Name = /home/qwerty/github/datacon2025hack/step_04_hit_selection/docking/ligands/lig_635.pdb
REMARK  4 active torsions:
REMARK  status: ('A' for Active; 'I' for Inactive)
REMARK    1  A    between atoms: C1_1  and  O1_2
REMARK    2  A    between atoms: O1_2  and  C2_3
REMARK    3  A    between atoms: C5_7  and  C6_9
REMARK    4  A    between atoms: N3_14  and  C9_15
REMARK                            x       y       z     vdW  Elec       q    Type
REMARK                         _______ _______ _______ _____ _____    ______ ____
ROOT
ATOM      1  C6  UNL     1       0.805  -1.646  -0.699  0.00  0.00    +0.302 C 
ATOM      2  O3  UNL     1       1.017  -2.857  -0.982  0.00  0.00    -0.265 OA
ATOM      3  N2  UNL     1      -0.553  -1.190  -0.519  0.00  0.00    -0.291 N 
ATOM      4  C7  UNL     1      -1.593  -2.169  -0.175  0.00  0.00    +0.127 C 
ATOM      5  C8  UNL     1      -2.750  -1.496   0.570  0.00  0.00    +0.124 C 
ATOM      6  N3  UNL     1      -3.242  -0.313  -0.152  0.00  0.00    -0.327 N 
ATOM      7  C15 UNL     1      -2.424   0.291  -1.214  0.00  0.00    +0.124 C 
ATOM      8  C16 UNL     1      -0.933   0.186  -0.878  0.00  0.00    +0.127 C 
ENDROOT
BRANCH   1  13
ATOM      9  C2  UNL     1       5.911   0.719   0.854  0.00  0.00    +0.219 A 
ATOM     10  C3  UNL     1       4.682   0.117   0.579  0.00  0.00    +0.111 A 
ATOM     11  C4  UNL     1       4.491  -0.489  -0.672  0.00  0.00    +0.132 A 
ATOM     12  N1  UNL     1       3.262  -1.152  -1.010  0.00  0.00    -0.262 N 
ATOM     13  C5  UNL     1       1.966  -0.742  -0.544  0.00  0.00    +0.304 C 
ATOM     14  O2  UNL     1       1.815   0.391  -0.012  0.00  0.00    -0.265 OA
ATOM     15  N4  UNL     1       5.516  -0.502  -1.565  0.00  0.00    -0.220 NA
ATOM     16  C17 UNL     1       6.707   0.087  -1.282  0.00  0.00    +0.227 A 
ATOM     17  N5  UNL     1       6.897   0.695  -0.083  0.00  0.00    -0.201 NA
ATOM     18  H5  UNL     1       3.311  -1.916  -1.722  0.00  0.00    +0.157 HD
BRANCH   9  20
ATOM     19  C1  UNL     1       7.338   1.965   2.448  0.00  0.00    +0.279 C 
ATOM     20  O1  UNL     1       6.114   1.334   2.093  0.00  0.00    -0.480 OA
ENDBRANCH   9  20
ENDBRANCH   1  13
BRANCH   6  21
ATOM     21  C9  UNL     1      -4.568   0.194   0.123  0.00  0.00    +0.031 A 
ATOM     22  C10 UNL     1      -5.082   0.180   1.433  0.00  0.00    +0.023 A 
ATOM     23  C11 UNL     1      -6.365   0.667   1.697  0.00  0.00    +0.003 A 
ATOM     24  C12 UNL     1      -7.152   1.171   0.660  0.00  0.00    +0.020 A 
ATOM     25  C13 UNL     1      -6.657   1.188  -0.647  0.00  0.00    +0.043 A 
ATOM     26 CL1  UNL     1      -7.648   1.814  -1.952  0.00  0.00    -0.083 Cl
ATOM     27  C14 UNL     1      -5.372   0.702  -0.916  0.00  0.00    +0.043 A 
ENDBRANCH   6  21
TORSDOF 3
