MODEL 1
REMARK VINA RESULT:    -5.761      0.000      0.000
REMARK INTER + INTRA:          -7.390
REMARK INTER:                  -6.772
REMARK INTRA:                  -0.619
REMARK UNBOUND:                -0.619
REMARK  Name = /home/qwerty/github/datacon2025hack/step_04_hit_selection/docking/ligands/lig_735.pdb
REMARK  6 active torsions:
REMARK  status: ('A' for Active; 'I' for Inactive)
REMARK    1  A    between atoms: C2_2  and  C3_3
REMARK    2  A    between atoms: C2_2  and  C4_4
REMARK    3  A    between atoms: C4_4  and  N1_5
REMARK    4  A    between atoms: C10_12  and  C11_14
REMARK    5  A    between atoms: C13_16  and  C14_17
REMARK    6  A    between atoms: C15_19  and  C16_20
REMARK                            x       y       z     vdW  Elec       q    Type
REMARK                         _______ _______ _______ _____ _____    ______ ____
ROOT
ATOM      1  N1  UNL     1       8.720  11.664  28.824  0.00  0.00    -0.294 NA
ATOM      2  C5  UNL     1       8.295  12.602  27.779  0.00  0.00    +0.085 C 
ATOM      3  C6  UNL     1       9.377  13.656  27.682  0.00  0.00    +0.020 C 
ATOM      4  C7  UNL     1       9.921  13.763  29.101  0.00  0.00    +0.010 C 
ATOM      5  C8  UNL     1      11.445  14.000  29.127  0.00  0.00    +0.024 C 
ATOM      6  C9  UNL     1      11.995  13.798  30.543  0.00  0.00    +0.108 C 
ATOM      7  N2  UNL     1      11.564  12.509  31.108  0.00  0.00    -0.295 N 
ATOM      8  C10 UNL     1      12.241  11.987  32.262  0.00  0.00    +0.265 C 
ATOM      9  O1  UNL     1      12.747  10.834  32.214  0.00  0.00    -0.268 OA
ATOM     10  C17 UNL     1      10.654  11.639  30.353  0.00  0.00    +0.127 C 
ATOM     11  C18 UNL     1       9.474  12.461  29.806  0.00  0.00    +0.077 C 
ENDROOT
BRANCH   8  12
ATOM     12  C11 UNL     1      12.360  12.773  33.504  0.00  0.00    +0.129 A 
ATOM     13  C12 UNL     1      13.608  13.191  33.984  0.00  0.00    +0.056 A 
ATOM     14  C13 UNL     1      13.657  13.953  35.155  0.00  0.00    +0.042 A 
ATOM     15  C14 UNL     1      14.965  14.442  35.687  0.00  0.00    +0.066 C 
ATOM     16  N3  UNL     1      12.501  14.291  35.786  0.00  0.00    -0.237 NA
ATOM     17  C15 UNL     1      11.296  13.883  35.309  0.00  0.00    +0.127 A 
ATOM     18  C16 UNL     1      10.039  14.306  35.993  0.00  0.00    +0.088 C 
ATOM     19  N4  UNL     1      11.233  13.146  34.169  0.00  0.00    -0.228 NA
ENDBRANCH   8  12
BRANCH   1  20
ATOM     20  C4  UNL     1       7.575  10.961  29.438  0.00  0.00    +0.114 C 
BRANCH  20  22
ATOM     21  C1  UNL     1       8.591   8.909  28.509  0.00  0.00    +0.008 C 
ATOM     22  C2  UNL     1       7.813   9.468  29.447  0.00  0.00    -0.066 C 
ATOM     23  C3  UNL     1       7.182   8.598  30.501  0.00  0.00    +0.040 C 
ENDBRANCH  20  22
ENDBRANCH   1  20
TORSDOF 3
ENDMDL
MODEL 2
REMARK VINA RESULT:    -5.629     13.253     14.504
REMARK INTER + INTRA:          -7.235
REMARK INTER:                  -6.969
REMARK INTRA:                  -0.266
REMARK UNBOUND:                -0.619
REMARK  Name = /home/qwerty/github/datacon2025hack/step_04_hit_selection/docking/ligands/lig_735.pdb
REMARK  6 active torsions:
REMARK  status: ('A' for Active; 'I' for Inactive)
REMARK    1  A    between atoms: C2_2  and  C3_3
REMARK    2  A    between atoms: C2_2  and  C4_4
REMARK    3  A    between atoms: C4_4  and  N1_5
REMARK    4  A    between atoms: C10_12  and  C11_14
REMARK    5  A    between atoms: C13_16  and  C14_17
REMARK    6  A    between atoms: C15_19  and  C16_20
REMARK                            x       y       z     vdW  Elec       q    Type
REMARK                         _______ _______ _______ _____ _____    ______ ____
ROOT
ATOM      1  N1  UNL     1      21.730   2.091  28.148  0.00  0.00    -0.294 NA
ATOM      2  C5  UNL     1      21.794   0.640  28.358  0.00  0.00    +0.085 C 
ATOM      3  C6  UNL     1      21.444   0.401  29.811  0.00  0.00    +0.020 C 
ATOM      4  C7  UNL     1      21.965   1.640  30.528  0.00  0.00    +0.010 C 
ATOM      5  C8  UNL     1      21.042   2.079  31.683  0.00  0.00    +0.024 C 
ATOM      6  C9  UNL     1      21.426   3.479  32.175  0.00  0.00    +0.108 C 
ATOM      7  N2  UNL     1      21.511   4.435  31.059  0.00  0.00    -0.295 N 
ATOM      8  C10 UNL     1      21.516   5.844  31.340  0.00  0.00    +0.265 C 
ATOM      9  O1  UNL     1      20.654   6.587  30.799  0.00  0.00    -0.268 OA
ATOM     10  C17 UNL     1      21.312   3.979  29.678  0.00  0.00    +0.127 C 
ATOM     11  C18 UNL     1      22.139   2.706  29.421  0.00  0.00    +0.077 C 
ENDROOT
BRANCH   8  12
ATOM     12  C11 UNL     1      22.509   6.441  32.253  0.00  0.00    +0.129 A 
ATOM     13  C12 UNL     1      23.385   7.445  31.819  0.00  0.00    +0.056 A 
ATOM     14  C13 UNL     1      24.290   7.990  32.735  0.00  0.00    +0.042 A 
ATOM     15  C14 UNL     1      25.222   9.082  32.321  0.00  0.00    +0.066 C 
ATOM     16  N3  UNL     1      24.287   7.554  34.023  0.00  0.00    -0.237 NA
ATOM     17  C15 UNL     1      23.431   6.582  34.433  0.00  0.00    +0.127 A 
ATOM     18  C16 UNL     1      23.416   6.154  35.862  0.00  0.00    +0.088 C 
ATOM     19  N4  UNL     1      22.542   6.047  33.555  0.00  0.00    -0.228 NA
ENDBRANCH   8  12
BRANCH   1  20
ATOM     20  C4  UNL     1      22.579   2.527  27.020  0.00  0.00    +0.114 C 
BRANCH  20  22
ATOM     21  C1  UNL     1      20.504   3.313  25.933  0.00  0.00    +0.008 C 
ATOM     22  C2  UNL     1      21.821   3.479  26.123  0.00  0.00    -0.066 C 
ATOM     23  C3  UNL     1      22.532   4.615  25.438  0.00  0.00    +0.040 C 
ENDBRANCH  20  22
ENDBRANCH   1  20
TORSDOF 3
ENDMDL
MODEL 3
REMARK VINA RESULT:    -5.554     14.510     16.726
REMARK INTER + INTRA:          -7.146
REMARK INTER:                  -7.136
REMARK INTRA:                  -0.011
REMARK UNBOUND:                -0.619
REMARK  Name = /home/qwerty/github/datacon2025hack/step_04_hit_selection/docking/ligands/lig_735.pdb
REMARK  6 active torsions:
REMARK  status: ('A' for Active; 'I' for Inactive)
REMARK    1  A    between atoms: C2_2  and  C3_3
REMARK    2  A    between atoms: C2_2  and  C4_4
REMARK    3  A    between atoms: C4_4  and  N1_5
REMARK    4  A    between atoms: C10_12  and  C11_14
REMARK    5  A    between atoms: C13_16  and  C14_17
REMARK    6  A    between atoms: C15_19  and  C16_20
REMARK                            x       y       z     vdW  Elec       q    Type
REMARK                         _______ _______ _______ _____ _____    ______ ____
ROOT
ATOM      1  N1  UNL     1      21.616   1.873  28.194  0.00  0.00    -0.294 NA
ATOM      2  C5  UNL     1      22.824   2.442  27.587  0.00  0.00    +0.085 C 
ATOM      3  C6  UNL     1      22.397   3.043  26.265  0.00  0.00    +0.020 C 
ATOM      4  C7  UNL     1      21.249   2.154  25.804  0.00  0.00    +0.010 C 
ATOM      5  C8  UNL     1      20.139   2.954  25.092  0.00  0.00    +0.024 C 
ATOM      6  C9  UNL     1      18.884   2.092  24.919  0.00  0.00    +0.108 C 
ATOM      7  N2  UNL     1      18.476   1.476  26.193  0.00  0.00    -0.295 N 
ATOM      8  C10 UNL     1      17.155   0.925  26.315  0.00  0.00    +0.265 C 
ATOM      9  O1  UNL     1      16.401   1.326  27.242  0.00  0.00    -0.268 OA
ATOM     10  C17 UNL     1      19.291   1.666  27.399  0.00  0.00    +0.127 C 
ATOM     11  C18 UNL     1      20.775   1.414  27.076  0.00  0.00    +0.077 C 
ENDROOT
BRANCH   8  12
ATOM     12  C11 UNL     1      16.660  -0.099  25.376  0.00  0.00    +0.129 A 
ATOM     13  C12 UNL     1      17.097  -0.137  24.046  0.00  0.00    +0.056 A 
ATOM     14  C13 UNL     1      16.611  -1.145  23.207  0.00  0.00    +0.042 A 
ATOM     15  C14 UNL     1      17.072  -1.239  21.789  0.00  0.00    +0.066 C 
ATOM     16  N3  UNL     1      15.749  -2.073  23.702  0.00  0.00    -0.237 NA
ATOM     17  C15 UNL     1      15.335  -2.027  24.996  0.00  0.00    +0.127 A 
ATOM     18  C16 UNL     1      14.426  -3.085  25.527  0.00  0.00    +0.088 C 
ATOM     19  N4  UNL     1      15.804  -1.057  25.823  0.00  0.00    -0.228 NA
ENDBRANCH   8  12
BRANCH   1  20
ATOM     20  C4  UNL     1      21.931   0.783  29.139  0.00  0.00    +0.114 C 
BRANCH  20  22
ATOM     21  C1  UNL     1      21.967   2.144  31.201  0.00  0.00    +0.008 C 
ATOM     22  C2  UNL     1      21.427   1.120  30.524  0.00  0.00    -0.066 C 
ATOM     23  C3  UNL     1      20.323   0.314  31.155  0.00  0.00    +0.040 C 
ENDBRANCH  20  22
ENDBRANCH   1  20
TORSDOF 3
ENDMDL
MODEL 4
REMARK VINA RESULT:    -5.542      4.688      9.590
REMARK INTER + INTRA:          -7.132
REMARK INTER:                  -6.528
REMARK INTRA:                  -0.605
REMARK UNBOUND:                -0.619
REMARK  Name = /home/qwerty/github/datacon2025hack/step_04_hit_selection/docking/ligands/lig_735.pdb
REMARK  6 active torsions:
REMARK  status: ('A' for Active; 'I' for Inactive)
REMARK    1  A    between atoms: C2_2  and  C3_3
REMARK    2  A    between atoms: C2_2  and  C4_4
REMARK    3  A    between atoms: C4_4  and  N1_5
REMARK    4  A    between atoms: C10_12  and  C11_14
REMARK    5  A    between atoms: C13_16  and  C14_17
REMARK    6  A    between atoms: C15_19  and  C16_20
REMARK                            x       y       z     vdW  Elec       q    Type
REMARK                         _______ _______ _______ _____ _____    ______ ____
ROOT
ATOM      1  N1  UNL     1       8.683  11.578  28.787  0.00  0.00    -0.294 NA
ATOM      2  C5  UNL     1       7.550  11.185  29.632  0.00  0.00    +0.085 C 
ATOM      3  C6  UNL     1       7.236   9.745  29.286  0.00  0.00    +0.020 C 
ATOM      4  C7  UNL     1       7.602   9.628  27.812  0.00  0.00    +0.010 C 
ATOM      5  C8  UNL     1       8.222   8.257  27.471  0.00  0.00    +0.024 C 
ATOM      6  C9  UNL     1       8.849   8.286  26.073  0.00  0.00    +0.108 C 
ATOM      7  N2  UNL     1       9.762   9.430  25.917  0.00  0.00    -0.295 N 
ATOM      8  C10 UNL     1      10.696   9.439  24.825  0.00  0.00    +0.265 C 
ATOM      9  O1  UNL     1      11.926   9.575  25.064  0.00  0.00    -0.268 OA
ATOM     10  C17 UNL     1       9.916  10.405  27.004  0.00  0.00    +0.127 C 
ATOM     11  C18 UNL     1       8.533  10.829  27.529  0.00  0.00    +0.077 C 
ENDROOT
BRANCH   8  12
ATOM     12  C11 UNL     1      10.245   9.292  23.429  0.00  0.00    +0.129 A 
ATOM     13  C12 UNL     1      10.658   8.209  22.642  0.00  0.00    +0.056 A 
ATOM     14  C13 UNL     1      10.180   8.109  21.331  0.00  0.00    +0.042 A 
ATOM     15  C14 UNL     1      10.573   6.955  20.467  0.00  0.00    +0.066 C 
ATOM     16  N3  UNL     1       9.314   9.045  20.859  0.00  0.00    -0.237 NA
ATOM     17  C15 UNL     1       8.919  10.090  21.633  0.00  0.00    +0.127 A 
ATOM     18  C16 UNL     1       7.932  11.077  21.107  0.00  0.00    +0.088 C 
ATOM     19  N4  UNL     1       9.371  10.196  22.910  0.00  0.00    -0.228 NA
ENDBRANCH   8  12
BRANCH   1  20
ATOM     20  C4  UNL     1       8.730  13.037  28.566  0.00  0.00    +0.114 C 
BRANCH  20  22
ATOM     21  C1  UNL     1      10.516  13.521  30.203  0.00  0.00    +0.008 C 
ATOM     22  C2  UNL     1      10.090  13.586  28.933  0.00  0.00    -0.066 C 
ATOM     23  C3  UNL     1      10.974  14.208  27.885  0.00  0.00    +0.040 C 
ENDBRANCH  20  22
ENDBRANCH   1  20
TORSDOF 3
ENDMDL
MODEL 5
REMARK VINA RESULT:    -5.525     13.097     14.591
REMARK INTER + INTRA:          -7.112
REMARK INTER:                  -6.484
REMARK INTRA:                  -0.628
REMARK UNBOUND:                -0.619
REMARK  Name = /home/qwerty/github/datacon2025hack/step_04_hit_selection/docking/ligands/lig_735.pdb
REMARK  6 active torsions:
REMARK  status: ('A' for Active; 'I' for Inactive)
REMARK    1  A    between atoms: C2_2  and  C3_3
REMARK    2  A    between atoms: C2_2  and  C4_4
REMARK    3  A    between atoms: C4_4  and  N1_5
REMARK    4  A    between atoms: C10_12  and  C11_14
REMARK    5  A    between atoms: C13_16  and  C14_17
REMARK    6  A    between atoms: C15_19  and  C16_20
REMARK                            x       y       z     vdW  Elec       q    Type
REMARK                         _______ _______ _______ _____ _____    ______ ____
ROOT
ATOM      1  N1  UNL     1      21.716   1.985  28.307  0.00  0.00    -0.294 NA
ATOM      2  C5  UNL     1      21.865   0.525  28.296  0.00  0.00    +0.085 C 
ATOM      3  C6  UNL     1      21.422   0.039  29.659  0.00  0.00    +0.020 C 
ATOM      4  C7  UNL     1      21.797   1.176  30.601  0.00  0.00    +0.010 C 
ATOM      5  C8  UNL     1      20.759   1.372  31.725  0.00  0.00    +0.024 C 
ATOM      6  C9  UNL     1      21.005   2.695  32.457  0.00  0.00    +0.108 C 
ATOM      7  N2  UNL     1      21.109   3.820  31.513  0.00  0.00    -0.295 N 
ATOM      8  C10 UNL     1      20.994   5.164  32.007  0.00  0.00    +0.265 C 
ATOM      9  O1  UNL     1      20.127   5.933  31.513  0.00  0.00    -0.268 OA
ATOM     10  C17 UNL     1      21.051   3.578  30.067  0.00  0.00    +0.127 C 
ATOM     11  C18 UNL     1      21.982   2.412  29.691  0.00  0.00    +0.077 C 
ENDROOT
BRANCH   8  12
ATOM     12  C11 UNL     1      21.869   5.664  33.084  0.00  0.00    +0.129 A 
ATOM     13  C12 UNL     1      21.339   6.139  34.291  0.00  0.00    +0.056 A 
ATOM     14  C13 UNL     1      22.219   6.579  35.284  0.00  0.00    +0.042 A 
ATOM     15  C14 UNL     1      21.696   7.068  36.597  0.00  0.00    +0.066 C 
ATOM     16  N3  UNL     1      23.560   6.517  35.070  0.00  0.00    -0.237 NA
ATOM     17  C15 UNL     1      24.062   6.051  33.897  0.00  0.00    +0.127 A 
ATOM     18  C16 UNL     1      25.539   5.949  33.705  0.00  0.00    +0.088 C 
ATOM     19  N4  UNL     1      23.219   5.615  32.925  0.00  0.00    -0.228 NA
ENDBRANCH   8  12
BRANCH   1  20
ATOM     20  C4  UNL     1      22.617   2.641  27.338  0.00  0.00    +0.114 C 
BRANCH  20  22
ATOM     21  C1  UNL     1      20.481   3.366  26.332  0.00  0.00    +0.008 C 
ATOM     22  C2  UNL     1      21.820   3.420  26.317  0.00  0.00    -0.066 C 
ATOM     23  C3  UNL     1      22.517   4.258  25.278  0.00  0.00    +0.040 C 
ENDBRANCH  20  22
ENDBRANCH   1  20
TORSDOF 3
ENDMDL
MODEL 6
REMARK VINA RESULT:    -5.480      4.327      9.455
REMARK INTER + INTRA:          -7.060
REMARK INTER:                  -6.441
REMARK INTRA:                  -0.619
REMARK UNBOUND:                -0.619
REMARK  Name = /home/qwerty/github/datacon2025hack/step_04_hit_selection/docking/ligands/lig_735.pdb
REMARK  6 active torsions:
REMARK  status: ('A' for Active; 'I' for Inactive)
REMARK    1  A    between atoms: C2_2  and  C3_3
REMARK    2  A    between atoms: C2_2  and  C4_4
REMARK    3  A    between atoms: C4_4  and  N1_5
REMARK    4  A    between atoms: C10_12  and  C11_14
REMARK    5  A    between atoms: C13_16  and  C14_17
REMARK    6  A    between atoms: C15_19  and  C16_20
REMARK                            x       y       z     vdW  Elec       q    Type
REMARK                         _______ _______ _______ _____ _____    ______ ____
ROOT
ATOM      1  N1  UNL     1      10.178  13.005  28.461  0.00  0.00    -0.294 NA
ATOM      2  C5  UNL     1       9.177  13.418  29.452  0.00  0.00    +0.085 C 
ATOM      3  C6  UNL     1       8.218  12.256  29.602  0.00  0.00    +0.020 C 
ATOM      4  C7  UNL     1       8.199  11.608  28.224  0.00  0.00    +0.010 C 
ATOM      5  C8  UNL     1       8.096  10.070  28.302  0.00  0.00    +0.024 C 
ATOM      6  C9  UNL     1       8.384   9.443  26.933  0.00  0.00    +0.108 C 
ATOM      7  N2  UNL     1       9.647   9.946  26.368  0.00  0.00    -0.295 N 
ATOM      8  C10 UNL     1      10.259   9.239  25.278  0.00  0.00    +0.265 C 
ATOM      9  O1  UNL     1      11.449   8.841  25.388  0.00  0.00    -0.268 OA
ATOM     10  C17 UNL     1      10.413  10.979  27.075  0.00  0.00    +0.127 C 
ATOM     11  C18 UNL     1       9.477  12.118  27.518  0.00  0.00    +0.077 C 
ENDROOT
BRANCH   8  12
ATOM     12  C11 UNL     1       9.521   8.966  24.030  0.00  0.00    +0.129 A 
ATOM     13  C12 UNL     1       9.180   7.659  23.658  0.00  0.00    +0.056 A 
ATOM     14  C13 UNL     1       8.461   7.462  22.475  0.00  0.00    +0.042 A 
ATOM     15  C14 UNL     1       8.052   6.087  22.056  0.00  0.00    +0.066 C 
ATOM     16  N3  UNL     1       8.090   8.536  21.728  0.00  0.00    -0.237 NA
ATOM     17  C15 UNL     1       8.424   9.799  22.101  0.00  0.00    +0.127 A 
ATOM     18  C16 UNL     1       7.965  10.964  21.288  0.00  0.00    +0.088 C 
ATOM     19  N4  UNL     1       9.118  10.005  23.251  0.00  0.00    -0.228 NA
ENDBRANCH   8  12
BRANCH   1  20
ATOM     20  C4  UNL     1      10.797  14.162  27.783  0.00  0.00    +0.114 C 
BRANCH  20  22
ATOM     21  C1  UNL     1      13.051  14.766  26.970  0.00  0.00    +0.008 C 
ATOM     22  C2  UNL     1      12.305  14.061  27.833  0.00  0.00    -0.066 C 
ATOM     23  C3  UNL     1      12.980  13.174  28.844  0.00  0.00    +0.040 C 
ENDBRANCH  20  22
ENDBRANCH   1  20
TORSDOF 3
ENDMDL
MODEL 7
REMARK VINA RESULT:    -5.463      4.745      9.644
REMARK INTER + INTRA:          -7.040
REMARK INTER:                  -6.436
REMARK INTRA:                  -0.604
REMARK UNBOUND:                -0.619
REMARK  Name = /home/qwerty/github/datacon2025hack/step_04_hit_selection/docking/ligands/lig_735.pdb
REMARK  6 active torsions:
REMARK  status: ('A' for Active; 'I' for Inactive)
REMARK    1  A    between atoms: C2_2  and  C3_3
REMARK    2  A    between atoms: C2_2  and  C4_4
REMARK    3  A    between atoms: C4_4  and  N1_5
REMARK    4  A    between atoms: C10_12  and  C11_14
REMARK    5  A    between atoms: C13_16  and  C14_17
REMARK    6  A    between atoms: C15_19  and  C16_20
REMARK                            x       y       z     vdW  Elec       q    Type
REMARK                         _______ _______ _______ _____ _____    ______ ____
ROOT
ATOM      1  N1  UNL     1       8.699  11.561  28.841  0.00  0.00    -0.294 NA
ATOM      2  C5  UNL     1       7.560  11.145  29.667  0.00  0.00    +0.085 C 
ATOM      3  C6  UNL     1       7.254   9.712  29.285  0.00  0.00    +0.020 C 
ATOM      4  C7  UNL     1       7.633   9.630  27.812  0.00  0.00    +0.010 C 
ATOM      5  C8  UNL     1       8.261   8.270  27.444  0.00  0.00    +0.024 C 
ATOM      6  C9  UNL     1       8.900   8.333  26.052  0.00  0.00    +0.108 C 
ATOM      7  N2  UNL     1       9.811   9.484  25.932  0.00  0.00    -0.295 N 
ATOM      8  C10 UNL     1      10.754   9.522  24.848  0.00  0.00    +0.265 C 
ATOM      9  O1  UNL     1      11.981   9.656  25.100  0.00  0.00    -0.268 OA
ATOM     10  C17 UNL     1       9.952  10.434  27.041  0.00  0.00    +0.127 C 
ATOM     11  C18 UNL     1       8.563  10.841  27.564  0.00  0.00    +0.077 C 
ENDROOT
BRANCH   8  12
ATOM     12  C11 UNL     1      10.316   9.406  23.444  0.00  0.00    +0.129 A 
ATOM     13  C12 UNL     1       9.334  10.255  22.916  0.00  0.00    +0.056 A 
ATOM     14  C13 UNL     1       8.975  10.113  21.573  0.00  0.00    +0.042 A 
ATOM     15  C14 UNL     1       7.952  11.016  20.962  0.00  0.00    +0.066 C 
ATOM     16  N3  UNL     1       9.596   9.177  20.806  0.00  0.00    -0.237 NA
ATOM     17  C15 UNL     1      10.549   8.362  21.329  0.00  0.00    +0.127 A 
ATOM     18  C16 UNL     1      11.249   7.375  20.455  0.00  0.00    +0.088 C 
ATOM     19  N4  UNL     1      10.912   8.493  22.632  0.00  0.00    -0.228 NA
ENDBRANCH   8  12
BRANCH   1  20
ATOM     20  C4  UNL     1       8.743  13.025  28.654  0.00  0.00    +0.114 C 
BRANCH  20  22
ATOM     21  C1  UNL     1      10.512  13.494  30.314  0.00  0.00    +0.008 C 
ATOM     22  C2  UNL     1      10.100  13.569  29.040  0.00  0.00    -0.066 C 
ATOM     23  C3  UNL     1      10.996  14.197  28.006  0.00  0.00    +0.040 C 
ENDBRANCH  20  22
ENDBRANCH   1  20
TORSDOF 3
ENDMDL
MODEL 8
REMARK VINA RESULT:    -5.377     14.114     16.651
REMARK INTER + INTRA:          -6.938
REMARK INTER:                  -6.399
REMARK INTRA:                  -0.540
REMARK UNBOUND:                -0.619
REMARK  Name = /home/qwerty/github/datacon2025hack/step_04_hit_selection/docking/ligands/lig_735.pdb
REMARK  6 active torsions:
REMARK  status: ('A' for Active; 'I' for Inactive)
REMARK    1  A    between atoms: C2_2  and  C3_3
REMARK    2  A    between atoms: C2_2  and  C4_4
REMARK    3  A    between atoms: C4_4  and  N1_5
REMARK    4  A    between atoms: C10_12  and  C11_14
REMARK    5  A    between atoms: C13_16  and  C14_17
REMARK    6  A    between atoms: C15_19  and  C16_20
REMARK                            x       y       z     vdW  Elec       q    Type
REMARK                         _______ _______ _______ _____ _____    ______ ____
ROOT
ATOM      1  N1  UNL     1      21.008   1.265  30.011  0.00  0.00    -0.294 NA
ATOM      2  C5  UNL     1      22.474   1.303  30.075  0.00  0.00    +0.085 C 
ATOM      3  C6  UNL     1      22.949   1.800  28.727  0.00  0.00    +0.020 C 
ATOM      4  C7  UNL     1      21.904   1.278  27.748  0.00  0.00    +0.010 C 
ATOM      5  C8  UNL     1      21.618   2.279  26.610  0.00  0.00    +0.024 C 
ATOM      6  C9  UNL     1      20.365   1.863  25.832  0.00  0.00    +0.108 C 
ATOM      7  N2  UNL     1      19.229   1.621  26.736  0.00  0.00    -0.295 N 
ATOM      8  C10 UNL     1      17.900   1.562  26.194  0.00  0.00    +0.265 C 
ATOM      9  O1  UNL     1      17.009   2.326  26.653  0.00  0.00    -0.268 OA
ATOM     10  C17 UNL     1      19.408   1.715  28.190  0.00  0.00    +0.127 C 
ATOM     11  C18 UNL     1      20.669   0.942  28.616  0.00  0.00    +0.077 C 
ENDROOT
BRANCH   8  12
ATOM     12  C11 UNL     1      17.555   0.625  25.107  0.00  0.00    +0.129 A 
ATOM     13  C12 UNL     1      17.665  -0.761  25.279  0.00  0.00    +0.056 A 
ATOM     14  C13 UNL     1      17.303  -1.600  24.222  0.00  0.00    +0.042 A 
ATOM     15  C14 UNL     1      17.379  -3.085  24.372  0.00  0.00    +0.066 C 
ATOM     16  N3  UNL     1      16.833  -1.060  23.066  0.00  0.00    -0.237 NA
ATOM     17  C15 UNL     1      16.727   0.286  22.912  0.00  0.00    +0.127 A 
ATOM     18  C16 UNL     1      16.164   0.852  21.651  0.00  0.00    +0.088 C 
ATOM     19  N4  UNL     1      17.071   1.114  23.934  0.00  0.00    -0.228 NA
ENDBRANCH   8  12
BRANCH   1  20
ATOM     20  C4  UNL     1      20.436   0.291  30.964  0.00  0.00    +0.114 C 
BRANCH  20  22
ATOM     21  C1  UNL     1      18.386   0.669  32.289  0.00  0.00    +0.008 C 
ATOM     22  C2  UNL     1      19.662   1.003  32.049  0.00  0.00    -0.066 C 
ATOM     23  C3  UNL     1      20.310   2.090  32.865  0.00  0.00    +0.040 C 
ENDBRANCH  20  22
ENDBRANCH   1  20
TORSDOF 3
ENDMDL
MODEL 9
REMARK VINA RESULT:    -5.328     11.803     14.728
REMARK INTER + INTRA:          -6.881
REMARK INTER:                  -6.303
REMARK INTRA:                  -0.577
REMARK UNBOUND:                -0.619
REMARK  Name = /home/qwerty/github/datacon2025hack/step_04_hit_selection/docking/ligands/lig_735.pdb
REMARK  6 active torsions:
REMARK  status: ('A' for Active; 'I' for Inactive)
REMARK    1  A    between atoms: C2_2  and  C3_3
REMARK    2  A    between atoms: C2_2  and  C4_4
REMARK    3  A    between atoms: C4_4  and  N1_5
REMARK    4  A    between atoms: C10_12  and  C11_14
REMARK    5  A    between atoms: C13_16  and  C14_17
REMARK    6  A    between atoms: C15_19  and  C16_20
REMARK                            x       y       z     vdW  Elec       q    Type
REMARK                         _______ _______ _______ _____ _____    ______ ____
ROOT
ATOM      1  N1  UNL     1      20.926   7.197  35.762  0.00  0.00    -0.294 NA
ATOM      2  C5  UNL     1      21.987   7.475  36.737  0.00  0.00    +0.085 C 
ATOM      3  C6  UNL     1      23.290   7.079  36.078  0.00  0.00    +0.020 C 
ATOM      4  C7  UNL     1      22.910   5.918  35.168  0.00  0.00    +0.010 C 
ATOM      5  C8  UNL     1      23.699   5.931  33.842  0.00  0.00    +0.024 C 
ATOM      6  C9  UNL     1      23.082   4.947  32.842  0.00  0.00    +0.108 C 
ATOM      7  N2  UNL     1      21.634   5.166  32.697  0.00  0.00    -0.295 N 
ATOM      8  C10 UNL     1      20.946   4.591  31.574  0.00  0.00    +0.265 C 
ATOM      9  O1  UNL     1      20.278   5.338  30.810  0.00  0.00    -0.268 OA
ATOM     10  C17 UNL     1      20.953   6.174  33.519  0.00  0.00    +0.127 C 
ATOM     11  C18 UNL     1      21.378   6.027  34.990  0.00  0.00    +0.077 C 
ENDROOT
BRANCH   8  12
ATOM     12  C11 UNL     1      21.006   3.144  31.295  0.00  0.00    +0.129 A 
ATOM     13  C12 UNL     1      20.168   2.240  31.960  0.00  0.00    +0.056 A 
ATOM     14  C13 UNL     1      20.254   0.882  31.637  0.00  0.00    +0.042 A 
ATOM     15  C14 UNL     1      19.360  -0.113  32.303  0.00  0.00    +0.066 C 
ATOM     16  N3  UNL     1      21.126   0.473  30.677  0.00  0.00    -0.237 NA
ATOM     17  C15 UNL     1      21.931   1.361  30.036  0.00  0.00    +0.127 A 
ATOM     18  C16 UNL     1      22.845   0.893  28.953  0.00  0.00    +0.088 C 
ATOM     19  N4  UNL     1      21.854   2.684  30.336  0.00  0.00    -0.228 NA
ENDBRANCH   8  12
BRANCH   1  20
ATOM     20  C4  UNL     1      19.621   6.966  36.412  0.00  0.00    +0.114 C 
BRANCH  20  22
ATOM     21  C1  UNL     1      18.877   9.078  35.369  0.00  0.00    +0.008 C 
ATOM     22  C2  UNL     1      18.793   8.231  36.405  0.00  0.00    -0.066 C 
ATOM     23  C3  UNL     1      17.874   8.552  37.553  0.00  0.00    +0.040 C 
ENDBRANCH  20  22
ENDBRANCH   1  20
TORSDOF 3
ENDMDL
