REMARK  Name = /home/qwerty/github/datacon2025hack/step_04_hit_selection/docking/ligands/lig_659.pdb
REMARK  10 active torsions:
REMARK  status: ('A' for Active; 'I' for Inactive)
REMARK    1  A    between atoms: C1_1  and  O1_2
REMARK    2  A    between atoms: O1_2  and  C2_3
REMARK    3  A    between atoms: C4_5  and  C5_6
REMARK    4  A    between atoms: C6_7  and  S1_8
REMARK    5  A    between atoms: S1_8  and  N1_11
REMARK    6  A    between atoms: N1_11  and  C7_12
REMARK    7  A    between atoms: C9_14  and  O4_15
REMARK    8  A    between atoms: C11_18  and  C12_19
REMARK    9  A    between atoms: C14_24  and  C15_25
REMARK   10  A    between atoms: C16_26  and  C17_27
REMARK                            x       y       z     vdW  Elec       q    Type
REMARK                         _______ _______ _______ _____ _____    ______ ____
ROOT
ATOM      1  N1  UNL     1       0.632  -2.636  -0.599  0.00  0.00    -0.199 N 
ATOM      2  H8  UNL     1       0.403  -3.361  -1.314  0.00  0.00    +0.175 HD
ENDROOT
BRANCH   1   3
ATOM      3  C7  UNL     1       1.515  -1.560  -0.957  0.00  0.00    +0.147 A 
ATOM      4  C8  UNL     1       2.115  -0.729   0.010  0.00  0.00    +0.112 A 
ATOM      5  C9  UNL     1       2.956   0.319  -0.414  0.00  0.00    +0.218 A 
ATOM      6  N2  UNL     1       3.200   0.515  -1.744  0.00  0.00    -0.192 NA
ATOM      7  C10 UNL     1       2.617  -0.316  -2.640  0.00  0.00    +0.179 A 
ATOM      8  C11 UNL     1       2.710  -0.303  -4.008  0.00  0.00    +0.116 A 
ATOM      9  C13 UNL     1       1.899  -1.357  -4.412  0.00  0.00    +0.156 A 
ATOM     10  N4  UNL     1       1.356  -1.959  -3.324  0.00  0.00    -0.170 NA
ATOM     11  N5  UNL     1       1.807  -1.312  -2.260  0.00  0.00    -0.198 N 
BRANCH   5  12
ATOM     12  O4  UNL     1       3.538   1.158   0.528  0.00  0.00    -0.492 OA
ATOM     13  H10 UNL     1       4.151   1.914   0.248  0.00  0.00    +0.294 HD
ENDBRANCH   5  12
BRANCH   8  14
ATOM     14  C12 UNL     1       3.461   0.599  -4.837  0.00  0.00    +0.104 C 
ATOM     15  N3  UNL     1       4.067   1.326  -5.504  0.00  0.00    -0.191 NA
ENDBRANCH   8  14
ENDBRANCH   1   3
BRANCH   1  16
ATOM     16  S1  UNL     1      -0.260  -2.675   0.889  0.00  0.00    +0.074 S 
ATOM     17  O2  UNL     1      -1.410  -3.633   0.754  0.00  0.00    -0.150 OA
ATOM     18  O3  UNL     1       0.663  -3.199   1.951  0.00  0.00    -0.150 OA
BRANCH  16  23
ATOM     19  C2  UNL     1      -1.748   1.637   1.674  0.00  0.00    +0.124 A 
ATOM     20  C3  UNL     1      -1.015   0.951   2.646  0.00  0.00    +0.051 A 
ATOM     21  C4  UNL     1      -0.636  -0.384   2.468  0.00  0.00    -0.020 A 
ATOM     22  C5  UNL     1       0.074  -1.057   3.615  0.00  0.00    +0.046 C 
ATOM     23  C6  UNL     1      -0.924  -1.045   1.242  0.00  0.00    +0.115 A 
ATOM     24  C14 UNL     1      -1.719  -0.369   0.266  0.00  0.00    -0.017 A 
ATOM     25  C15 UNL     1      -2.215  -1.070  -0.987  0.00  0.00    +0.046 C 
ATOM     26  C16 UNL     1      -2.147   0.966   0.504  0.00  0.00    -0.004 A 
ATOM     27  C17 UNL     1      -2.998   1.701  -0.514  0.00  0.00    +0.048 C 
BRANCH  19  29
ATOM     28  C1  UNL     1      -1.791   3.773   2.993  0.00  0.00    +0.277 C 
ATOM     29  O1  UNL     1      -2.106   2.986   1.850  0.00  0.00    -0.495 OA
ENDBRANCH  19  29
ENDBRANCH  16  23
ENDBRANCH   1  16
TORSDOF 6
