REMARK  Name = /home/qwerty/github/datacon2025hack/step_04_hit_selection/docking/ligands/lig_236.pdb
REMARK  7 active torsions:
REMARK  status: ('A' for Active; 'I' for Inactive)
REMARK    1  A    between atoms: C1_1  and  N1_2
REMARK    2  A    between atoms: C4_6  and  C5_7
REMARK    3  A    between atoms: C7_10  and  C8_12
REMARK    4  A    between atoms: C10_14  and  C11_15
REMARK    5  A    between atoms: C15_21  and  N5_22
REMARK    6  A    between atoms: N5_22  and  C16_23
REMARK    7  A    between atoms: C16_23  and  C17_24
REMARK                            x       y       z     vdW  Elec       q    Type
REMARK                         _______ _______ _______ _____ _____    ______ ____
ROOT
ATOM      1  C5  UNL     1      -1.024   0.458   0.835  0.00  0.00    +0.073 C 
ATOM      2  C6  UNL     1       0.471   0.227   0.593  0.00  0.00    +0.119 C 
ATOM      3  N3  UNL     1       0.566  -0.939  -0.270  0.00  0.00    -0.294 N 
ATOM      4  C7  UNL     1       1.798  -1.518  -0.750  0.00  0.00    +0.268 C 
ATOM      5  O1  UNL     1       1.744  -2.506  -1.532  0.00  0.00    -0.268 OA
ATOM      6  C14 UNL     1      -0.730  -1.483  -0.643  0.00  0.00    +0.127 C 
ATOM      7  C15 UNL     1      -1.788  -0.528  -0.083  0.00  0.00    +0.081 C 
ENDROOT
BRANCH   1  13
ATOM      8  C1  UNL     1      -0.962   2.192  -1.867  0.00  0.00    +0.150 C 
ATOM      9  N1  UNL     1      -1.351   2.618  -0.523  0.00  0.00    -0.337 N 
ATOM     10  C2  UNL     1      -1.830   3.839  -0.213  0.00  0.00    +0.199 A 
ATOM     11  N2  UNL     1      -2.189   3.946   1.083  0.00  0.00    -0.244 NA
ATOM     12  C3  UNL     1      -1.933   2.729   1.605  0.00  0.00    +0.134 A 
ATOM     13  C4  UNL     1      -1.429   1.903   0.622  0.00  0.00    +0.044 A 
ENDBRANCH   1  13
BRANCH   4  14
ATOM     14  C8  UNL     1       3.132  -1.007  -0.363  0.00  0.00    +0.168 A 
ATOM     15  C9  UNL     1       4.340  -1.498  -0.823  0.00  0.00    +0.081 A 
ATOM     16  C10 UNL     1       5.274  -0.721  -0.175  0.00  0.00    +0.141 A 
ATOM     17  O2  UNL     1       4.653   0.137   0.599  0.00  0.00    -0.359 OA
ATOM     18  N4  UNL     1       3.362  -0.005   0.509  0.00  0.00    -0.073 NA
BRANCH  16  19
ATOM     19  C11 UNL     1       6.761  -0.846  -0.291  0.00  0.00    +0.058 C 
ATOM     20  C12 UNL     1       7.323  -0.422  -1.639  0.00  0.00    +0.012 C 
ATOM     21  C13 UNL     1       7.502   0.475  -0.425  0.00  0.00    +0.012 C 
ENDBRANCH  16  19
ENDBRANCH   4  14
BRANCH   7  22
ATOM     22  N5  UNL     1      -2.832  -1.288   0.633  0.00  0.00    -0.311 NA
ATOM     23  H18 UNL     1      -2.434  -1.696   1.512  0.00  0.00    +0.122 HD
BRANCH  22  24
ATOM     24  C16 UNL     1      -3.985  -0.445   0.974  0.00  0.00    +0.084 C 
BRANCH  24  25
ATOM     25  C17 UNL     1      -5.099  -1.323   1.553  0.00  0.00    +0.003 C 
ATOM     26  C18 UNL     1      -6.021  -1.964   0.528  0.00  0.00    +0.005 C 
ATOM     27  C19 UNL     1      -6.514  -0.794   1.369  0.00  0.00    +0.005 C 
ENDBRANCH  24  25
ENDBRANCH  22  24
ENDBRANCH   7  22
TORSDOF 6
