REMARK  Name = /home/qwerty/github/datacon2025hack/step_04_hit_selection/docking/ligands/lig_172.pdb
REMARK  9 active torsions:
REMARK  status: ('A' for Active; 'I' for Inactive)
REMARK    1  A    between atoms: C1_1  and  N1_2
REMARK    2  A    between atoms: N1_2  and  C2_3
REMARK    3  A    between atoms: N1_2  and  C3_4
REMARK    4  A    between atoms: C3_4  and  C4_5
REMARK    5  A    between atoms: C8_9  and  C9_10
REMARK    6  A    between atoms: C9_10  and  N2_11
REMARK    7  A    between atoms: C10_12  and  C11_14
REMARK    8  A    between atoms: C15_19  and  C16_20
REMARK    9  A    between atoms: C19_23  and  C20_24
REMARK                            x       y       z     vdW  Elec       q    Type
REMARK                         _______ _______ _______ _____ _____    ______ ____
ROOT
ATOM      1  C11 UNL     1      -1.038  -1.663  -0.461  0.00  0.00    +0.037 A 
ATOM      2  C12 UNL     1      -0.377  -2.546   0.436  0.00  0.00    +0.015 A 
ATOM      3  C13 UNL     1       0.980  -2.363   0.759  0.00  0.00    +0.027 A 
ATOM      4  C14 UNL     1       1.649  -1.289   0.180  0.00  0.00    +0.047 A 
ATOM      5  N3  UNL     1       2.933  -0.938   0.358  0.00  0.00    -0.353 N 
ATOM      6  C15 UNL     1       3.119   0.170  -0.401  0.00  0.00    +0.064 A 
ATOM      7  C28 UNL     1       1.942   0.521  -1.063  0.00  0.00    +0.037 A 
ATOM      8  C29 UNL     1       1.020  -0.428  -0.676  0.00  0.00    +0.001 A 
ATOM      9  C30 UNL     1      -0.322  -0.576  -1.019  0.00  0.00    +0.023 A 
ATOM     10  H17 UNL     1       3.635  -1.425   0.959  0.00  0.00    +0.166 HD
ENDROOT
BRANCH   6  11
ATOM     11  C16 UNL     1       4.400   0.895  -0.504  0.00  0.00    +0.064 A 
ATOM     12  C17 UNL     1       5.572   0.560   0.172  0.00  0.00    +0.038 A 
ATOM     13  C18 UNL     1       6.502   1.505  -0.218  0.00  0.00    +0.011 A 
ATOM     14  C19 UNL     1       7.841   1.703   0.152  0.00  0.00    +0.011 A 
ATOM     15  C25 UNL     1       8.488   2.831  -0.403  0.00  0.00    +0.120 A 
ATOM     16  N5  UNL     1       7.824   3.664  -1.264  0.00  0.00    -0.261 NA
ATOM     17  C26 UNL     1       6.524   3.455  -1.618  0.00  0.00    +0.137 A 
ATOM     18  C27 UNL     1       5.865   2.357  -1.079  0.00  0.00    +0.066 A 
ATOM     19  N6  UNL     1       4.586   1.997  -1.269  0.00  0.00    -0.352 N 
ATOM     20  H25 UNL     1       3.884   2.481  -1.872  0.00  0.00    +0.166 HD
BRANCH  14  21
ATOM     21  C20 UNL     1       8.558   0.793   1.074  0.00  0.00    +0.002 A 
ATOM     22  C21 UNL     1       8.519  -0.598   0.893  0.00  0.00    +0.011 A 
ATOM     23  C22 UNL     1       9.212  -1.438   1.767  0.00  0.00    +0.020 A 
ATOM     24  C23 UNL     1       9.947  -0.880   2.813  0.00  0.00    +0.111 A 
ATOM     25  N4  UNL     1       9.987   0.469   2.973  0.00  0.00    -0.263 NA
ATOM     26  C24 UNL     1       9.321   1.309   2.136  0.00  0.00    +0.119 A 
ENDBRANCH  14  21
ENDBRANCH   6  11
BRANCH   1  28
ATOM     27  N2  UNL     1      -3.046  -1.353  -1.991  0.00  0.00    -0.307 N 
ATOM     28  C10 UNL     1      -2.470  -1.875  -0.782  0.00  0.00    +0.244 C 
ATOM     29  O1  UNL     1      -3.191  -2.536   0.014  0.00  0.00    -0.270 OA
ATOM     30  H14 UNL     1      -2.426  -0.993  -2.750  0.00  0.00    +0.149 HD
BRANCH  27  31
ATOM     31  C9  UNL     1      -4.485  -1.374  -2.242  0.00  0.00    +0.139 C 
BRANCH  31  36
ATOM     32  C4  UNL     1      -6.683   0.043   0.543  0.00  0.00    -0.033 A 
ATOM     33  C5  UNL     1      -6.462   1.421   0.376  0.00  0.00    +0.005 A 
ATOM     34  C6  UNL     1      -5.619   1.883  -0.636  0.00  0.00    +0.001 A 
ATOM     35  C7  UNL     1      -4.984   0.976  -1.489  0.00  0.00    +0.005 A 
ATOM     36  C8  UNL     1      -5.188  -0.403  -1.333  0.00  0.00    -0.030 A 
ATOM     37  C31 UNL     1      -6.033  -0.864  -0.310  0.00  0.00    +0.010 A 
BRANCH  32  38
ATOM     38  C3  UNL     1      -7.604  -0.458   1.637  0.00  0.00    +0.119 C 
BRANCH  38  40
ATOM     39  C1  UNL     1      -9.626   0.678   0.825  0.00  0.00    +0.104 C 
ATOM     40  N1  UNL     1      -9.015  -0.603   1.214  0.00  0.00    -0.304 NA
ATOM     41  C2  UNL     1      -9.190  -1.611   0.157  0.00  0.00    +0.104 C 
ENDBRANCH  38  40
ENDBRANCH  32  38
ENDBRANCH  31  36
ENDBRANCH  27  31
ENDBRANCH   1  28
TORSDOF 7
