REMARK  Name = /home/qwerty/github/datacon2025hack/step_04_hit_selection/docking/ligands/lig_202.pdb
REMARK  3 active torsions:
REMARK  status: ('A' for Active; 'I' for Inactive)
REMARK    1  A    between atoms: N1_3  and  C2_4
REMARK    2  A    between atoms: C5_7  and  O2_8
REMARK    3  A    between atoms: O2_8  and  C6_9
REMARK                            x       y       z     vdW  Elec       q    Type
REMARK                         _______ _______ _______ _____ _____    ______ ____
ROOT
ATOM      1  O1  UNL     1       0.268   0.780   0.529  0.00  0.00    -0.252 OA
ATOM      2  C1  UNL     1       0.268  -0.033  -0.434  0.00  0.00    +0.309 C 
ATOM      3  N1  UNL     1       1.506  -0.418  -1.053  0.00  0.00    -0.269 N 
ATOM      4  N2  UNL     1      -0.971  -0.532  -0.964  0.00  0.00    -0.253 N 
ATOM      5  C9  UNL     1      -2.252  -0.317  -0.340  0.00  0.00    +0.141 A 
ATOM      6  N3  UNL     1      -2.306   0.050   0.970  0.00  0.00    -0.238 NA
ATOM      7  C10 UNL     1      -3.473   0.246   1.630  0.00  0.00    +0.121 A 
ATOM      8  C11 UNL     1      -4.690   0.068   0.970  0.00  0.00    +0.001 A 
ATOM      9  C12 UNL     1      -5.902   0.268   1.648  0.00  0.00    +0.010 A 
ATOM     10  C13 UNL     1      -7.115   0.090   0.982  0.00  0.00    +0.001 A 
ATOM     11  C14 UNL     1      -7.128  -0.288  -0.361  0.00  0.00    +0.001 A 
ATOM     12  C15 UNL     1      -5.927  -0.490  -1.048  0.00  0.00    +0.010 A 
ATOM     13  C16 UNL     1      -4.689  -0.316  -0.394  0.00  0.00    +0.001 A 
ATOM     14  C17 UNL     1      -3.455  -0.511  -1.058  0.00  0.00    +0.066 A 
ATOM     15 BR1  UNL     1      -3.397  -0.992  -2.927  0.00  0.00    -0.046 Br
ATOM     16  H1  UNL     1       1.461  -0.842  -2.007  0.00  0.00    +0.156 HD
ATOM     17  H7  UNL     1      -0.914  -1.108  -1.832  0.00  0.00    +0.158 HD
ENDROOT
BRANCH   3  18
ATOM     18  C2  UNL     1       2.804  -0.157  -0.492  0.00  0.00    +0.035 A 
ATOM     19  C3  UNL     1       3.024  -0.188   0.897  0.00  0.00    +0.027 A 
ATOM     20  C4  UNL     1       4.302   0.046   1.414  0.00  0.00    +0.047 A 
ATOM     21  C5  UNL     1       5.382   0.298   0.561  0.00  0.00    +0.127 A 
ATOM     22  C7  UNL     1       5.167   0.308  -0.831  0.00  0.00    +0.047 A 
ATOM     23  C8  UNL     1       3.890   0.074  -1.349  0.00  0.00    +0.027 A 
BRANCH  21  24
ATOM     24  O2  UNL     1       6.642   0.529   1.133  0.00  0.00    -0.434 OA
BRANCH  24  25
ATOM     25  C6  UNL     1       7.837   0.771   0.395  0.00  0.00    +0.541 C 
ATOM     26  F1  UNL     1       8.863   1.050   1.276  0.00  0.00    -0.166 F 
ATOM     27  F2  UNL     1       8.170  -0.350  -0.344  0.00  0.00    -0.166 F 
ENDBRANCH  24  25
ENDBRANCH  21  24
ENDBRANCH   3  18
TORSDOF 3
