REMARK  Name = /home/qwerty/github/datacon2025hack/step_04_hit_selection/docking/ligands/lig_288.pdb
REMARK  5 active torsions:
REMARK  status: ('A' for Active; 'I' for Inactive)
REMARK    1  A    between atoms: C1_2  and  C16_22
REMARK    2  A    between atoms: N1_3  and  C2_4
REMARK    3  A    between atoms: C6_10  and  C7_11
REMARK    4  A    between atoms: C19_25  and  O2_26
REMARK    5  A    between atoms: C20_27  and  O3_28
REMARK                            x       y       z     vdW  Elec       q    Type
REMARK                         _______ _______ _______ _____ _____    ______ ____
ROOT
ATOM      1  C2  UNL     1       0.991  -2.346   0.408  0.00  0.00    +0.034 A 
ATOM      2  C3  UNL     1       1.000  -3.747   0.630  0.00  0.00    +0.025 A 
ATOM      3  C4  UNL     1      -0.199  -4.481   0.652  0.00  0.00    +0.029 A 
ATOM      4  C5  UNL     1      -1.389  -3.781   0.478  0.00  0.00    +0.067 A 
ATOM      5  N2  UNL     1      -2.636  -4.272   0.426  0.00  0.00    -0.276 N 
ATOM      6  N3  UNL     1      -3.477  -3.265   0.224  0.00  0.00    -0.170 NA
ATOM      7  C6  UNL     1      -2.761  -2.117   0.157  0.00  0.00    +0.135 A 
ATOM      8  C14 UNL     1      -1.417  -2.426   0.305  0.00  0.00    +0.032 A 
ATOM      9  C15 UNL     1      -0.244  -1.670   0.248  0.00  0.00    +0.035 A 
ATOM     10  H4  UNL     1      -2.921  -5.273   0.516  0.00  0.00    +0.189 HD
ENDROOT
BRANCH   7  11
ATOM     11  C7  UNL     1      -3.378  -0.797  -0.052  0.00  0.00    +0.160 A 
ATOM     12  N4  UNL     1      -4.578  -0.649  -0.675  0.00  0.00    -0.226 NA
ATOM     13  C8  UNL     1      -4.785   0.678  -0.614  0.00  0.00    +0.090 A 
ATOM     14  C9  UNL     1      -5.878   1.394  -1.097  0.00  0.00    +0.030 A 
ATOM     15  C10 UNL     1      -5.887   2.788  -0.895  0.00  0.00    +0.002 A 
ATOM     16  C11 UNL     1      -4.817   3.420  -0.220  0.00  0.00    +0.002 A 
ATOM     17  C12 UNL     1      -3.730   2.664   0.258  0.00  0.00    +0.028 A 
ATOM     18  C13 UNL     1      -3.754   1.290   0.032  0.00  0.00    +0.067 A 
ATOM     19  N5  UNL     1      -2.854   0.371   0.401  0.00  0.00    -0.337 N 
ATOM     20  H9  UNL     1      -1.990   0.526   0.965  0.00  0.00    +0.167 HD
ENDBRANCH   7  11
BRANCH   1  23
ATOM     21  O1  UNL     1       1.752  -0.206  -1.394  0.00  0.00    -0.270 OA
ATOM     22  C1  UNL     1       2.465  -0.438  -0.380  0.00  0.00    +0.248 C 
ATOM     23  N1  UNL     1       2.238  -1.630   0.392  0.00  0.00    -0.281 N 
ATOM     24  H1  UNL     1       3.054  -2.061   0.881  0.00  0.00    +0.155 HD
BRANCH  22  25
ATOM     25  C16 UNL     1       3.560   0.498  -0.028  0.00  0.00    +0.041 A 
ATOM     26  C17 UNL     1       4.124   0.499   1.261  0.00  0.00    +0.017 A 
ATOM     27  C18 UNL     1       5.150   1.390   1.585  0.00  0.00    +0.050 A 
ATOM     28  C19 UNL     1       5.627   2.297   0.634  0.00  0.00    +0.158 A 
ATOM     29  C20 UNL     1       5.067   2.314  -0.654  0.00  0.00    +0.159 A 
ATOM     30  C21 UNL     1       4.037   1.420  -0.978  0.00  0.00    +0.062 A 
BRANCH  28  31
ATOM     31  O2  UNL     1       6.653   3.173   0.988  0.00  0.00    -0.503 OA
ATOM     32  H13 UNL     1       7.032   3.848   0.335  0.00  0.00    +0.292 HD
ENDBRANCH  28  31
BRANCH  29  33
ATOM     33  O3  UNL     1       5.536   3.218  -1.606  0.00  0.00    -0.503 OA
ATOM     34  H14 UNL     1       5.150   3.251  -2.542  0.00  0.00    +0.292 HD
ENDBRANCH  29  33
ENDBRANCH  22  25
ENDBRANCH   1  23
TORSDOF 5
