REMARK  Name = /home/qwerty/github/datacon2025hack/step_04_hit_selection/docking/ligands/lig_398.pdb
REMARK  7 active torsions:
REMARK  status: ('A' for Active; 'I' for Inactive)
REMARK    1  A    between atoms: C1_2  and  C2_3
REMARK    2  A    between atoms: C2_3  and  C3_4
REMARK    3  A    between atoms: C5_7  and  C6_8
REMARK    4  A    between atoms: N2_16  and  C12_17
REMARK    5  A    between atoms: C16_21  and  C17_22
REMARK    6  A    between atoms: C17_22  and  N3_23
REMARK    7  A    between atoms: C20_26  and  O2_27
REMARK                            x       y       z     vdW  Elec       q    Type
REMARK                         _______ _______ _______ _____ _____    ______ ____
ROOT
ATOM      1  O1  UNL     1      -0.797   2.668  -0.416  0.00  0.00    -0.275 OA
ATOM      2  C1  UNL     1      -1.221   1.593  -0.923  0.00  0.00    +0.223 C 
ATOM      3  N2  UNL     1      -0.849   0.323  -0.364  0.00  0.00    -0.285 N 
ATOM      4  H8  UNL     1      -1.425  -0.511  -0.626  0.00  0.00    +0.155 HD
ENDROOT
BRANCH   3   5
ATOM      5  C12 UNL     1       0.170   0.150   0.635  0.00  0.00    +0.034 A 
ATOM      6  C13 UNL     1       0.017  -0.850   1.605  0.00  0.00    +0.023 A 
ATOM      7  C14 UNL     1       1.001  -1.050   2.576  0.00  0.00    +0.002 A 
ATOM      8  C15 UNL     1       2.158  -0.267   2.574  0.00  0.00    +0.005 A 
ATOM      9  C16 UNL     1       2.347   0.715   1.588  0.00  0.00    -0.032 A 
ATOM     10  C23 UNL     1       1.346   0.922   0.624  0.00  0.00    +0.028 A 
BRANCH   9  11
ATOM     11  C17 UNL     1       3.620   1.535   1.561  0.00  0.00    +0.119 C 
BRANCH  11  12
ATOM     12  N3  UNL     1       4.702   0.936   0.747  0.00  0.00    -0.298 NA
ATOM     13  C18 UNL     1       4.355   0.838  -0.685  0.00  0.00    +0.087 C 
ATOM     14  C19 UNL     1       5.590   0.433  -1.496  0.00  0.00    +0.046 C 
ATOM     15  C20 UNL     1       6.167  -0.892  -0.979  0.00  0.00    +0.117 C 
ATOM     16  C21 UNL     1       6.428  -0.808   0.534  0.00  0.00    +0.046 C 
ATOM     17  C22 UNL     1       5.163  -0.363   1.275  0.00  0.00    +0.087 C 
BRANCH  15  18
ATOM     18  O2  UNL     1       7.363  -1.170  -1.659  0.00  0.00    -0.392 OA
ATOM     19  H19 UNL     1       7.580  -2.123  -1.481  0.00  0.00    +0.210 HD
ENDBRANCH  15  18
ENDBRANCH  11  12
ENDBRANCH   9  11
ENDBRANCH   3   5
BRANCH   2  20
ATOM     20  C2  UNL     1      -2.205   1.653  -2.050  0.00  0.00    +0.152 C 
BRANCH  20  21
ATOM     21  C3  UNL     1      -3.599   1.616  -1.509  0.00  0.00    +0.058 A 
ATOM     22  C4  UNL     1      -4.350   2.763  -1.261  0.00  0.00    +0.071 A 
ATOM     23  S1  UNL     1      -5.816   2.276  -0.600  0.00  0.00    -0.075 S 
ATOM     24  C5  UNL     1      -5.435   0.633  -0.645  0.00  0.00    +0.109 A 
ATOM     25  N1  UNL     1      -4.198   0.444  -1.159  0.00  0.00    -0.243 NA
BRANCH  24  26
ATOM     26  C6  UNL     1      -6.303  -0.473  -0.178  0.00  0.00    +0.007 A 
ATOM     27  C7  UNL     1      -7.593  -0.217   0.325  0.00  0.00    +0.012 A 
ATOM     28  C8  UNL     1      -8.401  -1.269   0.766  0.00  0.00    +0.020 A 
ATOM     29  C9  UNL     1      -7.933  -2.586   0.713  0.00  0.00    +0.041 A 
ATOM     30 CL1  UNL     1      -8.948  -3.902   1.270  0.00  0.00    -0.084 Cl
ATOM     31  C10 UNL     1      -6.654  -2.851   0.215  0.00  0.00    +0.020 A 
ATOM     32  C11 UNL     1      -5.842  -1.802  -0.228  0.00  0.00    +0.012 A 
ENDBRANCH  24  26
ENDBRANCH  20  21
ENDBRANCH   2  20
TORSDOF 7
