REMARK  Name = /home/qwerty/github/datacon2025hack/step_04_hit_selection/docking/ligands/lig_503.pdb
REMARK  3 active torsions:
REMARK  status: ('A' for Active; 'I' for Inactive)
REMARK    1  A    between atoms: N1_3  and  C2_4
REMARK    2  A    between atoms: N2_11  and  C8_12
REMARK    3  A    between atoms: N5_22  and  C16_23
REMARK                            x       y       z     vdW  Elec       q    Type
REMARK                         _______ _______ _______ _____ _____    ______ ____
ROOT
ATOM      1  C8  UNL     1       2.177  -0.792   0.599  0.00  0.00    +0.037 A 
ATOM      2  C9  UNL     1       2.341  -2.124   0.174  0.00  0.00    +0.025 A 
ATOM      3  C10 UNL     1       1.230  -2.922  -0.118  0.00  0.00    +0.032 A 
ATOM      4  C11 UNL     1      -0.059  -2.404   0.027  0.00  0.00    +0.090 A 
ATOM      5  N3  UNL     1      -1.152  -3.172  -0.257  0.00  0.00    -0.247 NA
ATOM      6  C12 UNL     1      -2.389  -2.639  -0.095  0.00  0.00    +0.083 A 
ATOM      7  C13 UNL     1      -2.556  -1.362   0.339  0.00  0.00    +0.144 A 
ATOM      8  N4  UNL     1      -1.496  -0.564   0.624  0.00  0.00    -0.229 NA
ATOM      9  C14 UNL     1      -0.236  -1.066   0.477  0.00  0.00    +0.093 A 
ATOM     10  C15 UNL     1       0.881  -0.276   0.766  0.00  0.00    +0.053 A 
ATOM     11  N5  UNL     1      -3.921  -1.000   0.419  0.00  0.00    -0.310 N 
ATOM     12  C22 UNL     1      -4.711  -2.143  -0.062  0.00  0.00    +0.113 C 
ATOM     13  C23 UNL     1      -3.698  -3.281  -0.369  0.00  0.00    +0.078 C 
ENDROOT
BRANCH   1  17
ATOM     14  O1  UNL     1       4.679  -0.652  -0.841  0.00  0.00    -0.252 OA
ATOM     15  C1  UNL     1       4.567  -0.013   0.240  0.00  0.00    +0.308 C 
ATOM     16  N1  UNL     1       5.698   0.676   0.795  0.00  0.00    -0.269 N 
ATOM     17  N2  UNL     1       3.308   0.034   0.927  0.00  0.00    -0.269 N 
ATOM     18  H1  UNL     1       5.644   0.962   1.799  0.00  0.00    +0.156 HD
ATOM     19  H6  UNL     1       3.181   0.777   1.651  0.00  0.00    +0.156 HD
BRANCH  16  20
ATOM     20  C2  UNL     1       6.941   0.879   0.101  0.00  0.00    +0.035 A 
ATOM     21  C3  UNL     1       6.978   1.129  -1.284  0.00  0.00    +0.026 A 
ATOM     22  C4  UNL     1       8.199   1.348  -1.929  0.00  0.00    +0.040 A 
ATOM     23  C5  UNL     1       9.391   1.333  -1.199  0.00  0.00    +0.124 A 
ATOM     24  F1  UNL     1      10.573   1.547  -1.827  0.00  0.00    -0.205 F 
ATOM     25  C6  UNL     1       9.361   1.108   0.180  0.00  0.00    +0.040 A 
ATOM     26  C7  UNL     1       8.142   0.890   0.828  0.00  0.00    +0.026 A 
ENDBRANCH  16  20
ENDBRANCH   1  17
BRANCH  11  27
ATOM     27  C16 UNL     1      -4.405   0.374   0.591  0.00  0.00    +0.075 C 
ATOM     28  C17 UNL     1      -4.497   1.083  -0.772  0.00  0.00    +0.022 C 
ATOM     29  C18 UNL     1      -5.009   2.520  -0.608  0.00  0.00    +0.002 C 
ATOM     30  C19 UNL     1      -6.361   2.545   0.117  0.00  0.00    +0.000 C 
ATOM     31  C20 UNL     1      -6.274   1.834   1.474  0.00  0.00    +0.002 C 
ATOM     32  C21 UNL     1      -5.768   0.396   1.309  0.00  0.00    +0.022 C 
ENDBRANCH  11  27
TORSDOF 3
