REMARK  Name = /home/qwerty/github/datacon2025hack/step_04_hit_selection/docking/ligands/lig_448.pdb
REMARK  3 active torsions:
REMARK  status: ('A' for Active; 'I' for Inactive)
REMARK    1  A    between atoms: C1_1  and  C2_2
REMARK    2  A    between atoms: C5_5  and  N1_6
REMARK    3  A    between atoms: N2_9  and  C7_10
REMARK                            x       y       z     vdW  Elec       q    Type
REMARK                         _______ _______ _______ _____ _____    ______ ____
ROOT
ATOM      1  C1  UNL     1      -3.988  -3.000   0.595  0.00  0.00    +0.044 C 
ATOM      2  C2  UNL     1      -2.700  -2.230   0.657  0.00  0.00    -0.039 A 
ATOM      3  C3  UNL     1      -1.540  -2.810   1.203  0.00  0.00    +0.006 A 
ATOM      4  C4  UNL     1      -0.336  -2.085   1.270  0.00  0.00    +0.024 A 
ATOM      5  C5  UNL     1      -0.259  -0.765   0.781  0.00  0.00    +0.043 A 
ATOM      6  C10 UNL     1      -1.417  -0.202   0.220  0.00  0.00    +0.015 A 
ATOM      7  C11 UNL     1      -2.610  -0.917   0.174  0.00  0.00    +0.035 A 
ATOM      8  C12 UNL     1      -3.629  -0.070  -0.447  0.00  0.00    +0.195 C 
ATOM      9  O2  UNL     1      -4.834  -0.366  -0.658  0.00  0.00    -0.287 OA
ATOM     10  C13 UNL     1      -2.977   1.183  -0.793  0.00  0.00    +0.030 A 
ATOM     11  C14 UNL     1      -3.495   2.298  -1.450  0.00  0.00    +0.012 A 
ATOM     12  C15 UNL     1      -2.628   3.366  -1.729  0.00  0.00    +0.001 A 
ATOM     13  C16 UNL     1      -1.268   3.292  -1.367  0.00  0.00    +0.001 A 
ATOM     14  C17 UNL     1      -0.764   2.155  -0.713  0.00  0.00    +0.009 A 
ATOM     15  C18 UNL     1      -1.647   1.112  -0.411  0.00  0.00    -0.005 A 
ENDROOT
BRANCH   5  16
ATOM     16  N1  UNL     1       0.941   0.001   0.946  0.00  0.00    -0.269 N 
ATOM     17  C6  UNL     1       2.237  -0.492   0.580  0.00  0.00    +0.304 C 
ATOM     18  O1  UNL     1       2.350  -1.590  -0.031  0.00  0.00    -0.253 OA
ATOM     19  N2  UNL     1       3.402   0.281   0.888  0.00  0.00    -0.296 N 
ATOM     20  H6  UNL     1       0.867   0.952   1.369  0.00  0.00    +0.156 HD
ATOM     21  H7  UNL     1       3.298   1.160   1.443  0.00  0.00    +0.151 HD
BRANCH  19  22
ATOM     22  C7  UNL     1       4.743  -0.195   0.559  0.00  0.00    +0.075 C 
ATOM     23  C8  UNL     1       5.699   0.905   0.129  0.00  0.00    +0.024 C 
ATOM     24  C9  UNL     1       5.095  -0.027  -0.909  0.00  0.00    +0.024 C 
ENDBRANCH  19  22
ENDBRANCH   5  16
TORSDOF 2
