MODEL 1
REMARK VINA RESULT:    -6.056      0.000      0.000
REMARK INTER + INTRA:          -6.768
REMARK INTER:                  -7.118
REMARK INTRA:                   0.350
REMARK UNBOUND:                 0.350
REMARK  Name = /home/qwerty/github/datacon2025hack/step_04_hit_selection/docking/ligands/lig_674.pdb
REMARK  4 active torsions:
REMARK  status: ('A' for Active; 'I' for Inactive)
REMARK    1  A    between atoms: C1_1  and  N1_2
REMARK    2  A    between atoms: C4_5  and  N2_6
REMARK    3  A    between atoms: C6_8  and  N3_9
REMARK    4  A    between atoms: C7_10  and  C8_12
REMARK                            x       y       z     vdW  Elec       q    Type
REMARK                         _______ _______ _______ _____ _____    ______ ____
ROOT
ATOM      1  N3  UNL     1      22.142   4.640  24.088  0.00  0.00    -0.306 N 
ATOM      2  C7  UNL     1      21.487   5.390  23.053  0.00  0.00    +0.244 C 
ATOM      3  O1  UNL     1      20.236   5.545  23.096  0.00  0.00    -0.270 OA
ATOM      4  H12 UNL     1      23.180   4.701  24.183  0.00  0.00    +0.149 HD
ENDROOT
BRANCH   2   5
ATOM      5  C8  UNL     1      22.257   5.997  21.940  0.00  0.00    +0.037 A 
ATOM      6  C9  UNL     1      21.886   5.732  20.597  0.00  0.00    +0.016 A 
ATOM      7  C10 UNL     1      22.609   6.293  19.531  0.00  0.00    +0.046 A 
ATOM      8  C11 UNL     1      23.699   7.105  19.828  0.00  0.00    +0.124 A 
ATOM      9  C12 UNL     1      24.073   7.362  21.114  0.00  0.00    -0.002 A 
ATOM     10  C13 UNL     1      23.378   6.821  22.196  0.00  0.00    +0.020 A 
ATOM     11  C14 UNL     1      25.270   8.243  21.126  0.00  0.00    +0.080 C 
ATOM     12  C15 UNL     1      25.537   8.472  19.617  0.00  0.00    +0.234 C 
ATOM     13  O2  UNL     1      24.528   7.735  18.926  0.00  0.00    -0.491 OA
ENDBRANCH   2   5
BRANCH   1  16
ATOM     14  N2  UNL     1      22.142   3.448  27.072  0.00  0.00    -0.288 NA
ATOM     15  C5  UNL     1      22.178   2.797  25.754  0.00  0.00    +0.108 C 
ATOM     16  C6  UNL     1      21.373   3.910  25.097  0.00  0.00    +0.101 C 
ATOM     17  C16 UNL     1      21.394   4.566  26.473  0.00  0.00    +0.108 C 
BRANCH  14  22
ATOM     18  C1  UNL     1      22.290   2.845  31.813  0.00  0.00    +0.132 C 
ATOM     19  N1  UNL     1      22.079   2.472  30.420  0.00  0.00    -0.303 N 
ATOM     20  C2  UNL     1      22.650   1.301  29.781  0.00  0.00    +0.109 C 
ATOM     21  C3  UNL     1      22.116   1.303  28.335  0.00  0.00    +0.047 C 
ATOM     22  C4  UNL     1      21.412   2.657  28.102  0.00  0.00    +0.145 C 
ATOM     23  C17 UNL     1      21.372   3.249  29.475  0.00  0.00    +0.233 C 
ATOM     24  O3  UNL     1      20.743   4.295  29.786  0.00  0.00    -0.274 OA
ENDBRANCH  14  22
ENDBRANCH   1  16
TORSDOF 3
ENDMDL
MODEL 2
REMARK VINA RESULT:    -5.911     10.168     12.832
REMARK INTER + INTRA:          -6.598
REMARK INTER:                  -6.935
REMARK INTRA:                   0.336
REMARK UNBOUND:                 0.350
REMARK  Name = /home/qwerty/github/datacon2025hack/step_04_hit_selection/docking/ligands/lig_674.pdb
REMARK  4 active torsions:
REMARK  status: ('A' for Active; 'I' for Inactive)
REMARK    1  A    between atoms: C1_1  and  N1_2
REMARK    2  A    between atoms: C4_5  and  N2_6
REMARK    3  A    between atoms: C6_8  and  N3_9
REMARK    4  A    between atoms: C7_10  and  C8_12
REMARK                            x       y       z     vdW  Elec       q    Type
REMARK                         _______ _______ _______ _____ _____    ______ ____
ROOT
ATOM      1  N3  UNL     1      12.982   1.954  21.379  0.00  0.00    -0.306 N 
ATOM      2  C7  UNL     1      14.263   1.525  20.890  0.00  0.00    +0.244 C 
ATOM      3  O1  UNL     1      14.757   2.082  19.871  0.00  0.00    -0.270 OA
ATOM      4  H12 UNL     1      12.678   1.664  22.335  0.00  0.00    +0.149 HD
ENDROOT
BRANCH   2   5
ATOM      5  C8  UNL     1      15.022   0.446  21.568  0.00  0.00    +0.037 A 
ATOM      6  C9  UNL     1      16.225  -0.039  20.996  0.00  0.00    +0.016 A 
ATOM      7  C10 UNL     1      16.952  -1.065  21.622  0.00  0.00    +0.046 A 
ATOM      8  C11 UNL     1      16.457  -1.595  22.809  0.00  0.00    +0.124 A 
ATOM      9  C12 UNL     1      15.298  -1.144  23.368  0.00  0.00    -0.002 A 
ATOM     10  C13 UNL     1      14.551  -0.127  22.773  0.00  0.00    +0.020 A 
ATOM     11  C14 UNL     1      15.012  -1.897  24.617  0.00  0.00    +0.080 C 
ATOM     12  C15 UNL     1      16.213  -2.871  24.708  0.00  0.00    +0.234 C 
ATOM     13  O2  UNL     1      17.021  -2.601  23.562  0.00  0.00    -0.491 OA
ENDBRANCH   2   5
BRANCH   1  16
ATOM     14  N2  UNL     1      10.818   4.321  21.566  0.00  0.00    -0.288 NA
ATOM     15  C5  UNL     1      10.715   2.932  21.097  0.00  0.00    +0.108 C 
ATOM     16  C6  UNL     1      12.163   2.903  20.624  0.00  0.00    +0.101 C 
ATOM     17  C16 UNL     1      12.233   4.329  21.159  0.00  0.00    +0.108 C 
BRANCH  14  22
ATOM     18  C1  UNL     1       8.306   8.277  22.521  0.00  0.00    +0.132 C 
ATOM     19  N1  UNL     1       8.618   7.011  21.868  0.00  0.00    -0.303 N 
ATOM     20  C2  UNL     1       7.703   5.892  21.751  0.00  0.00    +0.109 C 
ATOM     21  C3  UNL     1       8.455   4.809  20.953  0.00  0.00    +0.047 C 
ATOM     22  C4  UNL     1       9.926   5.260  20.831  0.00  0.00    +0.145 C 
ATOM     23  C17 UNL     1       9.884   6.663  21.345  0.00  0.00    +0.233 C 
ATOM     24  O3  UNL     1      10.844   7.477  21.286  0.00  0.00    -0.274 OA
ENDBRANCH  14  22
ENDBRANCH   1  16
TORSDOF 3
ENDMDL
MODEL 3
REMARK VINA RESULT:    -5.899     10.884     14.410
REMARK INTER + INTRA:          -6.584
REMARK INTER:                  -6.955
REMARK INTRA:                   0.371
REMARK UNBOUND:                 0.350
REMARK  Name = /home/qwerty/github/datacon2025hack/step_04_hit_selection/docking/ligands/lig_674.pdb
REMARK  4 active torsions:
REMARK  status: ('A' for Active; 'I' for Inactive)
REMARK    1  A    between atoms: C1_1  and  N1_2
REMARK    2  A    between atoms: C4_5  and  N2_6
REMARK    3  A    between atoms: C6_8  and  N3_9
REMARK    4  A    between atoms: C7_10  and  C8_12
REMARK                            x       y       z     vdW  Elec       q    Type
REMARK                         _______ _______ _______ _____ _____    ______ ____
ROOT
ATOM      1  N3  UNL     1      19.776   9.988  36.538  0.00  0.00    -0.306 N 
ATOM      2  C7  UNL     1      20.290   8.716  36.965  0.00  0.00    +0.244 C 
ATOM      3  O1  UNL     1      19.732   8.111  37.921  0.00  0.00    -0.270 OA
ATOM      4  H12 UNL     1      20.082  10.378  35.618  0.00  0.00    +0.149 HD
ENDROOT
BRANCH   2   5
ATOM      5  C8  UNL     1      21.457   8.095  36.295  0.00  0.00    +0.037 A 
ATOM      6  C9  UNL     1      22.113   6.991  36.896  0.00  0.00    +0.016 A 
ATOM      7  C10 UNL     1      23.225   6.395  36.278  0.00  0.00    +0.046 A 
ATOM      8  C11 UNL     1      23.668   6.922  35.069  0.00  0.00    +0.124 A 
ATOM      9  C12 UNL     1      23.054   7.989  34.483  0.00  0.00    -0.002 A 
ATOM     10  C13 UNL     1      21.948   8.604  35.069  0.00  0.00    +0.020 A 
ATOM     11  C14 UNL     1      23.747   8.338  33.216  0.00  0.00    +0.080 C 
ATOM     12  C15 UNL     1      24.880   7.283  33.147  0.00  0.00    +0.234 C 
ATOM     13  O2  UNL     1      24.737   6.481  34.320  0.00  0.00    -0.491 OA
ENDBRANCH   2   5
BRANCH   1  16
ATOM     14  N2  UNL     1      17.005  11.603  36.360  0.00  0.00    -0.288 NA
ATOM     15  C5  UNL     1      18.370  12.030  36.699  0.00  0.00    +0.108 C 
ATOM     16  C6  UNL     1      18.728  10.674  37.294  0.00  0.00    +0.101 C 
ATOM     17  C16 UNL     1      17.316  10.265  36.890  0.00  0.00    +0.108 C 
BRANCH  14  22
ATOM     18  C1  UNL     1      12.472  12.937  35.625  0.00  0.00    +0.132 C 
ATOM     19  N1  UNL     1      13.833  13.039  36.135  0.00  0.00    -0.303 N 
ATOM     20  C2  UNL     1      14.694  14.196  35.974  0.00  0.00    +0.109 C 
ATOM     21  C3  UNL     1      16.005  13.856  36.711  0.00  0.00    +0.047 C 
ATOM     22  C4  UNL     1      15.950  12.360  37.090  0.00  0.00    +0.145 C 
ATOM     23  C17 UNL     1      14.537  11.991  36.771  0.00  0.00    +0.233 C 
ATOM     24  O3  UNL     1      13.999  10.891  37.069  0.00  0.00    -0.274 OA
ENDBRANCH  14  22
ENDBRANCH   1  16
TORSDOF 3
ENDMDL
MODEL 4
REMARK VINA RESULT:    -5.732     14.214     15.216
REMARK INTER + INTRA:          -6.388
REMARK INTER:                  -6.751
REMARK INTRA:                   0.363
REMARK UNBOUND:                 0.350
REMARK  Name = /home/qwerty/github/datacon2025hack/step_04_hit_selection/docking/ligands/lig_674.pdb
REMARK  4 active torsions:
REMARK  status: ('A' for Active; 'I' for Inactive)
REMARK    1  A    between atoms: C1_1  and  N1_2
REMARK    2  A    between atoms: C4_5  and  N2_6
REMARK    3  A    between atoms: C6_8  and  N3_9
REMARK    4  A    between atoms: C7_10  and  C8_12
REMARK                            x       y       z     vdW  Elec       q    Type
REMARK                         _______ _______ _______ _____ _____    ______ ____
ROOT
ATOM      1  N3  UNL     1      13.570  13.505  32.664  0.00  0.00    -0.306 N 
ATOM      2  C7  UNL     1      12.600  14.458  32.203  0.00  0.00    +0.244 C 
ATOM      3  O1  UNL     1      12.363  15.486  32.894  0.00  0.00    -0.270 OA
ATOM      4  H12 UNL     1      13.932  12.784  32.001  0.00  0.00    +0.149 HD
ENDROOT
BRANCH   2   5
ATOM      5  C8  UNL     1      11.879  14.261  30.922  0.00  0.00    +0.037 A 
ATOM      6  C9  UNL     1      12.442  14.742  29.713  0.00  0.00    +0.016 A 
ATOM      7  C10 UNL     1      11.770  14.570  28.492  0.00  0.00    +0.046 A 
ATOM      8  C11 UNL     1      10.537  13.924  28.503  0.00  0.00    +0.124 A 
ATOM      9  C12 UNL     1       9.979  13.464  29.658  0.00  0.00    -0.002 A 
ATOM     10  C13 UNL     1      10.619  13.618  30.888  0.00  0.00    +0.020 A 
ATOM     11  C14 UNL     1       8.664  12.834  29.369  0.00  0.00    +0.080 C 
ATOM     12  C15 UNL     1       8.543  12.994  27.832  0.00  0.00    +0.234 C 
ATOM     13  O2  UNL     1       9.731  13.669  27.416  0.00  0.00    -0.491 OA
ENDBRANCH   2   5
BRANCH   1  16
ATOM     14  N2  UNL     1      15.357  12.042  34.898  0.00  0.00    -0.288 NA
ATOM     15  C5  UNL     1      13.926  12.375  34.849  0.00  0.00    +0.108 C 
ATOM     16  C6  UNL     1      14.165  13.614  33.997  0.00  0.00    +0.101 C 
ATOM     17  C16 UNL     1      15.634  13.210  34.045  0.00  0.00    +0.108 C 
BRANCH  14  22
ATOM     18  C1  UNL     1      18.957  10.008  37.300  0.00  0.00    +0.132 C 
ATOM     19  N1  UNL     1      17.640  10.601  37.108  0.00  0.00    -0.303 N 
ATOM     20  C2  UNL     1      16.391  10.004  37.541  0.00  0.00    +0.109 C 
ATOM     21  C3  UNL     1      15.284  11.008  37.162  0.00  0.00    +0.047 C 
ATOM     22  C4  UNL     1      15.928  12.094  36.273  0.00  0.00    +0.145 C 
ATOM     23  C17 UNL     1      17.388  11.791  36.388  0.00  0.00    +0.233 C 
ATOM     24  O3  UNL     1      18.309  12.526  35.943  0.00  0.00    -0.274 OA
ENDBRANCH  14  22
ENDBRANCH   1  16
TORSDOF 3
ENDMDL
MODEL 5
REMARK VINA RESULT:    -5.616     10.613     12.210
REMARK INTER + INTRA:          -6.251
REMARK INTER:                  -6.601
REMARK INTRA:                   0.349
REMARK UNBOUND:                 0.350
REMARK  Name = /home/qwerty/github/datacon2025hack/step_04_hit_selection/docking/ligands/lig_674.pdb
REMARK  4 active torsions:
REMARK  status: ('A' for Active; 'I' for Inactive)
REMARK    1  A    between atoms: C1_1  and  N1_2
REMARK    2  A    between atoms: C4_5  and  N2_6
REMARK    3  A    between atoms: C6_8  and  N3_9
REMARK    4  A    between atoms: C7_10  and  C8_12
REMARK                            x       y       z     vdW  Elec       q    Type
REMARK                         _______ _______ _______ _____ _____    ______ ____
ROOT
ATOM      1  N3  UNL     1      11.462   4.437  21.052  0.00  0.00    -0.306 N 
ATOM      2  C7  UNL     1      10.106   4.907  20.985  0.00  0.00    +0.244 C 
ATOM      3  O1  UNL     1       9.160   4.074  20.973  0.00  0.00    -0.270 OA
ATOM      4  H12 UNL     1      12.224   5.110  21.290  0.00  0.00    +0.149 HD
ENDROOT
BRANCH   2   5
ATOM      5  C8  UNL     1       9.798   6.357  20.940  0.00  0.00    +0.037 A 
ATOM      6  C9  UNL     1       8.619   6.849  21.555  0.00  0.00    +0.016 A 
ATOM      7  C10 UNL     1       8.308   8.218  21.516  0.00  0.00    +0.046 A 
ATOM      8  C11 UNL     1       9.183   9.074  20.854  0.00  0.00    +0.124 A 
ATOM      9  C12 UNL     1      10.316   8.615  20.251  0.00  0.00    -0.002 A 
ATOM     10  C13 UNL     1      10.655   7.262  20.270  0.00  0.00    +0.020 A 
ATOM     11  C14 UNL     1      11.044   9.745  19.616  0.00  0.00    +0.080 C 
ATOM     12  C15 UNL     1      10.145  10.961  19.956  0.00  0.00    +0.234 C 
ATOM     13  O2  UNL     1       9.048  10.437  20.705  0.00  0.00    -0.491 OA
ENDBRANCH   2   5
BRANCH   1  16
ATOM     14  N2  UNL     1      13.752   2.197  21.306  0.00  0.00    -0.288 NA
ATOM     15  C5  UNL     1      13.049   2.755  20.142  0.00  0.00    +0.108 C 
ATOM     16  C6  UNL     1      11.775   3.012  20.937  0.00  0.00    +0.101 C 
ATOM     17  C16 UNL     1      12.556   2.461  22.125  0.00  0.00    +0.108 C 
BRANCH  14  22
ATOM     18  C1  UNL     1      17.239  -0.733  22.762  0.00  0.00    +0.132 C 
ATOM     19  N1  UNL     1      16.216  -0.207  21.866  0.00  0.00    -0.303 N 
ATOM     20  C2  UNL     1      16.426   0.111  20.466  0.00  0.00    +0.109 C 
ATOM     21  C3  UNL     1      15.062   0.589  19.930  0.00  0.00    +0.047 C 
ATOM     22  C4  UNL     1      14.122   0.764  21.142  0.00  0.00    +0.145 C 
ATOM     23  C17 UNL     1      14.909   0.158  22.260  0.00  0.00    +0.233 C 
ATOM     24  O3  UNL     1      14.461  -0.057  23.417  0.00  0.00    -0.274 OA
ENDBRANCH  14  22
ENDBRANCH   1  16
TORSDOF 3
ENDMDL
MODEL 6
REMARK VINA RESULT:    -5.568      6.248     10.108
REMARK INTER + INTRA:          -6.194
REMARK INTER:                  -6.554
REMARK INTRA:                   0.359
REMARK UNBOUND:                 0.350
REMARK  Name = /home/qwerty/github/datacon2025hack/step_04_hit_selection/docking/ligands/lig_674.pdb
REMARK  4 active torsions:
REMARK  status: ('A' for Active; 'I' for Inactive)
REMARK    1  A    between atoms: C1_1  and  N1_2
REMARK    2  A    between atoms: C4_5  and  N2_6
REMARK    3  A    between atoms: C6_8  and  N3_9
REMARK    4  A    between atoms: C7_10  and  C8_12
REMARK                            x       y       z     vdW  Elec       q    Type
REMARK                         _______ _______ _______ _____ _____    ______ ____
ROOT
ATOM      1  N3  UNL     1      17.651   1.180  24.820  0.00  0.00    -0.306 N 
ATOM      2  C7  UNL     1      19.041   0.976  25.119  0.00  0.00    +0.244 C 
ATOM      3  O1  UNL     1      19.840   0.684  24.187  0.00  0.00    -0.270 OA
ATOM      4  H12 UNL     1      17.038   1.639  25.530  0.00  0.00    +0.149 HD
ENDROOT
BRANCH   2   5
ATOM      5  C8  UNL     1      19.557   1.115  26.502  0.00  0.00    +0.037 A 
ATOM      6  C9  UNL     1      18.652   1.281  27.581  0.00  0.00    +0.016 A 
ATOM      7  C10 UNL     1      19.124   1.421  28.896  0.00  0.00    +0.046 A 
ATOM      8  C11 UNL     1      20.498   1.399  29.110  0.00  0.00    +0.124 A 
ATOM      9  C12 UNL     1      21.382   1.248  28.082  0.00  0.00    -0.002 A 
ATOM     10  C13 UNL     1      20.947   1.106  26.764  0.00  0.00    +0.020 A 
ATOM     11  C14 UNL     1      22.773   1.274  28.603  0.00  0.00    +0.080 C 
ATOM     12  C15 UNL     1      22.561   1.460  30.127  0.00  0.00    +0.234 C 
ATOM     13  O2  UNL     1      21.147   1.525  30.318  0.00  0.00    -0.491 OA
ENDBRANCH   2   5
BRANCH   1  16
ATOM     14  N2  UNL     1      15.495   2.025  22.592  0.00  0.00    -0.288 NA
ATOM     15  C5  UNL     1      15.590   0.851  23.471  0.00  0.00    +0.108 C 
ATOM     16  C6  UNL     1      17.112   0.891  23.490  0.00  0.00    +0.101 C 
ATOM     17  C16 UNL     1      16.964   2.127  22.610  0.00  0.00    +0.108 C 
BRANCH  14  22
ATOM     18  C1  UNL     1      13.316   4.437  19.084  0.00  0.00    +0.132 C 
ATOM     19  N1  UNL     1      13.604   3.303  19.954  0.00  0.00    -0.303 N 
ATOM     20  C2  UNL     1      12.608   2.555  20.698  0.00  0.00    +0.109 C 
ATOM     21  C3  UNL     1      13.374   1.436  21.430  0.00  0.00    +0.047 C 
ATOM     22  C4  UNL     1      14.883   1.724  21.268  0.00  0.00    +0.145 C 
ATOM     23  C17 UNL     1      14.901   2.836  20.269  0.00  0.00    +0.233 C 
ATOM     24  O3  UNL     1      15.940   3.290  19.720  0.00  0.00    -0.274 OA
ENDBRANCH  14  22
ENDBRANCH   1  16
TORSDOF 3
ENDMDL
MODEL 7
REMARK VINA RESULT:    -5.462     13.234     15.441
REMARK INTER + INTRA:          -6.070
REMARK INTER:                  -6.433
REMARK INTRA:                   0.362
REMARK UNBOUND:                 0.350
REMARK  Name = /home/qwerty/github/datacon2025hack/step_04_hit_selection/docking/ligands/lig_674.pdb
REMARK  4 active torsions:
REMARK  status: ('A' for Active; 'I' for Inactive)
REMARK    1  A    between atoms: C1_1  and  N1_2
REMARK    2  A    between atoms: C4_5  and  N2_6
REMARK    3  A    between atoms: C6_8  and  N3_9
REMARK    4  A    between atoms: C7_10  and  C8_12
REMARK                            x       y       z     vdW  Elec       q    Type
REMARK                         _______ _______ _______ _____ _____    ______ ____
ROOT
ATOM      1  N3  UNL     1       9.046   9.499  25.016  0.00  0.00    -0.306 N 
ATOM      2  C7  UNL     1       8.295   9.782  26.207  0.00  0.00    +0.244 C 
ATOM      3  O1  UNL     1       7.234   9.140  26.439  0.00  0.00    -0.270 OA
ATOM      4  H12 UNL     1      10.025   9.854  24.934  0.00  0.00    +0.149 HD
ENDROOT
BRANCH   2   5
ATOM      5  C8  UNL     1       8.751  10.807  27.176  0.00  0.00    +0.037 A 
ATOM      6  C9  UNL     1       8.001  11.048  28.355  0.00  0.00    +0.016 A 
ATOM      7  C10 UNL     1       8.414  12.021  29.280  0.00  0.00    +0.046 A 
ATOM      8  C11 UNL     1       9.571  12.744  29.005  0.00  0.00    +0.124 A 
ATOM      9  C12 UNL     1      10.298  12.530  27.871  0.00  0.00    -0.002 A 
ATOM     10  C13 UNL     1       9.916  11.572  26.932  0.00  0.00    +0.020 A 
ATOM     11  C14 UNL     1      11.465  13.449  27.838  0.00  0.00    +0.080 C 
ATOM     12  C15 UNL     1      11.309  14.243  29.159  0.00  0.00    +0.234 C 
ATOM     13  O2  UNL     1      10.129  13.735  29.782  0.00  0.00    -0.491 OA
ENDBRANCH   2   5
BRANCH   1  16
ATOM     14  N2  UNL     1       9.756   7.193  22.894  0.00  0.00    -0.288 NA
ATOM     15  C5  UNL     1       9.373   8.601  22.721  0.00  0.00    +0.108 C 
ATOM     16  C6  UNL     1       8.520   8.604  23.983  0.00  0.00    +0.101 C 
ATOM     17  C16 UNL     1       8.973   7.157  24.141  0.00  0.00    +0.108 C 
BRANCH  14  22
ATOM     18  C1  UNL     1      10.859   2.919  21.053  0.00  0.00    +0.132 C 
ATOM     19  N1  UNL     1      10.387   4.298  21.052  0.00  0.00    -0.303 N 
ATOM     20  C2  UNL     1      10.853   5.332  20.147  0.00  0.00    +0.109 C 
ATOM     21  C3  UNL     1      10.043   6.597  20.494  0.00  0.00    +0.047 C 
ATOM     22  C4  UNL     1       9.268   6.310  21.798  0.00  0.00    +0.145 C 
ATOM     23  C17 UNL     1       9.483   4.843  21.992  0.00  0.00    +0.233 C 
ATOM     24  O3  UNL     1       8.899   4.142  22.860  0.00  0.00    -0.274 OA
ENDBRANCH  14  22
ENDBRANCH   1  16
TORSDOF 3
ENDMDL
MODEL 8
REMARK VINA RESULT:    -5.417      5.816     10.137
REMARK INTER + INTRA:          -6.018
REMARK INTER:                  -6.357
REMARK INTRA:                   0.339
REMARK UNBOUND:                 0.350
REMARK  Name = /home/qwerty/github/datacon2025hack/step_04_hit_selection/docking/ligands/lig_674.pdb
REMARK  4 active torsions:
REMARK  status: ('A' for Active; 'I' for Inactive)
REMARK    1  A    between atoms: C1_1  and  N1_2
REMARK    2  A    between atoms: C4_5  and  N2_6
REMARK    3  A    between atoms: C6_8  and  N3_9
REMARK    4  A    between atoms: C7_10  and  C8_12
REMARK                            x       y       z     vdW  Elec       q    Type
REMARK                         _______ _______ _______ _____ _____    ______ ____
ROOT
ATOM      1  N3  UNL     1      18.926   1.135  25.504  0.00  0.00    -0.306 N 
ATOM      2  C7  UNL     1      20.163   1.534  26.116  0.00  0.00    +0.244 C 
ATOM      3  O1  UNL     1      21.043   2.110  25.420  0.00  0.00    -0.270 OA
ATOM      4  H12 UNL     1      18.118   0.872  26.111  0.00  0.00    +0.149 HD
ENDROOT
BRANCH   2   5
ATOM      5  C8  UNL     1      20.419   1.292  27.556  0.00  0.00    +0.037 A 
ATOM      6  C9  UNL     1      21.730   0.979  27.998  0.00  0.00    +0.016 A 
ATOM      7  C10 UNL     1      21.989   0.740  29.358  0.00  0.00    +0.046 A 
ATOM      8  C11 UNL     1      20.928   0.810  30.254  0.00  0.00    +0.124 A 
ATOM      9  C12 UNL     1      19.661   1.101  29.844  0.00  0.00    -0.002 A 
ATOM     10  C13 UNL     1      19.368   1.345  28.501  0.00  0.00    +0.020 A 
ATOM     11  C14 UNL     1      18.738   1.095  31.008  0.00  0.00    +0.080 C 
ATOM     12  C15 UNL     1      19.683   0.757  32.188  0.00  0.00    +0.234 C 
ATOM     13  O2  UNL     1      20.982   0.603  31.615  0.00  0.00    -0.491 OA
ENDBRANCH   2   5
BRANCH   1  16
ATOM     14  N2  UNL     1      16.813   1.655  23.140  0.00  0.00    -0.288 NA
ATOM     15  C5  UNL     1      17.521   0.442  23.575  0.00  0.00    +0.108 C 
ATOM     16  C6  UNL     1      18.733   1.229  24.056  0.00  0.00    +0.101 C 
ATOM     17  C16 UNL     1      17.946   2.461  23.624  0.00  0.00    +0.108 C 
BRANCH  14  22
ATOM     18  C1  UNL     1      13.500   3.412  20.173  0.00  0.00    +0.132 C 
ATOM     19  N1  UNL     1      14.522   2.485  20.644  0.00  0.00    -0.303 N 
ATOM     20  C2  UNL     1      14.358   1.046  20.729  0.00  0.00    +0.109 C 
ATOM     21  C3  UNL     1      15.706   0.494  21.236  0.00  0.00    +0.047 C 
ATOM     22  C4  UNL     1      16.567   1.700  21.672  0.00  0.00    +0.145 C 
ATOM     23  C17 UNL     1      15.774   2.867  21.175  0.00  0.00    +0.233 C 
ATOM     24  O3  UNL     1      16.179   4.060  21.176  0.00  0.00    -0.274 OA
ENDBRANCH  14  22
ENDBRANCH   1  16
TORSDOF 3
ENDMDL
MODEL 9
REMARK VINA RESULT:    -5.399     14.658     15.686
REMARK INTER + INTRA:          -5.996
REMARK INTER:                  -6.354
REMARK INTRA:                   0.357
REMARK UNBOUND:                 0.350
REMARK  Name = /home/qwerty/github/datacon2025hack/step_04_hit_selection/docking/ligands/lig_674.pdb
REMARK  4 active torsions:
REMARK  status: ('A' for Active; 'I' for Inactive)
REMARK    1  A    between atoms: C1_1  and  N1_2
REMARK    2  A    between atoms: C4_5  and  N2_6
REMARK    3  A    between atoms: C6_8  and  N3_9
REMARK    4  A    between atoms: C7_10  and  C8_12
REMARK                            x       y       z     vdW  Elec       q    Type
REMARK                         _______ _______ _______ _____ _____    ______ ____
ROOT
ATOM      1  N3  UNL     1      12.108  13.028  31.928  0.00  0.00    -0.306 N 
ATOM      2  C7  UNL     1      11.563  13.531  30.698  0.00  0.00    +0.244 C 
ATOM      3  O1  UNL     1      12.001  14.614  30.222  0.00  0.00    -0.270 OA
ATOM      4  H12 UNL     1      11.918  12.038  32.202  0.00  0.00    +0.149 HD
ENDROOT
BRANCH   2   5
ATOM      5  C8  UNL     1      10.502  12.793  29.970  0.00  0.00    +0.037 A 
ATOM      6  C9  UNL     1       9.914  13.361  28.811  0.00  0.00    +0.016 A 
ATOM      7  C10 UNL     1       8.903  12.679  28.114  0.00  0.00    +0.046 A 
ATOM      8  C11 UNL     1       8.491  11.440  28.594  0.00  0.00    +0.124 A 
ATOM      9  C12 UNL     1       9.041  10.885  29.711  0.00  0.00    -0.002 A 
ATOM     10  C13 UNL     1      10.046  11.535  30.428  0.00  0.00    +0.020 A 
ATOM     11  C14 UNL     1       8.400   9.574  29.992  0.00  0.00    +0.080 C 
ATOM     12  C15 UNL     1       7.377   9.442  28.837  0.00  0.00    +0.234 C 
ATOM     13  O2  UNL     1       7.517  10.629  28.054  0.00  0.00    -0.491 OA
ENDBRANCH   2   5
BRANCH   1  16
ATOM     14  N2  UNL     1      14.415  12.963  34.163  0.00  0.00    -0.288 NA
ATOM     15  C5  UNL     1      13.025  13.440  34.200  0.00  0.00    +0.108 C 
ATOM     16  C6  UNL     1      13.038  13.827  32.727  0.00  0.00    +0.101 C 
ATOM     17  C16 UNL     1      14.463  13.287  32.727  0.00  0.00    +0.108 C 
BRANCH  14  22
ATOM     18  C1  UNL     1      18.649  12.336  36.295  0.00  0.00    +0.132 C 
ATOM     19  N1  UNL     1      17.295  12.849  36.128  0.00  0.00    -0.303 N 
ATOM     20  C2  UNL     1      16.249  12.767  37.130  0.00  0.00    +0.109 C 
ATOM     21  C3  UNL     1      15.022  13.475  36.523  0.00  0.00    +0.047 C 
ATOM     22  C4  UNL     1      15.332  13.748  35.035  0.00  0.00    +0.145 C 
ATOM     23  C17 UNL     1      16.785  13.407  34.934  0.00  0.00    +0.233 C 
ATOM     24  O3  UNL     1      17.504  13.628  33.924  0.00  0.00    -0.274 OA
ENDBRANCH  14  22
ENDBRANCH   1  16
TORSDOF 3
ENDMDL
