REMARK  Name = /home/qwerty/github/datacon2025hack/step_04_hit_selection/docking/ligands/lig_467.pdb
REMARK  9 active torsions:
REMARK  status: ('A' for Active; 'I' for Inactive)
REMARK    1  A    between atoms: C1_1  and  C2_2
REMARK    2  A    between atoms: C2_2  and  C3_3
REMARK    3  A    between atoms: C3_3  and  N1_4
REMARK    4  A    between atoms: C3_3  and  C12_16
REMARK    5  A    between atoms: C7_10  and  C8_11
REMARK    6  A    between atoms: C10_13  and  C11_14
REMARK    7  A    between atoms: C11_14  and  N3_15
REMARK    8  A    between atoms: C16_20  and  O2_21
REMARK    9  A    between atoms: O2_21  and  C17_22
REMARK                            x       y       z     vdW  Elec       q    Type
REMARK                         _______ _______ _______ _____ _____    ______ ____
ROOT
ATOM      1  N1  UNL     1       0.244   1.534  -0.619  0.00  0.00    -0.292 N 
ATOM      2  C4  UNL     1      -0.634   0.491  -1.077  0.00  0.00    +0.303 C 
ATOM      3  O1  UNL     1      -0.361  -0.121  -2.146  0.00  0.00    -0.253 OA
ATOM      4  N2  UNL     1      -1.817   0.135  -0.327  0.00  0.00    -0.281 N 
ATOM      5  C5  UNL     1      -1.917   0.525   1.092  0.00  0.00    +0.110 C 
ATOM      6  C6  UNL     1      -2.964  -0.297   1.853  0.00  0.00    +0.022 C 
ATOM      7  C7  UNL     1      -3.012  -1.728   1.307  0.00  0.00    -0.011 C 
ATOM      8  C8  UNL     1      -3.906  -2.617   2.179  0.00  0.00    +0.007 C 
ATOM      9  C9  UNL     1      -3.498  -1.725  -0.158  0.00  0.00    +0.027 C 
ATOM     10  C10 UNL     1      -2.947  -0.540  -1.002  0.00  0.00    +0.091 C 
ATOM     11  H7  UNL     1      -0.073   2.167   0.149  0.00  0.00    +0.151 HD
ENDROOT
BRANCH   1  12
ATOM     12  C3  UNL     1       1.578   1.731  -1.197  0.00  0.00    +0.105 C 
BRANCH  12  13
ATOM     13  C12 UNL     1       2.471   0.561  -0.834  0.00  0.00    -0.024 A 
ATOM     14  C13 UNL     1       3.208  -0.101  -1.829  0.00  0.00    +0.006 A 
ATOM     15  C14 UNL     1       4.036  -1.174  -1.495  0.00  0.00    +0.004 A 
ATOM     16  C15 UNL     1       4.142  -1.596  -0.167  0.00  0.00    +0.045 A 
ATOM     17  C16 UNL     1       3.415  -0.939   0.844  0.00  0.00    +0.120 A 
ATOM     18  C18 UNL     1       2.587   0.137   0.502  0.00  0.00    +0.051 A 
BRANCH  17  19
ATOM     19  O2  UNL     1       3.487  -1.323   2.191  0.00  0.00    -0.495 OA
ATOM     20  C17 UNL     1       4.282  -2.398   2.680  0.00  0.00    +0.277 C 
ENDBRANCH  17  19
ENDBRANCH  12  13
BRANCH  12  22
ATOM     21  C1  UNL     1       3.497   3.401  -1.413  0.00  0.00    +0.006 C 
ATOM     22  C2  UNL     1       2.181   3.065  -0.711  0.00  0.00    +0.024 C 
ENDBRANCH  12  22
ENDBRANCH   1  12
BRANCH  10  23
ATOM     23  C11 UNL     1      -4.052   0.481  -1.340  0.00  0.00    +0.100 C 
BRANCH  23  24
ATOM     24  N3  UNL     1      -3.544   1.514  -2.240  0.00  0.00    -0.328 NA
ATOM     25  H21 UNL     1      -2.958   2.177  -1.682  0.00  0.00    +0.118 HD
ATOM     26  H22 UNL     1      -4.362   2.068  -2.583  0.00  0.00    +0.118 HD
ENDBRANCH  23  24
ENDBRANCH  10  23
TORSDOF 6
