REMARK  Name = /home/qwerty/github/datacon2025hack/step_04_hit_selection/docking/ligands/lig_620.pdb
REMARK  4 active torsions:
REMARK  status: ('A' for Active; 'I' for Inactive)
REMARK    1  A    between atoms: C1_1  and  C2_2
REMARK    2  A    between atoms: C4_4  and  N1_5
REMARK    3  A    between atoms: C5_6  and  C6_8
REMARK    4  A    between atoms: C14_20  and  C15_21
REMARK                            x       y       z     vdW  Elec       q    Type
REMARK                         _______ _______ _______ _____ _____    ______ ____
ROOT
ATOM      1  N1  UNL     1      -0.823   0.094  -0.698  0.00  0.00    -0.281 N 
ATOM      2  C5  UNL     1       0.350   0.215   0.129  0.00  0.00    +0.250 C 
ATOM      3  O1  UNL     1       0.227   0.416   1.368  0.00  0.00    -0.270 OA
ATOM      4  H5  UNL     1      -0.716   0.065  -1.736  0.00  0.00    +0.155 HD
ENDROOT
BRANCH   2   5
ATOM      5  C6  UNL     1       1.712   0.115  -0.448  0.00  0.00    +0.057 A 
ATOM      6  C7  UNL     1       1.986   0.507  -1.770  0.00  0.00    +0.125 A 
ATOM      7  N2  UNL     1       3.245   0.399  -2.272  0.00  0.00    -0.246 NA
ATOM      8  C8  UNL     1       4.278  -0.071  -1.527  0.00  0.00    +0.119 A 
ATOM      9  C9  UNL     1       4.071  -0.423  -0.184  0.00  0.00    +0.066 A 
ATOM     10  C10 UNL     1       2.779  -0.341   0.345  0.00  0.00    +0.040 A 
ATOM     11  N3  UNL     1       5.178  -0.774   0.661  0.00  0.00    -0.283 N 
ATOM     12  C11 UNL     1       6.519  -0.378   0.341  0.00  0.00    +0.228 C 
ATOM     13  O2  UNL     1       7.462  -0.673   1.123  0.00  0.00    -0.275 OA
ATOM     14  C12 UNL     1       6.797   0.431  -0.890  0.00  0.00    +0.172 C 
ATOM     15  S1  UNL     1       5.889  -0.289  -2.292  0.00  0.00    -0.095 S 
ATOM     16  H8  UNL     1       4.996  -1.232   1.583  0.00  0.00    +0.155 HD
ENDBRANCH   2   5
BRANCH   1  20
ATOM     17  C1  UNL     1      -5.571   1.417  -1.238  0.00  0.00    +0.045 C 
ATOM     18  C2  UNL     1      -4.507   0.708  -0.445  0.00  0.00    -0.034 A 
ATOM     19  C3  UNL     1      -3.181   0.718  -0.905  0.00  0.00    +0.027 A 
ATOM     20  C4  UNL     1      -2.166   0.081  -0.184  0.00  0.00    +0.034 A 
ATOM     21  C13 UNL     1      -2.490  -0.613   0.992  0.00  0.00    +0.027 A 
ATOM     22  C14 UNL     1      -3.809  -0.636   1.471  0.00  0.00    -0.034 A 
ATOM     23  C15 UNL     1      -4.124  -1.385   2.737  0.00  0.00    +0.045 C 
ATOM     24  C16 UNL     1      -4.825   0.031   0.752  0.00  0.00    +0.024 A 
ATOM     25 BR1  UNL     1      -6.643   0.006   1.397  0.00  0.00    -0.050 Br
ENDBRANCH   1  20
TORSDOF 2
