REMARK  Name = /home/qwerty/github/datacon2025hack/step_04_hit_selection/docking/ligands/lig_173.pdb
REMARK  9 active torsions:
REMARK  status: ('A' for Active; 'I' for Inactive)
REMARK    1  A    between atoms: C1_1  and  C2_2
REMARK    2  A    between atoms: C2_2  and  C3_3
REMARK    3  A    between atoms: C2_2  and  N4_15
REMARK    4  A    between atoms: C3_3  and  N1_4
REMARK    5  A    between atoms: C4_5  and  C5_7
REMARK    6  A    between atoms: N4_15  and  C11_16
REMARK    7  A    between atoms: N4_15  and  C12_17
REMARK    8  A    between atoms: C12_17  and  C13_18
REMARK    9  A    between atoms: C17_22  and  C18_23
REMARK                            x       y       z     vdW  Elec       q    Type
REMARK                         _______ _______ _______ _____ _____    ______ ____
ROOT
ATOM      1  C1  UNL     1      -0.116   1.486   1.312  0.00  0.00    +0.026 C 
ATOM      2  C2  UNL     1       0.080   0.240   0.421  0.00  0.00    +0.071 C 
ENDROOT
BRANCH   2   3
ATOM      3  N4  UNL     1       1.503  -0.174   0.279  0.00  0.00    -0.297 NA
ATOM      4  C11 UNL     1       1.969  -0.940   1.450  0.00  0.00    +0.105 C 
BRANCH   3   5
ATOM      5  C12 UNL     1       2.434   0.932  -0.041  0.00  0.00    +0.119 C 
BRANCH   5   6
ATOM      6  C13 UNL     1       3.643   0.400  -0.764  0.00  0.00    -0.033 A 
ATOM      7  C14 UNL     1       3.514  -0.090  -2.072  0.00  0.00    +0.005 A 
ATOM      8  C15 UNL     1       4.625  -0.602  -2.744  0.00  0.00    +0.001 A 
ATOM      9  C16 UNL     1       5.873  -0.634  -2.116  0.00  0.00    +0.012 A 
ATOM     10  C17 UNL     1       6.020  -0.154  -0.804  0.00  0.00    +0.023 A 
ATOM     11  C19 UNL     1       4.897   0.362  -0.133  0.00  0.00    +0.016 A 
BRANCH  10  12
ATOM     12  C18 UNL     1       7.338  -0.193  -0.137  0.00  0.00    +0.204 A 
ATOM     13  N5  UNL     1       8.466  -0.670  -0.702  0.00  0.00    -0.108 NA
ATOM     14  N6  UNL     1       9.401  -0.522   0.222  0.00  0.00    -0.049 NA
ATOM     15  N7  UNL     1       8.861   0.021   1.300  0.00  0.00    -0.176 N 
ATOM     16  N8  UNL     1       7.572   0.243   1.117  0.00  0.00    -0.133 NA
ATOM     17  H23 UNL     1       9.383   0.243   2.175  0.00  0.00    +0.214 HD
ENDBRANCH  10  12
ENDBRANCH   5   6
ENDBRANCH   3   5
ENDBRANCH   2   3
BRANCH   2  18
ATOM     18  C3  UNL     1      -0.554   0.439  -0.971  0.00  0.00    +0.123 C 
BRANCH  18  19
ATOM     19  N1  UNL     1      -2.009   0.564  -0.874  0.00  0.00    -0.309 N 
ATOM     20  C4  UNL     1      -2.865  -0.563  -0.631  0.00  0.00    +0.264 C 
ATOM     21  O1  UNL     1      -2.382  -1.728  -0.609  0.00  0.00    -0.268 OA
ATOM     22  H7  UNL     1      -2.429   1.504  -1.050  0.00  0.00    +0.149 HD
BRANCH  20  23
ATOM     23  C5  UNL     1      -4.311  -0.386  -0.413  0.00  0.00    +0.147 A 
ATOM     24  C6  UNL     1      -4.983   0.832  -0.258  0.00  0.00    +0.057 A 
ATOM     25  C7  UNL     1      -6.278   0.434  -0.024  0.00  0.00    +0.040 A 
ATOM     26  N2  UNL     1      -6.349  -0.875  -0.039  0.00  0.00    -0.268 N 
ATOM     27  N3  UNL     1      -5.165  -1.425  -0.229  0.00  0.00    -0.166 NA
ATOM     28  C8  UNL     1      -7.551  -1.405   0.550  0.00  0.00    +0.144 C 
ATOM     29  C9  UNL     1      -8.372  -0.129   0.876  0.00  0.00    +0.029 C 
ATOM     30  C10 UNL     1      -7.464   1.091   0.555  0.00  0.00    +0.057 C 
ENDBRANCH  20  23
ENDBRANCH  18  19
ENDBRANCH   2  18
TORSDOF 7
