MODEL 1
REMARK VINA RESULT:    -6.780      0.000      0.000
REMARK INTER + INTRA:          -8.531
REMARK INTER:                  -7.969
REMARK INTRA:                  -0.562
REMARK UNBOUND:                -0.562
REMARK  Name = /home/qwerty/github/datacon2025hack/step_04_hit_selection/docking/ligands/lig_726.pdb
REMARK  3 active torsions:
REMARK  status: ('A' for Active; 'I' for Inactive)
REMARK    1  A    between atoms: C1_2  and  C16_21
REMARK    2  A    between atoms: N1_3  and  C2_4
REMARK    3  A    between atoms: C10_13  and  C11_15
REMARK                            x       y       z     vdW  Elec       q    Type
REMARK                         _______ _______ _______ _____ _____    ______ ____
ROOT
ATOM      1  C2  UNL     1      22.186   3.858  32.623  0.00  0.00    +0.034 A 
ATOM      2  C3  UNL     1      21.006   3.703  33.391  0.00  0.00    +0.025 A 
ATOM      3  C4  UNL     1      20.487   4.780  34.127  0.00  0.00    +0.025 A 
ATOM      4  C5  UNL     1      21.174   5.998  34.103  0.00  0.00    +0.040 A 
ATOM      5  C6  UNL     1      22.318   6.151  33.371  0.00  0.00    -0.023 A 
ATOM      6  C7  UNL     1      22.855   5.098  32.631  0.00  0.00    +0.028 A 
ATOM      7  C8  UNL     1      22.837   7.538  33.496  0.00  0.00    +0.056 C 
ATOM      8  C9  UNL     1      21.815   8.221  34.436  0.00  0.00    +0.119 C 
ATOM      9  N2  UNL     1      20.809   7.203  34.758  0.00  0.00    -0.267 N 
ATOM     10  C10 UNL     1      19.908   7.304  35.872  0.00  0.00    +0.252 C 
ATOM     11  O2  UNL     1      19.786   6.332  36.666  0.00  0.00    -0.270 OA
ENDROOT
BRANCH  10  12
ATOM     12  C11 UNL     1      19.141   8.544  36.122  0.00  0.00    +0.055 A 
ATOM     13  C12 UNL     1      18.246   9.035  35.158  0.00  0.00    +0.016 A 
ATOM     14  C13 UNL     1      17.534  10.211  35.398  0.00  0.00    +0.020 A 
ATOM     15  C14 UNL     1      17.729  10.896  36.597  0.00  0.00    +0.111 A 
ATOM     16  N3  UNL     1      18.612  10.422  37.516  0.00  0.00    -0.263 NA
ATOM     17  C15 UNL     1      19.315   9.277  37.307  0.00  0.00    +0.123 A 
ENDBRANCH  10  12
BRANCH   1  20
ATOM     18  O1  UNL     1      21.358   2.987  30.014  0.00  0.00    -0.270 OA
ATOM     19  C1  UNL     1      22.263   2.330  30.597  0.00  0.00    +0.248 C 
ATOM     20  N1  UNL     1      22.749   2.762  31.883  0.00  0.00    -0.281 N 
ATOM     21  H1  UNL     1      23.587   2.298  32.295  0.00  0.00    +0.155 HD
BRANCH  19  22
ATOM     22  C16 UNL     1      22.814   1.125  29.932  0.00  0.00    +0.037 A 
ATOM     23  C17 UNL     1      21.985   0.055  29.542  0.00  0.00    +0.016 A 
ATOM     24  C18 UNL     1      22.530  -1.073  28.920  0.00  0.00    +0.039 A 
ATOM     25  C19 UNL     1      23.906  -1.150  28.688  0.00  0.00    +0.123 A 
ATOM     26  F1  UNL     1      24.431  -2.246  28.086  0.00  0.00    -0.205 F 
ATOM     27  C20 UNL     1      24.740  -0.103  29.081  0.00  0.00    +0.039 A 
ATOM     28  C21 UNL     1      24.200   1.027  29.705  0.00  0.00    +0.016 A 
ENDBRANCH  19  22
ENDBRANCH   1  20
TORSDOF 3
ENDMDL
MODEL 2
REMARK VINA RESULT:    -6.534      6.785      9.035
REMARK INTER + INTRA:          -8.242
REMARK INTER:                  -7.818
REMARK INTRA:                  -0.423
REMARK UNBOUND:                -0.562
REMARK  Name = /home/qwerty/github/datacon2025hack/step_04_hit_selection/docking/ligands/lig_726.pdb
REMARK  3 active torsions:
REMARK  status: ('A' for Active; 'I' for Inactive)
REMARK    1  A    between atoms: C1_2  and  C16_21
REMARK    2  A    between atoms: N1_3  and  C2_4
REMARK    3  A    between atoms: C10_13  and  C11_15
REMARK                            x       y       z     vdW  Elec       q    Type
REMARK                         _______ _______ _______ _____ _____    ______ ____
ROOT
ATOM      1  C2  UNL     1      21.321   3.477  25.323  0.00  0.00    +0.034 A 
ATOM      2  C3  UNL     1      19.953   3.509  25.690  0.00  0.00    +0.025 A 
ATOM      3  C4  UNL     1      19.535   3.002  26.931  0.00  0.00    +0.025 A 
ATOM      4  C5  UNL     1      20.495   2.447  27.782  0.00  0.00    +0.040 A 
ATOM      5  C6  UNL     1      21.815   2.405  27.430  0.00  0.00    -0.023 A 
ATOM      6  C7  UNL     1      22.258   2.900  26.204  0.00  0.00    +0.028 A 
ATOM      7  C8  UNL     1      22.626   1.788  28.513  0.00  0.00    +0.056 C 
ATOM      8  C9  UNL     1      21.577   1.452  29.601  0.00  0.00    +0.119 C 
ATOM      9  N2  UNL     1      20.283   1.902  29.076  0.00  0.00    -0.267 N 
ATOM     10  C10 UNL     1      19.020   1.455  29.594  0.00  0.00    +0.252 C 
ATOM     11  O2  UNL     1      18.137   1.030  28.801  0.00  0.00    -0.270 OA
ENDROOT
BRANCH  10  12
ATOM     12  C11 UNL     1      18.748   1.457  31.048  0.00  0.00    +0.055 A 
ATOM     13  C12 UNL     1      18.676   0.249  31.761  0.00  0.00    +0.016 A 
ATOM     14  C13 UNL     1      18.410   0.260  33.131  0.00  0.00    +0.020 A 
ATOM     15  C14 UNL     1      18.205   1.479  33.779  0.00  0.00    +0.111 A 
ATOM     16  N3  UNL     1      18.259   2.641  33.075  0.00  0.00    -0.263 NA
ATOM     17  C15 UNL     1      18.520   2.657  31.740  0.00  0.00    +0.123 A 
ENDBRANCH  10  12
BRANCH   1  20
ATOM     18  O1  UNL     1      21.203   6.205  24.430  0.00  0.00    -0.270 OA
ATOM     19  C1  UNL     1      21.638   5.337  23.625  0.00  0.00    +0.248 C 
ATOM     20  N1  UNL     1      21.767   3.966  24.047  0.00  0.00    -0.281 N 
ATOM     21  H1  UNL     1      22.253   3.283  23.426  0.00  0.00    +0.155 HD
BRANCH  19  22
ATOM     22  C16 UNL     1      22.018   5.759  22.255  0.00  0.00    +0.037 A 
ATOM     23  C17 UNL     1      21.424   5.182  21.116  0.00  0.00    +0.016 A 
ATOM     24  C18 UNL     1      21.804   5.594  19.834  0.00  0.00    +0.039 A 
ATOM     25  C19 UNL     1      22.782   6.578  19.674  0.00  0.00    +0.123 A 
ATOM     26  F1  UNL     1      23.148   6.974  18.430  0.00  0.00    -0.205 F 
ATOM     27  C20 UNL     1      23.387   7.148  20.795  0.00  0.00    +0.039 A 
ATOM     28  C21 UNL     1      23.013   6.739  22.079  0.00  0.00    +0.016 A 
ENDBRANCH  19  22
ENDBRANCH   1  20
TORSDOF 3
ENDMDL
MODEL 3
REMARK VINA RESULT:    -6.464      6.486     11.818
REMARK INTER + INTRA:          -8.160
REMARK INTER:                  -7.654
REMARK INTRA:                  -0.506
REMARK UNBOUND:                -0.562
REMARK  Name = /home/qwerty/github/datacon2025hack/step_04_hit_selection/docking/ligands/lig_726.pdb
REMARK  3 active torsions:
REMARK  status: ('A' for Active; 'I' for Inactive)
REMARK    1  A    between atoms: C1_2  and  C16_21
REMARK    2  A    between atoms: N1_3  and  C2_4
REMARK    3  A    between atoms: C10_13  and  C11_15
REMARK                            x       y       z     vdW  Elec       q    Type
REMARK                         _______ _______ _______ _____ _____    ______ ____
ROOT
ATOM      1  C2  UNL     1      16.201  10.049  36.879  0.00  0.00    +0.034 A 
ATOM      2  C3  UNL     1      17.143  10.694  36.041  0.00  0.00    +0.025 A 
ATOM      3  C4  UNL     1      18.394  10.106  35.791  0.00  0.00    +0.025 A 
ATOM      4  C5  UNL     1      18.693   8.887  36.405  0.00  0.00    +0.040 A 
ATOM      5  C6  UNL     1      17.791   8.265  37.222  0.00  0.00    -0.023 A 
ATOM      6  C7  UNL     1      16.543   8.825  37.488  0.00  0.00    +0.028 A 
ATOM      7  C8  UNL     1      18.342   6.980  37.727  0.00  0.00    +0.056 C 
ATOM      8  C9  UNL     1      19.748   6.913  37.082  0.00  0.00    +0.119 C 
ATOM      9  N2  UNL     1      19.884   8.126  36.268  0.00  0.00    -0.267 N 
ATOM     10  C10 UNL     1      21.147   8.633  35.807  0.00  0.00    +0.252 C 
ATOM     11  O2  UNL     1      21.433   9.848  35.985  0.00  0.00    -0.270 OA
ENDROOT
BRANCH  10  12
ATOM     12  C11 UNL     1      22.131   7.744  35.152  0.00  0.00    +0.055 A 
ATOM     13  C12 UNL     1      22.031   7.458  33.781  0.00  0.00    +0.016 A 
ATOM     14  C13 UNL     1      22.959   6.610  33.173  0.00  0.00    +0.020 A 
ATOM     15  C14 UNL     1      23.976   6.044  33.944  0.00  0.00    +0.111 A 
ATOM     16  N3  UNL     1      24.051   6.313  35.274  0.00  0.00    -0.263 NA
ATOM     17  C15 UNL     1      23.162   7.139  35.889  0.00  0.00    +0.123 A 
ENDBRANCH  10  12
BRANCH   1  20
ATOM     18  O1  UNL     1      13.862   9.919  35.216  0.00  0.00    -0.270 OA
ATOM     19  C1  UNL     1      13.795  10.596  36.278  0.00  0.00    +0.248 C 
ATOM     20  N1  UNL     1      14.925  10.645  37.171  0.00  0.00    -0.281 N 
ATOM     21  H1  UNL     1      14.817  11.091  38.107  0.00  0.00    +0.155 HD
BRANCH  19  22
ATOM     22  C16 UNL     1      12.540  11.322  36.586  0.00  0.00    +0.037 A 
ATOM     23  C17 UNL     1      12.173  12.488  35.886  0.00  0.00    +0.016 A 
ATOM     24  C18 UNL     1      10.985  13.157  36.199  0.00  0.00    +0.039 A 
ATOM     25  C19 UNL     1      10.155  12.677  37.215  0.00  0.00    +0.123 A 
ATOM     26  F1  UNL     1       9.005  13.329  37.516  0.00  0.00    -0.205 F 
ATOM     27  C20 UNL     1      10.514  11.530  37.925  0.00  0.00    +0.039 A 
ATOM     28  C21 UNL     1      11.702  10.858  37.617  0.00  0.00    +0.016 A 
ENDBRANCH  19  22
ENDBRANCH   1  20
TORSDOF 3
ENDMDL
MODEL 4
REMARK VINA RESULT:    -6.412     14.657     15.792
REMARK INTER + INTRA:          -8.099
REMARK INTER:                  -7.672
REMARK INTRA:                  -0.427
REMARK UNBOUND:                -0.562
REMARK  Name = /home/qwerty/github/datacon2025hack/step_04_hit_selection/docking/ligands/lig_726.pdb
REMARK  3 active torsions:
REMARK  status: ('A' for Active; 'I' for Inactive)
REMARK    1  A    between atoms: C1_2  and  C16_21
REMARK    2  A    between atoms: N1_3  and  C2_4
REMARK    3  A    between atoms: C10_13  and  C11_15
REMARK                            x       y       z     vdW  Elec       q    Type
REMARK                         _______ _______ _______ _____ _____    ______ ____
ROOT
ATOM      1  C2  UNL     1      12.090   4.403  20.615  0.00  0.00    +0.034 A 
ATOM      2  C3  UNL     1      12.581   5.726  20.738  0.00  0.00    +0.025 A 
ATOM      3  C4  UNL     1      11.694   6.801  20.915  0.00  0.00    +0.025 A 
ATOM      4  C5  UNL     1      10.322   6.537  20.943  0.00  0.00    +0.040 A 
ATOM      5  C6  UNL     1       9.843   5.264  20.816  0.00  0.00    -0.023 A 
ATOM      6  C7  UNL     1      10.699   4.178  20.639  0.00  0.00    +0.028 A 
ATOM      7  C8  UNL     1       8.358   5.252  20.901  0.00  0.00    +0.056 C 
ATOM      8  C9  UNL     1       7.998   6.744  21.102  0.00  0.00    +0.119 C 
ATOM      9  N2  UNL     1       9.271   7.473  21.128  0.00  0.00    -0.267 N 
ATOM     10  C10 UNL     1       9.375   8.892  20.926  0.00  0.00    +0.252 C 
ATOM     11  O2  UNL     1      10.209   9.343  20.095  0.00  0.00    -0.270 OA
ENDROOT
BRANCH  10  12
ATOM     12  C11 UNL     1       8.498   9.832  21.657  0.00  0.00    +0.055 A 
ATOM     13  C12 UNL     1       8.082   9.547  22.967  0.00  0.00    +0.016 A 
ATOM     14  C13 UNL     1       7.246  10.436  23.646  0.00  0.00    +0.020 A 
ATOM     15  C14 UNL     1       6.821  11.600  23.005  0.00  0.00    +0.111 A 
ATOM     16  N3  UNL     1       7.215  11.856  21.729  0.00  0.00    -0.263 NA
ATOM     17  C15 UNL     1       8.031  11.008  21.048  0.00  0.00    +0.123 A 
ENDBRANCH  10  12
BRANCH   1  20
ATOM     18  O1  UNL     1      13.206   2.731  22.668  0.00  0.00    -0.270 OA
ATOM     19  C1  UNL     1      13.553   2.514  21.475  0.00  0.00    +0.248 C 
ATOM     20  N1  UNL     1      12.978   3.291  20.407  0.00  0.00    -0.281 N 
ATOM     21  H1  UNL     1      13.163   3.017  19.418  0.00  0.00    +0.155 HD
BRANCH  19  22
ATOM     22  C16 UNL     1      14.546   1.448  21.202  0.00  0.00    +0.037 A 
ATOM     23  C17 UNL     1      15.104   1.272  19.921  0.00  0.00    +0.016 A 
ATOM     24  C18 UNL     1      16.035   0.255  19.687  0.00  0.00    +0.039 A 
ATOM     25  C19 UNL     1      16.416  -0.600  20.724  0.00  0.00    +0.123 A 
ATOM     26  F1  UNL     1      17.318  -1.585  20.494  0.00  0.00    -0.205 F 
ATOM     27  C20 UNL     1      15.861  -0.444  21.995  0.00  0.00    +0.039 A 
ATOM     28  C21 UNL     1      14.927   0.570  22.234  0.00  0.00    +0.016 A 
ENDBRANCH  19  22
ENDBRANCH   1  20
TORSDOF 3
ENDMDL
MODEL 5
REMARK VINA RESULT:    -6.125     13.559     17.003
REMARK INTER + INTRA:          -7.762
REMARK INTER:                  -7.179
REMARK INTRA:                  -0.583
REMARK UNBOUND:                -0.562
REMARK  Name = /home/qwerty/github/datacon2025hack/step_04_hit_selection/docking/ligands/lig_726.pdb
REMARK  3 active torsions:
REMARK  status: ('A' for Active; 'I' for Inactive)
REMARK    1  A    between atoms: C1_2  and  C16_21
REMARK    2  A    between atoms: N1_3  and  C2_4
REMARK    3  A    between atoms: C10_13  and  C11_15
REMARK                            x       y       z     vdW  Elec       q    Type
REMARK                         _______ _______ _______ _____ _____    ______ ____
ROOT
ATOM      1  C2  UNL     1      12.083   5.867  21.593  0.00  0.00    +0.034 A 
ATOM      2  C3  UNL     1      11.547   4.580  21.342  0.00  0.00    +0.025 A 
ATOM      3  C4  UNL     1      12.357   3.438  21.443  0.00  0.00    +0.025 A 
ATOM      4  C5  UNL     1      13.706   3.603  21.773  0.00  0.00    +0.040 A 
ATOM      5  C6  UNL     1      14.231   4.842  22.007  0.00  0.00    -0.023 A 
ATOM      6  C7  UNL     1      13.450   5.994  21.914  0.00  0.00    +0.028 A 
ATOM      7  C8  UNL     1      15.672   4.743  22.358  0.00  0.00    +0.056 C 
ATOM      8  C9  UNL     1      15.952   3.221  22.299  0.00  0.00    +0.119 C 
ATOM      9  N2  UNL     1      14.680   2.584  21.941  0.00  0.00    -0.267 N 
ATOM     10  C10 UNL     1      14.581   1.246  21.427  0.00  0.00    +0.252 C 
ATOM     11  O2  UNL     1      13.909   1.027  20.382  0.00  0.00    -0.270 OA
ENDROOT
BRANCH  10  12
ATOM     12  C11 UNL     1      15.282   0.122  22.087  0.00  0.00    +0.055 A 
ATOM     13  C12 UNL     1      14.789  -0.420  23.284  0.00  0.00    +0.016 A 
ATOM     14  C13 UNL     1      15.462  -1.474  23.905  0.00  0.00    +0.020 A 
ATOM     15  C14 UNL     1      16.632  -1.971  23.330  0.00  0.00    +0.111 A 
ATOM     16  N3  UNL     1      17.110  -1.426  22.181  0.00  0.00    -0.263 NA
ATOM     17  C15 UNL     1      16.471  -0.401  21.555  0.00  0.00    +0.123 A 
ENDBRANCH  10  12
BRANCH   1  20
ATOM     18  O1  UNL     1      10.569   7.100  23.700  0.00  0.00    -0.270 OA
ATOM     19  C1  UNL     1      10.494   7.603  22.546  0.00  0.00    +0.248 C 
ATOM     20  N1  UNL     1      11.279   7.052  21.470  0.00  0.00    -0.281 N 
ATOM     21  H1  UNL     1      11.317   7.553  20.557  0.00  0.00    +0.155 HD
BRANCH  19  22
ATOM     22  C16 UNL     1       9.600   8.765  22.328  0.00  0.00    +0.037 A 
ATOM     23  C17 UNL     1       8.631   9.137  23.281  0.00  0.00    +0.016 A 
ATOM     24  C18 UNL     1       7.796  10.235  23.049  0.00  0.00    +0.039 A 
ATOM     25  C19 UNL     1       7.912  10.968  21.866  0.00  0.00    +0.123 A 
ATOM     26  F1  UNL     1       7.100  12.031  21.645  0.00  0.00    -0.205 F 
ATOM     27  C20 UNL     1       8.859  10.602  20.909  0.00  0.00    +0.039 A 
ATOM     28  C21 UNL     1       9.696   9.504  21.134  0.00  0.00    +0.016 A 
ENDBRANCH  19  22
ENDBRANCH   1  20
TORSDOF 3
ENDMDL
MODEL 6
REMARK VINA RESULT:    -6.061      4.670      6.672
REMARK INTER + INTRA:          -7.687
REMARK INTER:                  -7.164
REMARK INTRA:                  -0.522
REMARK UNBOUND:                -0.562
REMARK  Name = /home/qwerty/github/datacon2025hack/step_04_hit_selection/docking/ligands/lig_726.pdb
REMARK  3 active torsions:
REMARK  status: ('A' for Active; 'I' for Inactive)
REMARK    1  A    between atoms: C1_2  and  C16_21
REMARK    2  A    between atoms: N1_3  and  C2_4
REMARK    3  A    between atoms: C10_13  and  C11_15
REMARK                            x       y       z     vdW  Elec       q    Type
REMARK                         _______ _______ _______ _____ _____    ______ ____
ROOT
ATOM      1  C2  UNL     1      19.121   1.748  28.484  0.00  0.00    +0.034 A 
ATOM      2  C3  UNL     1      19.328   3.147  28.420  0.00  0.00    +0.025 A 
ATOM      3  C4  UNL     1      19.978   3.820  29.468  0.00  0.00    +0.025 A 
ATOM      4  C5  UNL     1      20.392   3.082  30.580  0.00  0.00    +0.040 A 
ATOM      5  C6  UNL     1      20.186   1.733  30.651  0.00  0.00    -0.023 A 
ATOM      6  C7  UNL     1      19.545   1.039  29.626  0.00  0.00    +0.028 A 
ATOM      7  C8  UNL     1      20.737   1.186  31.919  0.00  0.00    +0.056 C 
ATOM      8  C9  UNL     1      21.320   2.434  32.626  0.00  0.00    +0.119 C 
ATOM      9  N2  UNL     1      21.076   3.566  31.726  0.00  0.00    -0.267 N 
ATOM     10  C10 UNL     1      21.122   4.939  32.149  0.00  0.00    +0.252 C 
ATOM     11  O2  UNL     1      20.169   5.712  31.861  0.00  0.00    -0.270 OA
ENDROOT
BRANCH  10  12
ATOM     12  C11 UNL     1      22.259   5.453  32.945  0.00  0.00    +0.055 A 
ATOM     13  C12 UNL     1      23.455   5.832  32.316  0.00  0.00    +0.016 A 
ATOM     14  C13 UNL     1      24.525   6.307  33.076  0.00  0.00    +0.020 A 
ATOM     15  C14 UNL     1      24.397   6.388  34.463  0.00  0.00    +0.111 A 
ATOM     16  N3  UNL     1      23.240   6.000  35.063  0.00  0.00    -0.263 NA
ATOM     17  C15 UNL     1      22.182   5.537  34.344  0.00  0.00    +0.123 A 
ENDBRANCH  10  12
BRANCH   1  20
ATOM     18  O1  UNL     1      20.301   0.792  26.045  0.00  0.00    -0.270 OA
ATOM     19  C1  UNL     1      19.061   0.629  26.205  0.00  0.00    +0.248 C 
ATOM     20  N1  UNL     1      18.435   1.042  27.436  0.00  0.00    -0.281 N 
ATOM     21  H1  UNL     1      17.442   0.782  27.616  0.00  0.00    +0.155 HD
BRANCH  19  22
ATOM     22  C16 UNL     1      18.275   0.001  25.116  0.00  0.00    +0.037 A 
ATOM     23  C17 UNL     1      17.927  -1.363  25.152  0.00  0.00    +0.016 A 
ATOM     24  C18 UNL     1      17.189  -1.933  24.109  0.00  0.00    +0.039 A 
ATOM     25  C19 UNL     1      16.797  -1.153  23.019  0.00  0.00    +0.123 A 
ATOM     26  F1  UNL     1      16.083  -1.710  22.009  0.00  0.00    -0.205 F 
ATOM     27  C20 UNL     1      17.147   0.197  22.965  0.00  0.00    +0.039 A 
ATOM     28  C21 UNL     1      17.886   0.771  24.005  0.00  0.00    +0.016 A 
ENDBRANCH  19  22
ENDBRANCH   1  20
TORSDOF 3
ENDMDL
MODEL 7
REMARK VINA RESULT:    -6.054     13.899     15.050
REMARK INTER + INTRA:          -7.678
REMARK INTER:                  -7.107
REMARK INTRA:                  -0.572
REMARK UNBOUND:                -0.562
REMARK  Name = /home/qwerty/github/datacon2025hack/step_04_hit_selection/docking/ligands/lig_726.pdb
REMARK  3 active torsions:
REMARK  status: ('A' for Active; 'I' for Inactive)
REMARK    1  A    between atoms: C1_2  and  C16_21
REMARK    2  A    between atoms: N1_3  and  C2_4
REMARK    3  A    between atoms: C10_13  and  C11_15
REMARK                            x       y       z     vdW  Elec       q    Type
REMARK                         _______ _______ _______ _____ _____    ______ ____
ROOT
ATOM      1  C2  UNL     1      18.362   8.079  19.447  0.00  0.00    +0.034 A 
ATOM      2  C3  UNL     1      19.775   7.982  19.471  0.00  0.00    +0.025 A 
ATOM      3  C4  UNL     1      20.568   9.140  19.526  0.00  0.00    +0.025 A 
ATOM      4  C5  UNL     1      19.933  10.384  19.532  0.00  0.00    +0.040 A 
ATOM      5  C6  UNL     1      18.570  10.484  19.499  0.00  0.00    -0.023 A 
ATOM      6  C7  UNL     1      17.758   9.352  19.445  0.00  0.00    +0.028 A 
ATOM      7  C8  UNL     1      18.149  11.910  19.537  0.00  0.00    +0.056 C 
ATOM      8  C9  UNL     1      19.491  12.680  19.597  0.00  0.00    +0.119 C 
ATOM      9  N2  UNL     1      20.548  11.662  19.601  0.00  0.00    -0.267 N 
ATOM     10  C10 UNL     1      21.920  11.944  19.281  0.00  0.00    +0.252 C 
ATOM     11  O2  UNL     1      22.524  11.223  18.441  0.00  0.00    -0.270 OA
ENDROOT
BRANCH  10  12
ATOM     12  C11 UNL     1      22.628  13.086  19.899  0.00  0.00    +0.055 A 
ATOM     13  C12 UNL     1      22.962  13.064  21.263  0.00  0.00    +0.016 A 
ATOM     14  C13 UNL     1      23.621  14.151  21.840  0.00  0.00    +0.020 A 
ATOM     15  C14 UNL     1      23.932  15.259  21.052  0.00  0.00    +0.111 A 
ATOM     16  N3  UNL     1      23.586  15.278  19.737  0.00  0.00    -0.263 NA
ATOM     17  C15 UNL     1      22.947  14.230  19.151  0.00  0.00    +0.123 A 
ENDBRANCH  10  12
BRANCH   1  20
ATOM     18  O1  UNL     1      17.369   6.559  21.673  0.00  0.00    -0.270 OA
ATOM     19  C1  UNL     1      17.101   6.149  20.510  0.00  0.00    +0.248 C 
ATOM     20  N1  UNL     1      17.531   6.909  19.364  0.00  0.00    -0.281 N 
ATOM     21  H1  UNL     1      17.191   6.640  18.416  0.00  0.00    +0.155 HD
BRANCH  19  22
ATOM     22  C16 UNL     1      16.335   4.889  20.355  0.00  0.00    +0.037 A 
ATOM     23  C17 UNL     1      16.913   3.636  20.639  0.00  0.00    +0.016 A 
ATOM     24  C18 UNL     1      16.171   2.462  20.479  0.00  0.00    +0.039 A 
ATOM     25  C19 UNL     1      14.849   2.522  20.029  0.00  0.00    +0.123 A 
ATOM     26  F1  UNL     1      14.133   1.381  19.874  0.00  0.00    -0.205 F 
ATOM     27  C20 UNL     1      14.270   3.756  19.732  0.00  0.00    +0.039 A 
ATOM     28  C21 UNL     1      15.008   4.934  19.888  0.00  0.00    +0.016 A 
ENDBRANCH  19  22
ENDBRANCH   1  20
TORSDOF 3
ENDMDL
MODEL 8
REMARK VINA RESULT:    -6.051      5.231     10.520
REMARK INTER + INTRA:          -7.674
REMARK INTER:                  -7.106
REMARK INTRA:                  -0.568
REMARK UNBOUND:                -0.562
REMARK  Name = /home/qwerty/github/datacon2025hack/step_04_hit_selection/docking/ligands/lig_726.pdb
REMARK  3 active torsions:
REMARK  status: ('A' for Active; 'I' for Inactive)
REMARK    1  A    between atoms: C1_2  and  C16_21
REMARK    2  A    between atoms: N1_3  and  C2_4
REMARK    3  A    between atoms: C10_13  and  C11_15
REMARK                            x       y       z     vdW  Elec       q    Type
REMARK                         _______ _______ _______ _____ _____    ______ ____
ROOT
ATOM      1  C2  UNL     1      20.814   2.698  29.982  0.00  0.00    +0.034 A 
ATOM      2  C3  UNL     1      19.513   2.139  30.019  0.00  0.00    +0.025 A 
ATOM      3  C4  UNL     1      18.931   1.609  28.856  0.00  0.00    +0.025 A 
ATOM      4  C5  UNL     1      19.654   1.669  27.661  0.00  0.00    +0.040 A 
ATOM      5  C6  UNL     1      20.906   2.217  27.617  0.00  0.00    -0.023 A 
ATOM      6  C7  UNL     1      21.508   2.749  28.757  0.00  0.00    +0.028 A 
ATOM      7  C8  UNL     1      21.464   2.138  26.241  0.00  0.00    +0.056 C 
ATOM      8  C9  UNL     1      20.337   1.447  25.436  0.00  0.00    +0.119 C 
ATOM      9  N2  UNL     1      19.255   1.179  26.390  0.00  0.00    -0.267 N 
ATOM     10  C10 UNL     1      17.904   0.892  25.996  0.00  0.00    +0.252 C 
ATOM     11  O2  UNL     1      16.952   1.525  26.528  0.00  0.00    -0.270 OA
ENDROOT
BRANCH  10  12
ATOM     12  C11 UNL     1      17.612  -0.113  24.951  0.00  0.00    +0.055 A 
ATOM     13  C12 UNL     1      17.721  -1.485  25.231  0.00  0.00    +0.016 A 
ATOM     14  C13 UNL     1      17.453  -2.427  24.236  0.00  0.00    +0.020 A 
ATOM     15  C14 UNL     1      17.088  -1.991  22.962  0.00  0.00    +0.111 A 
ATOM     16  N3  UNL     1      17.004  -0.660  22.696  0.00  0.00    -0.263 NA
ATOM     17  C15 UNL     1      17.257   0.277  23.650  0.00  0.00    +0.123 A 
ENDBRANCH  10  12
BRANCH   1  20
ATOM     18  O1  UNL     1      20.454   5.389  30.921  0.00  0.00    -0.270 OA
ATOM     19  C1  UNL     1      21.248   4.643  31.556  0.00  0.00    +0.248 C 
ATOM     20  N1  UNL     1      21.418   3.269  31.155  0.00  0.00    -0.281 N 
ATOM     21  H1  UNL     1      21.967   2.624  31.763  0.00  0.00    +0.155 HD
BRANCH  19  22
ATOM     22  C16 UNL     1      21.984   5.202  32.716  0.00  0.00    +0.037 A 
ATOM     23  C17 UNL     1      23.364   5.472  32.650  0.00  0.00    +0.016 A 
ATOM     24  C18 UNL     1      24.037   5.995  33.760  0.00  0.00    +0.039 A 
ATOM     25  C19 UNL     1      23.343   6.248  34.946  0.00  0.00    +0.123 A 
ATOM     26  F1  UNL     1      23.998   6.754  36.019  0.00  0.00    -0.205 F 
ATOM     27  C20 UNL     1      21.977   5.972  35.027  0.00  0.00    +0.039 A 
ATOM     28  C21 UNL     1      21.300   5.447  33.921  0.00  0.00    +0.016 A 
ENDBRANCH  19  22
ENDBRANCH   1  20
TORSDOF 3
ENDMDL
MODEL 9
REMARK VINA RESULT:    -5.888      9.226     13.298
REMARK INTER + INTRA:          -7.483
REMARK INTER:                  -7.062
REMARK INTRA:                  -0.421
REMARK UNBOUND:                -0.562
REMARK  Name = /home/qwerty/github/datacon2025hack/step_04_hit_selection/docking/ligands/lig_726.pdb
REMARK  3 active torsions:
REMARK  status: ('A' for Active; 'I' for Inactive)
REMARK    1  A    between atoms: C1_2  and  C16_21
REMARK    2  A    between atoms: N1_3  and  C2_4
REMARK    3  A    between atoms: C10_13  and  C11_15
REMARK                            x       y       z     vdW  Elec       q    Type
REMARK                         _______ _______ _______ _____ _____    ______ ____
ROOT
ATOM      1  C2  UNL     1      12.216  12.615  32.586  0.00  0.00    +0.034 A 
ATOM      2  C3  UNL     1      13.531  13.135  32.510  0.00  0.00    +0.025 A 
ATOM      3  C4  UNL     1      14.524  12.697  33.401  0.00  0.00    +0.025 A 
ATOM      4  C5  UNL     1      14.178  11.756  34.375  0.00  0.00    +0.040 A 
ATOM      5  C6  UNL     1      12.909  11.257  34.459  0.00  0.00    -0.023 A 
ATOM      6  C7  UNL     1      11.903  11.674  33.588  0.00  0.00    +0.028 A 
ATOM      7  C8  UNL     1      12.810  10.262  35.560  0.00  0.00    +0.056 C 
ATOM      8  C9  UNL     1      14.241  10.231  36.147  0.00  0.00    +0.119 C 
ATOM      9  N2  UNL     1      15.032  11.177  35.351  0.00  0.00    -0.267 N 
ATOM     10  C10 UNL     1      16.289  11.720  35.784  0.00  0.00    +0.252 C 
ATOM     11  O2  UNL     1      16.480  12.965  35.735  0.00  0.00    -0.270 OA
ENDROOT
BRANCH  10  12
ATOM     12  C11 UNL     1      17.355  10.844  36.318  0.00  0.00    +0.055 A 
ATOM     13  C12 UNL     1      17.329  10.425  37.658  0.00  0.00    +0.016 A 
ATOM     14  C13 UNL     1      18.344   9.606  38.156  0.00  0.00    +0.020 A 
ATOM     15  C14 UNL     1      19.386   9.220  37.313  0.00  0.00    +0.111 A 
ATOM     16  N3  UNL     1      19.411   9.647  36.022  0.00  0.00    -0.263 NA
ATOM     17  C15 UNL     1      18.432  10.442  35.513  0.00  0.00    +0.123 A 
ENDBRANCH  10  12
BRANCH   1  20
ATOM     18  O1  UNL     1      11.441  11.364  30.118  0.00  0.00    -0.270 OA
ATOM     19  C1  UNL     1      10.861  12.435  30.446  0.00  0.00    +0.248 C 
ATOM     20  N1  UNL     1      11.178  13.068  31.701  0.00  0.00    -0.281 N 
ATOM     21  H1  UNL     1      10.600  13.872  32.028  0.00  0.00    +0.155 HD
BRANCH  19  22
ATOM     22  C16 UNL     1       9.852  13.013  29.526  0.00  0.00    +0.037 A 
ATOM     23  C17 UNL     1      10.166  13.318  28.188  0.00  0.00    +0.016 A 
ATOM     24  C18 UNL     1       9.198  13.867  27.341  0.00  0.00    +0.039 A 
ATOM     25  C19 UNL     1       7.911  14.124  27.820  0.00  0.00    +0.123 A 
ATOM     26  F1  UNL     1       6.975  14.658  26.996  0.00  0.00    -0.205 F 
ATOM     27  C20 UNL     1       7.591  13.838  29.148  0.00  0.00    +0.039 A 
ATOM     28  C21 UNL     1       8.556  13.290  30.000  0.00  0.00    +0.016 A 
ENDBRANCH  19  22
ENDBRANCH   1  20
TORSDOF 3
ENDMDL
