REMARK  Name = /home/qwerty/github/datacon2025hack/step_04_hit_selection/docking/ligands/lig_74.pdb
REMARK  6 active torsions:
REMARK  status: ('A' for Active; 'I' for Inactive)
REMARK    1  A    between atoms: C1_1  and  C2_2
REMARK    2  A    between atoms: C2_2  and  C3_3
REMARK    3  A    between atoms: C2_2  and  C4_4
REMARK    4  A    between atoms: C6_6  and  C7_7
REMARK    5  A    between atoms: C11_13  and  N2_14
REMARK    6  A    between atoms: C18_21  and  O2_22
REMARK                            x       y       z     vdW  Elec       q    Type
REMARK                         _______ _______ _______ _____ _____    ______ ____
ROOT
ATOM      1  C7  UNL     1       1.100  -1.694   0.227  0.00  0.00    +0.247 C 
ATOM      2  O1  UNL     1       1.688  -2.467   1.033  0.00  0.00    -0.270 OA
ATOM      3  N1  UNL     1      -0.336  -1.748   0.110  0.00  0.00    -0.296 N 
ATOM      4  C8  UNL     1      -1.050  -3.007   0.342  0.00  0.00    +0.108 C 
ATOM      5  C9  UNL     1      -1.926  -2.900   1.598  0.00  0.00    +0.020 C 
ATOM      6  C10 UNL     1      -2.424  -1.465   1.861  0.00  0.00    +0.022 C 
ATOM      7  C11 UNL     1      -2.545  -0.633   0.558  0.00  0.00    +0.074 C 
ATOM      8  C16 UNL     1      -1.114  -0.506  -0.043  0.00  0.00    +0.127 C 
ENDROOT
BRANCH   1  11
ATOM      9  C4  UNL     1       3.804   0.767  -0.757  0.00  0.00    +0.048 A 
ATOM     10  C5  UNL     1       3.044  -0.142   0.000  0.00  0.00    +0.037 A 
ATOM     11  C6  UNL     1       1.903  -0.734  -0.561  0.00  0.00    +0.044 A 
ATOM     12  C17 UNL     1       1.559  -0.429  -1.885  0.00  0.00    +0.080 A 
ATOM     13  C18 UNL     1       2.337   0.476  -2.610  0.00  0.00    +0.213 A 
ATOM     14  N3  UNL     1       3.427   1.049  -2.035  0.00  0.00    -0.218 NA
BRANCH   9  16
ATOM     15  C1  UNL     1       4.671   2.322   1.015  0.00  0.00    +0.014 C 
ATOM     16  C2  UNL     1       5.031   1.441  -0.188  0.00  0.00    +0.032 C 
ATOM     17  C3  UNL     1       6.109   0.415   0.179  0.00  0.00    +0.014 C 
ENDBRANCH   9  16
BRANCH  13  18
ATOM     18  O2  UNL     1       1.996   0.787  -3.922  0.00  0.00    -0.492 OA
ATOM     19  H27 UNL     1       2.551   1.441  -4.462  0.00  0.00    +0.294 HD
ENDBRANCH  13  18
ENDBRANCH   1  11
BRANCH   7  20
ATOM     20  N2  UNL     1      -3.174   0.688   0.864  0.00  0.00    -0.298 NA
ATOM     21  C12 UNL     1      -4.635   0.554   1.052  0.00  0.00    +0.085 C 
ATOM     22  C13 UNL     1      -5.330   0.956  -0.247  0.00  0.00    +0.017 C 
ATOM     23  C14 UNL     1      -4.237   1.505  -1.138  0.00  0.00    +0.017 C 
ATOM     24  C15 UNL     1      -3.060   1.696  -0.206  0.00  0.00    +0.085 C 
ENDBRANCH   7  20
TORSDOF 4
