REMARK  Name = /home/qwerty/github/datacon2025hack/step_04_hit_selection/docking/ligands/lig_782.pdb
REMARK  7 active torsions:
REMARK  status: ('A' for Active; 'I' for Inactive)
REMARK    1  A    between atoms: C1_2  and  C14_22
REMARK    2  A    between atoms: N1_3  and  C2_4
REMARK    3  A    between atoms: C4_6  and  N2_7
REMARK    4  A    between atoms: N2_7  and  C5_8
REMARK    5  A    between atoms: C5_8  and  C6_9
REMARK    6  A    between atoms: C11_15  and  C12_16
REMARK    7  A    between atoms: C16_24  and  C17_25
REMARK                            x       y       z     vdW  Elec       q    Type
REMARK                         _______ _______ _______ _____ _____    ______ ____
ROOT
ATOM      1  C2  UNL     1       0.688  -1.634  -1.571  0.00  0.00    +0.076 C 
ATOM      2  C3  UNL     1      -0.027  -2.169  -0.333  0.00  0.00    +0.041 C 
ATOM      3  C4  UNL     1      -1.372  -1.751  -0.937  0.00  0.00    +0.057 C 
ATOM      4  C13 UNL     1      -0.655  -1.226  -2.178  0.00  0.00    +0.041 C 
ENDROOT
BRANCH   1   7
ATOM      5  O1  UNL     1       3.190  -1.810  -0.235  0.00  0.00    -0.275 OA
ATOM      6  C1  UNL     1       2.815  -0.664  -0.605  0.00  0.00    +0.217 C 
ATOM      7  N1  UNL     1       1.551  -0.492  -1.259  0.00  0.00    -0.312 N 
ATOM      8  H1  UNL     1       1.269   0.473  -1.544  0.00  0.00    +0.149 HD
BRANCH   6   9
ATOM      9  C14 UNL     1       3.674   0.526  -0.306  0.00  0.00    +0.084 C 
ATOM     10  C15 UNL     1       4.125   1.297  -1.544  0.00  0.00    +0.023 C 
ATOM     11  C16 UNL     1       5.115   0.414  -0.796  0.00  0.00    +0.050 C 
BRANCH  11  12
ATOM     12  C17 UNL     1       6.152   1.144   0.018  0.00  0.00    +0.039 A 
ATOM     13  C18 UNL     1       6.010   2.307   0.753  0.00  0.00    +0.133 A 
ATOM     14  N7  UNL     1       7.189   2.614   1.330  0.00  0.00    -0.244 NA
ATOM     15  C19 UNL     1       8.023   1.630   0.933  0.00  0.00    +0.196 A 
ATOM     16  N8  UNL     1       7.422   0.726   0.138  0.00  0.00    -0.348 N 
ATOM     17  H21 UNL     1       7.855  -0.121  -0.293  0.00  0.00    +0.166 HD
ENDBRANCH  11  12
ENDBRANCH   6   9
ENDBRANCH   1   7
BRANCH   3  18
ATOM     18  N2  UNL     1      -2.047  -0.672  -0.197  0.00  0.00    -0.309 NA
ATOM     19  H6  UNL     1      -1.345   0.041   0.118  0.00  0.00    +0.123 HD
BRANCH  18  20
ATOM     20  C5  UNL     1      -2.738  -1.204   0.982  0.00  0.00    +0.117 C 
BRANCH  20  21
ATOM     21  C6  UNL     1      -3.537  -0.108   1.647  0.00  0.00    -0.020 A 
ATOM     22  C7  UNL     1      -2.966   0.542   2.756  0.00  0.00    +0.044 A 
ATOM     23  C8  UNL     1      -3.663   1.542   3.436  0.00  0.00    +0.124 A 
ATOM     24  F1  UNL     1      -3.100   2.151   4.508  0.00  0.00    -0.205 F 
ATOM     25  C9  UNL     1      -4.938   1.910   3.015  0.00  0.00    +0.039 A 
ATOM     26  C10 UNL     1      -5.516   1.293   1.906  0.00  0.00    +0.015 A 
ATOM     27  C11 UNL     1      -4.827   0.292   1.194  0.00  0.00    +0.027 A 
BRANCH  27  28
ATOM     28  C12 UNL     1      -5.489  -0.292  -0.002  0.00  0.00    +0.205 A 
ATOM     29  N3  UNL     1      -4.852  -0.873  -1.039  0.00  0.00    -0.108 NA
ATOM     30  N4  UNL     1      -5.808  -1.203  -1.892  0.00  0.00    -0.049 NA
ATOM     31  N5  UNL     1      -6.974  -0.831  -1.397  0.00  0.00    -0.176 N 
ATOM     32  N6  UNL     1      -6.819  -0.252  -0.220  0.00  0.00    -0.133 NA
ATOM     33  H12 UNL     1      -7.892  -0.971  -1.873  0.00  0.00    +0.214 HD
ENDBRANCH  27  28
ENDBRANCH  20  21
ENDBRANCH  18  20
ENDBRANCH   3  18
TORSDOF 7
