REMARK  Name = /home/qwerty/github/datacon2025hack/step_04_hit_selection/docking/ligands/lig_631.pdb
REMARK  6 active torsions:
REMARK  status: ('A' for Active; 'I' for Inactive)
REMARK    1  A    between atoms: C1_1  and  N1_2
REMARK    2  A    between atoms: N2_5  and  C4_6
REMARK    3  A    between atoms: C7_9  and  C8_10
REMARK    4  A    between atoms: C8_10  and  N3_11
REMARK    5  A    between atoms: C13_18  and  N5_19
REMARK    6  A    between atoms: C14_20  and  C15_22
REMARK                            x       y       z     vdW  Elec       q    Type
REMARK                         _______ _______ _______ _____ _____    ______ ____
ROOT
ATOM      1  N3  UNL     1       0.415  -1.007  -1.100  0.00  0.00    -0.295 N 
ATOM      2  C9  UNL     1       0.685   0.229  -1.783  0.00  0.00    +0.303 C 
ATOM      3  O1  UNL     1      -0.125   0.643  -2.658  0.00  0.00    -0.253 OA
ATOM      4  N4  UNL     1       1.869   1.000  -1.486  0.00  0.00    -0.284 N 
ATOM      5  C10 UNL     1       1.998   2.372  -2.000  0.00  0.00    +0.109 C 
ATOM      6  C11 UNL     1       2.723   3.264  -0.984  0.00  0.00    +0.021 C 
ATOM      7  C12 UNL     1       4.014   2.636  -0.415  0.00  0.00    +0.025 C 
ATOM      8  C13 UNL     1       4.290   1.214  -0.941  0.00  0.00    +0.091 C 
ATOM      9  C21 UNL     1       3.017   0.357  -0.826  0.00  0.00    +0.131 C 
ATOM     10  H12 UNL     1       1.055  -1.342  -0.347  0.00  0.00    +0.151 HD
ENDROOT
BRANCH   8  11
ATOM     11  N5  UNL     1       5.392   0.592  -0.197  0.00  0.00    -0.307 N 
ATOM     12  C14 UNL     1       6.046  -0.602  -0.660  0.00  0.00    +0.244 C 
ATOM     13  O2  UNL     1       5.813  -1.029  -1.825  0.00  0.00    -0.270 OA
ATOM     14  H20 UNL     1       5.770   1.076   0.648  0.00  0.00    +0.149 HD
BRANCH  12  15
ATOM     15  C15 UNL     1       7.011  -1.330   0.200  0.00  0.00    +0.037 A 
ATOM     16  C16 UNL     1       7.982  -2.165  -0.384  0.00  0.00    +0.014 A 
ATOM     17  C17 UNL     1       8.893  -2.862   0.417  0.00  0.00    +0.021 A 
ATOM     18  C18 UNL     1       8.840  -2.741   1.809  0.00  0.00    +0.041 A 
ATOM     19 CL1  UNL     1       9.980  -3.620   2.813  0.00  0.00    -0.084 Cl
ATOM     20  C19 UNL     1       7.872  -1.923   2.399  0.00  0.00    +0.021 A 
ATOM     21  C20 UNL     1       6.961  -1.223   1.602  0.00  0.00    +0.014 A 
ENDBRANCH  12  15
ENDBRANCH   8  11
BRANCH   1  22
ATOM     22  C8  UNL     1      -0.746  -1.836  -1.415  0.00  0.00    +0.142 C 
BRANCH  22  26
ATOM     23  C4  UNL     1      -4.320  -0.005   0.119  0.00  0.00    +0.121 A 
ATOM     24  C5  UNL     1      -3.401  -0.592   1.007  0.00  0.00    +0.044 A 
ATOM     25  C6  UNL     1      -2.241  -1.186   0.507  0.00  0.00    +0.010 A 
ATOM     26  C7  UNL     1      -1.999  -1.206  -0.871  0.00  0.00    -0.012 A 
ATOM     27  C22 UNL     1      -2.932  -0.605  -1.726  0.00  0.00    +0.118 A 
ATOM     28  N6  UNL     1      -4.053  -0.029  -1.217  0.00  0.00    -0.240 NA
BRANCH  23  33
ATOM     29  C1  UNL     1      -8.492  -0.985   0.319  0.00  0.00    +0.105 C 
ATOM     30  N1  UNL     1      -8.314   0.438   0.655  0.00  0.00    -0.302 NA
ATOM     31  C2  UNL     1      -7.620   0.613   1.950  0.00  0.00    +0.103 C 
ATOM     32  C3  UNL     1      -6.144   0.183   1.870  0.00  0.00    +0.122 C 
ATOM     33  N2  UNL     1      -5.541   0.602   0.597  0.00  0.00    -0.313 N 
ATOM     34  C23 UNL     1      -6.235   1.625  -0.193  0.00  0.00    +0.122 C 
ATOM     35  C24 UNL     1      -7.689   1.195  -0.462  0.00  0.00    +0.103 C 
ENDBRANCH  23  33
ENDBRANCH  22  26
ENDBRANCH   1  22
TORSDOF 5
