REMARK  Name = /home/qwerty/github/datacon2025hack/step_04_hit_selection/docking/ligands/lig_660.pdb
REMARK  8 active torsions:
REMARK  status: ('A' for Active; 'I' for Inactive)
REMARK    1  A    between atoms: C1_1  and  O1_2
REMARK    2  A    between atoms: O1_2  and  C2_3
REMARK    3  A    between atoms: C5_6  and  C6_7
REMARK    4  A    between atoms: C6_7  and  N1_8
REMARK    5  A    between atoms: C9_11  and  N2_12
REMARK    6  A    between atoms: C10_13  and  C11_15
REMARK    7  A    between atoms: C14_19  and  C15_20
REMARK    8  A    between atoms: N5_23  and  C17_24
REMARK                            x       y       z     vdW  Elec       q    Type
REMARK                         _______ _______ _______ _____ _____    ______ ____
ROOT
ATOM      1  N2  UNL     1       0.694  -0.767  -1.494  0.00  0.00    -0.300 N 
ATOM      2  C10 UNL     1       1.567  -1.061  -2.597  0.00  0.00    +0.246 C 
ATOM      3  O2  UNL     1       1.119  -1.012  -3.775  0.00  0.00    -0.270 OA
ATOM      4  H13 UNL     1       0.998  -1.018  -0.526  0.00  0.00    +0.150 HD
ENDROOT
BRANCH   1   8
ATOM      5  N1  UNL     1      -1.678   1.139   0.016  0.00  0.00    -0.296 N 
ATOM      6  C7  UNL     1      -1.098   2.102  -0.901  0.00  0.00    +0.110 C 
ATOM      7  C8  UNL     1      -0.566   1.285  -2.094  0.00  0.00    +0.051 C 
ATOM      8  C9  UNL     1      -0.644  -0.206  -1.701  0.00  0.00    +0.161 C 
ATOM      9  C20 UNL     1      -1.406  -0.175  -0.432  0.00  0.00    +0.236 C 
ATOM     10  O3  UNL     1      -1.769  -1.206   0.195  0.00  0.00    -0.274 OA
BRANCH   5  11
ATOM     11  C6  UNL     1      -2.336   1.485   1.274  0.00  0.00    +0.143 C 
BRANCH  11  15
ATOM     12  C2  UNL     1      -6.549   0.575   0.966  0.00  0.00    +0.120 A 
ATOM     13  C3  UNL     1      -5.694  -0.266   1.704  0.00  0.00    +0.046 A 
ATOM     14  C4  UNL     1      -4.332   0.033   1.812  0.00  0.00    +0.009 A 
ATOM     15  C5  UNL     1      -3.806   1.175   1.190  0.00  0.00    -0.030 A 
ATOM     16  C21 UNL     1      -4.657   2.008   0.448  0.00  0.00    +0.009 A 
ATOM     17  C22 UNL     1      -6.018   1.709   0.341  0.00  0.00    +0.046 A 
BRANCH  12  19
ATOM     18  C1  UNL     1      -8.593  -0.796   1.407  0.00  0.00    +0.277 C 
ATOM     19  O1  UNL     1      -7.921   0.318   0.828  0.00  0.00    -0.495 OA
ENDBRANCH  12  19
ENDBRANCH  11  15
ENDBRANCH   5  11
ENDBRANCH   1   8
BRANCH   2  20
ATOM     20  C11 UNL     1       2.984  -1.434  -2.374  0.00  0.00    +0.055 A 
ATOM     21  C12 UNL     1       3.673  -2.194  -3.330  0.00  0.00    +0.123 A 
ATOM     22  N3  UNL     1       4.972  -2.534  -3.129  0.00  0.00    -0.262 NA
ATOM     23  C13 UNL     1       5.652  -2.155  -2.016  0.00  0.00    +0.119 A 
ATOM     24  C14 UNL     1       5.022  -1.380  -1.028  0.00  0.00    +0.004 A 
ATOM     25  C19 UNL     1       3.677  -1.020  -1.224  0.00  0.00    +0.024 A 
BRANCH  24  26
ATOM     26  C15 UNL     1       5.761  -0.947   0.187  0.00  0.00    +0.021 A 
ATOM     27  C16 UNL     1       7.018  -1.361   0.609  0.00  0.00    +0.143 A 
ATOM     28  N4  UNL     1       7.329  -0.746   1.766  0.00  0.00    -0.179 NA
ATOM     29  N5  UNL     1       6.321   0.051   2.079  0.00  0.00    -0.274 N 
ATOM     30  C17 UNL     1       6.259   0.840   3.301  0.00  0.00    +0.172 C 
ATOM     31  C18 UNL     1       5.346  -0.051   1.158  0.00  0.00    +0.116 A 
ENDBRANCH  24  26
ENDBRANCH   2  20
TORSDOF 6
