MODEL 1
REMARK VINA RESULT:    -5.804      0.000      0.000
REMARK INTER + INTRA:          -7.932
REMARK INTER:                  -7.501
REMARK INTRA:                  -0.431
REMARK UNBOUND:                -0.431
REMARK  Name = /home/qwerty/github/datacon2025hack/step_04_hit_selection/docking/ligands/lig_710.pdb
REMARK  5 active torsions:
REMARK  status: ('A' for Active; 'I' for Inactive)
REMARK    1  A    between atoms: C2_2  and  C3_3
REMARK    2  A    between atoms: C3_3  and  C4_4
REMARK    3  A    between atoms: C4_4  and  C5_5
REMARK    4  A    between atoms: C8_10  and  N2_11
REMARK    5  A    between atoms: C9_12  and  C10_14
REMARK                            x       y       z     vdW  Elec       q    Type
REMARK                         _______ _______ _______ _____ _____    ______ ____
ROOT
ATOM      1  N2  UNL     1      20.879  13.087  20.781  0.00  0.00    -0.307 N 
ATOM      2  C9  UNL     1      20.140  12.889  19.564  0.00  0.00    +0.246 C 
ATOM      3  O2  UNL     1      20.242  13.731  18.629  0.00  0.00    -0.270 OA
ATOM      4  H13 UNL     1      20.590  12.556  21.633  0.00  0.00    +0.149 HD
ENDROOT
BRANCH   2   5
ATOM      5  C10 UNL     1      19.242  11.722  19.396  0.00  0.00    +0.057 A 
ATOM      6  C11 UNL     1      17.829  11.853  19.519  0.00  0.00    +0.126 A 
ATOM      7  N3  UNL     1      17.009  10.769  19.370  0.00  0.00    -0.235 NA
ATOM      8  C12 UNL     1      17.566   9.564  19.101  0.00  0.00    +0.158 A 
ATOM      9  N4  UNL     1      16.931   8.402  18.928  0.00  0.00    -0.329 N 
ATOM     10  C13 UNL     1      17.939   7.522  18.705  0.00  0.00    +0.198 A 
ATOM     11  N5  UNL     1      19.176   8.090  18.732  0.00  0.00    -0.234 NA
ATOM     12  C14 UNL     1      18.902   9.383  18.985  0.00  0.00    +0.108 A 
ATOM     13  C15 UNL     1      19.788  10.444  19.130  0.00  0.00    +0.046 A 
ATOM     14  H15 UNL     1      15.904   8.213  18.961  0.00  0.00    +0.168 HD
ENDBRANCH   2   5
BRANCH   1  20
ATOM     15  C5  UNL     1      23.561  15.786  23.872  0.00  0.00    +0.216 C 
ATOM     16  O1  UNL     1      24.779  16.071  24.036  0.00  0.00    -0.276 OA
ATOM     17  N1  UNL     1      23.156  15.070  22.693  0.00  0.00    -0.300 N 
ATOM     18  C6  UNL     1      24.098  14.583  21.698  0.00  0.00    +0.109 C 
ATOM     19  C7  UNL     1      23.273  13.753  20.724  0.00  0.00    +0.043 C 
ATOM     20  C8  UNL     1      21.822  14.198  20.939  0.00  0.00    +0.092 C 
ATOM     21  C16 UNL     1      21.775  14.767  22.353  0.00  0.00    +0.130 C 
BRANCH  15  22
ATOM     22  C4  UNL     1      22.537  16.227  24.890  0.00  0.00    +0.100 C 
BRANCH  22  23
ATOM     23  C3  UNL     1      22.887  15.787  26.319  0.00  0.00    +0.036 C 
BRANCH  23  25
ATOM     24  C1  UNL     1      23.908  13.778  27.362  0.00  0.00    +0.004 C 
ATOM     25  C2  UNL     1      23.175  14.311  26.380  0.00  0.00    -0.034 C 
ENDBRANCH  23  25
ENDBRANCH  22  23
ENDBRANCH  15  22
ENDBRANCH   1  20
TORSDOF 5
ENDMDL
MODEL 2
REMARK VINA RESULT:    -5.609     12.241     14.810
REMARK INTER + INTRA:          -7.680
REMARK INTER:                  -7.210
REMARK INTRA:                  -0.470
REMARK UNBOUND:                -0.431
REMARK  Name = /home/qwerty/github/datacon2025hack/step_04_hit_selection/docking/ligands/lig_710.pdb
REMARK  5 active torsions:
REMARK  status: ('A' for Active; 'I' for Inactive)
REMARK    1  A    between atoms: C2_2  and  C3_3
REMARK    2  A    between atoms: C3_3  and  C4_4
REMARK    3  A    between atoms: C4_4  and  C5_5
REMARK    4  A    between atoms: C8_10  and  N2_11
REMARK    5  A    between atoms: C9_12  and  C10_14
REMARK                            x       y       z     vdW  Elec       q    Type
REMARK                         _______ _______ _______ _____ _____    ______ ____
ROOT
ATOM      1  N2  UNL     1      13.607   2.003  21.188  0.00  0.00    -0.307 N 
ATOM      2  C9  UNL     1      14.634   1.104  20.736  0.00  0.00    +0.246 C 
ATOM      3  O2  UNL     1      15.030   1.162  19.539  0.00  0.00    -0.270 OA
ATOM      4  H13 UNL     1      13.099   1.777  22.072  0.00  0.00    +0.149 HD
ENDROOT
BRANCH   2   5
ATOM      5  C10 UNL     1      15.222   0.095  21.648  0.00  0.00    +0.057 A 
ATOM      6  C11 UNL     1      16.485  -0.503  21.372  0.00  0.00    +0.126 A 
ATOM      7  N3  UNL     1      17.016  -1.439  22.216  0.00  0.00    -0.235 NA
ATOM      8  C12 UNL     1      16.318  -1.790  23.322  0.00  0.00    +0.158 A 
ATOM      9  N4  UNL     1      16.671  -2.681  24.252  0.00  0.00    -0.329 N 
ATOM     10  C13 UNL     1      15.628  -2.663  25.118  0.00  0.00    +0.198 A 
ATOM     11  N5  UNL     1      14.639  -1.796  24.765  0.00  0.00    -0.234 NA
ATOM     12  C14 UNL     1      15.109  -1.261  23.625  0.00  0.00    +0.108 A 
ATOM     13  C15 UNL     1      14.515  -0.308  22.805  0.00  0.00    +0.046 A 
ATOM     14  H15 UNL     1      17.540  -3.258  24.299  0.00  0.00    +0.168 HD
ENDBRANCH   2   5
BRANCH   1  20
ATOM     15  C5  UNL     1      10.112   5.375  20.521  0.00  0.00    +0.216 C 
ATOM     16  O1  UNL     1      10.050   6.623  20.350  0.00  0.00    -0.276 OA
ATOM     17  N1  UNL     1      11.393   4.723  20.501  0.00  0.00    -0.300 N 
ATOM     18  C6  UNL     1      12.648   5.446  20.366  0.00  0.00    +0.109 C 
ATOM     19  C7  UNL     1      13.743   4.404  20.559  0.00  0.00    +0.043 C 
ATOM     20  C8  UNL     1      13.063   3.051  20.320  0.00  0.00    +0.092 C 
ATOM     21  C16 UNL     1      11.581   3.285  20.596  0.00  0.00    +0.130 C 
BRANCH  15  22
ATOM     22  C4  UNL     1       8.846   4.573  20.709  0.00  0.00    +0.100 C 
BRANCH  22  23
ATOM     23  C3  UNL     1       7.868   5.222  21.698  0.00  0.00    +0.036 C 
BRANCH  23  25
ATOM     24  C1  UNL     1       8.361   3.430  23.345  0.00  0.00    +0.004 C 
ATOM     25  C2  UNL     1       7.475   4.260  22.787  0.00  0.00    -0.034 C 
ENDBRANCH  23  25
ENDBRANCH  22  23
ENDBRANCH  15  22
ENDBRANCH   1  20
TORSDOF 5
ENDMDL
MODEL 3
REMARK VINA RESULT:    -5.589      3.931      8.986
REMARK INTER + INTRA:          -7.654
REMARK INTER:                  -7.393
REMARK INTRA:                  -0.261
REMARK UNBOUND:                -0.431
REMARK  Name = /home/qwerty/github/datacon2025hack/step_04_hit_selection/docking/ligands/lig_710.pdb
REMARK  5 active torsions:
REMARK  status: ('A' for Active; 'I' for Inactive)
REMARK    1  A    between atoms: C2_2  and  C3_3
REMARK    2  A    between atoms: C3_3  and  C4_4
REMARK    3  A    between atoms: C4_4  and  C5_5
REMARK    4  A    between atoms: C8_10  and  N2_11
REMARK    5  A    between atoms: C9_12  and  C10_14
REMARK                            x       y       z     vdW  Elec       q    Type
REMARK                         _______ _______ _______ _____ _____    ______ ____
ROOT
ATOM      1  N2  UNL     1      23.569  15.102  25.059  0.00  0.00    -0.307 N 
ATOM      2  C9  UNL     1      22.893  14.145  25.892  0.00  0.00    +0.246 C 
ATOM      3  O2  UNL     1      22.445  13.081  25.382  0.00  0.00    -0.270 OA
ATOM      4  H13 UNL     1      23.691  16.076  25.414  0.00  0.00    +0.149 HD
ENDROOT
BRANCH   2   5
ATOM      5  C10 UNL     1      22.695  14.398  27.339  0.00  0.00    +0.057 A 
ATOM      6  C11 UNL     1      23.343  13.598  28.324  0.00  0.00    +0.126 A 
ATOM      7  N3  UNL     1      23.148  13.834  29.656  0.00  0.00    -0.235 NA
ATOM      8  C12 UNL     1      22.325  14.844  30.025  0.00  0.00    +0.158 A 
ATOM      9  N4  UNL     1      22.011  15.218  31.268  0.00  0.00    -0.329 N 
ATOM     10  C13 UNL     1      21.153  16.251  31.080  0.00  0.00    +0.198 A 
ATOM     11  N5  UNL     1      20.919  16.535  29.769  0.00  0.00    -0.234 NA
ATOM     12  C14 UNL     1      21.676  15.626  29.130  0.00  0.00    +0.108 A 
ATOM     13  C15 UNL     1      21.830  15.434  27.762  0.00  0.00    +0.046 A 
ATOM     14  H15 UNL     1      22.344  14.811  32.171  0.00  0.00    +0.168 HD
ENDBRANCH   2   5
BRANCH   1  20
ATOM     15  C5  UNL     1      22.143  15.795  20.419  0.00  0.00    +0.216 C 
ATOM     16  O1  UNL     1      22.628  16.292  19.366  0.00  0.00    -0.276 OA
ATOM     17  N1  UNL     1      22.987  15.623  21.571  0.00  0.00    -0.300 N 
ATOM     18  C6  UNL     1      24.372  16.065  21.612  0.00  0.00    +0.109 C 
ATOM     19  C7  UNL     1      24.830  15.842  23.048  0.00  0.00    +0.043 C 
ATOM     20  C8  UNL     1      23.834  14.839  23.641  0.00  0.00    +0.092 C 
ATOM     21  C16 UNL     1      22.565  14.980  22.805  0.00  0.00    +0.130 C 
BRANCH  15  22
ATOM     22  C4  UNL     1      20.700  15.354  20.454  0.00  0.00    +0.100 C 
BRANCH  22  23
ATOM     23  C3  UNL     1      20.313  14.478  19.253  0.00  0.00    +0.036 C 
BRANCH  23  25
ATOM     24  C1  UNL     1      19.871  12.047  19.005  0.00  0.00    +0.004 C 
ATOM     25  C2  UNL     1      19.706  13.175  19.701  0.00  0.00    -0.034 C 
ENDBRANCH  23  25
ENDBRANCH  22  23
ENDBRANCH  15  22
ENDBRANCH   1  20
TORSDOF 5
ENDMDL
MODEL 4
REMARK VINA RESULT:    -5.586     12.371     13.343
REMARK INTER + INTRA:          -7.649
REMARK INTER:                  -7.276
REMARK INTRA:                  -0.373
REMARK UNBOUND:                -0.431
REMARK  Name = /home/qwerty/github/datacon2025hack/step_04_hit_selection/docking/ligands/lig_710.pdb
REMARK  5 active torsions:
REMARK  status: ('A' for Active; 'I' for Inactive)
REMARK    1  A    between atoms: C2_2  and  C3_3
REMARK    2  A    between atoms: C3_3  and  C4_4
REMARK    3  A    between atoms: C4_4  and  C5_5
REMARK    4  A    between atoms: C8_10  and  N2_11
REMARK    5  A    between atoms: C9_12  and  C10_14
REMARK                            x       y       z     vdW  Elec       q    Type
REMARK                         _______ _______ _______ _____ _____    ______ ____
ROOT
ATOM      1  N2  UNL     1      17.798   0.693  25.048  0.00  0.00    -0.307 N 
ATOM      2  C9  UNL     1      17.441  -0.415  24.205  0.00  0.00    +0.246 C 
ATOM      3  O2  UNL     1      17.613  -1.594  24.619  0.00  0.00    -0.270 OA
ATOM      4  H13 UNL     1      17.913   1.636  24.613  0.00  0.00    +0.149 HD
ENDROOT
BRANCH   2   5
ATOM      5  C10 UNL     1      16.893  -0.195  22.846  0.00  0.00    +0.057 A 
ATOM      6  C11 UNL     1      16.064   0.927  22.556  0.00  0.00    +0.126 A 
ATOM      7  N3  UNL     1      15.557   1.117  21.301  0.00  0.00    -0.235 NA
ATOM      8  C12 UNL     1      15.857   0.218  20.333  0.00  0.00    +0.158 A 
ATOM      9  N4  UNL     1      15.453   0.235  19.061  0.00  0.00    -0.329 N 
ATOM     10  C13 UNL     1      16.015  -0.882  18.537  0.00  0.00    +0.198 A 
ATOM     11  N5  UNL     1      16.752  -1.595  19.432  0.00  0.00    -0.234 NA
ATOM     12  C14 UNL     1      16.630  -0.870  20.558  0.00  0.00    +0.108 A 
ATOM     13  C15 UNL     1      17.172  -1.121  21.813  0.00  0.00    +0.046 A 
ATOM     14  H15 UNL     1      14.847   0.939  18.583  0.00  0.00    +0.168 HD
ENDBRANCH   2   5
BRANCH   1  20
ATOM     15  C5  UNL     1      20.778   2.246  28.618  0.00  0.00    +0.216 C 
ATOM     16  O1  UNL     1      20.665   2.659  29.805  0.00  0.00    -0.276 OA
ATOM     17  N1  UNL     1      19.628   1.703  27.948  0.00  0.00    -0.300 N 
ATOM     18  C6  UNL     1      18.303   1.670  28.547  0.00  0.00    +0.109 C 
ATOM     19  C7  UNL     1      17.370   1.176  27.448  0.00  0.00    +0.043 C 
ATOM     20  C8  UNL     1      18.278   0.495  26.419  0.00  0.00    +0.092 C 
ATOM     21  C16 UNL     1      19.658   1.116  26.618  0.00  0.00    +0.130 C 
BRANCH  15  22
ATOM     22  C4  UNL     1      22.119   2.291  27.926  0.00  0.00    +0.100 C 
BRANCH  22  23
ATOM     23  C3  UNL     1      23.122   1.280  28.500  0.00  0.00    +0.036 C 
BRANCH  23  25
ATOM     24  C1  UNL     1      23.004  -1.181  28.811  0.00  0.00    +0.004 C 
ATOM     25  C2  UNL     1      22.432   0.019  28.945  0.00  0.00    -0.034 C 
ENDBRANCH  23  25
ENDBRANCH  22  23
ENDBRANCH  15  22
ENDBRANCH   1  20
TORSDOF 5
ENDMDL
MODEL 5
REMARK VINA RESULT:    -5.582     14.354     17.154
REMARK INTER + INTRA:          -7.645
REMARK INTER:                  -7.100
REMARK INTRA:                  -0.544
REMARK UNBOUND:                -0.431
REMARK  Name = /home/qwerty/github/datacon2025hack/step_04_hit_selection/docking/ligands/lig_710.pdb
REMARK  5 active torsions:
REMARK  status: ('A' for Active; 'I' for Inactive)
REMARK    1  A    between atoms: C2_2  and  C3_3
REMARK    2  A    between atoms: C3_3  and  C4_4
REMARK    3  A    between atoms: C4_4  and  C5_5
REMARK    4  A    between atoms: C8_10  and  N2_11
REMARK    5  A    between atoms: C9_12  and  C10_14
REMARK                            x       y       z     vdW  Elec       q    Type
REMARK                         _______ _______ _______ _____ _____    ______ ____
ROOT
ATOM      1  N2  UNL     1      21.227   5.332  34.141  0.00  0.00    -0.307 N 
ATOM      2  C9  UNL     1      21.899   6.142  35.119  0.00  0.00    +0.246 C 
ATOM      3  O2  UNL     1      23.088   5.870  35.444  0.00  0.00    -0.270 OA
ATOM      4  H13 UNL     1      20.185   5.384  34.079  0.00  0.00    +0.149 HD
ENDROOT
BRANCH   2   5
ATOM      5  C10 UNL     1      21.211   7.282  35.770  0.00  0.00    +0.057 A 
ATOM      6  C11 UNL     1      21.713   8.611  35.656  0.00  0.00    +0.126 A 
ATOM      7  N3  UNL     1      21.076   9.655  36.266  0.00  0.00    -0.235 NA
ATOM      8  C12 UNL     1      19.955   9.405  36.984  0.00  0.00    +0.158 A 
ATOM      9  N4  UNL     1      19.206  10.289  37.648  0.00  0.00    -0.329 N 
ATOM     10  C13 UNL     1      18.230   9.525  38.198  0.00  0.00    +0.198 A 
ATOM     11  N5  UNL     1      18.341   8.200  37.903  0.00  0.00    -0.234 NA
ATOM     12  C14 UNL     1      19.443   8.160  37.134  0.00  0.00    +0.108 A 
ATOM     13  C15 UNL     1      20.046   7.057  36.541  0.00  0.00    +0.046 A 
ATOM     14  H15 UNL     1      19.342  11.321  37.729  0.00  0.00    +0.168 HD
ENDBRANCH   2   5
BRANCH   1  20
ATOM     15  C5  UNL     1      20.795   1.060  31.774  0.00  0.00    +0.216 C 
ATOM     16  O1  UNL     1      21.072   0.602  30.632  0.00  0.00    -0.276 OA
ATOM     17  N1  UNL     1      21.261   2.370  32.141  0.00  0.00    -0.300 N 
ATOM     18  C6  UNL     1      21.984   3.239  31.226  0.00  0.00    +0.109 C 
ATOM     19  C7  UNL     1      22.135   4.567  31.957  0.00  0.00    +0.043 C 
ATOM     20  C8  UNL     1      21.912   4.243  33.439  0.00  0.00    +0.092 C 
ATOM     21  C16 UNL     1      21.082   2.963  33.456  0.00  0.00    +0.130 C 
BRANCH  15  22
ATOM     22  C4  UNL     1      20.012   0.222  32.756  0.00  0.00    +0.100 C 
BRANCH  22  23
ATOM     23  C3  UNL     1      18.560  -0.014  32.315  0.00  0.00    +0.036 C 
BRANCH  23  25
ATOM     24  C1  UNL     1      17.912   1.234  34.361  0.00  0.00    +0.004 C 
ATOM     25  C2  UNL     1      17.600   0.805  33.135  0.00  0.00    -0.034 C 
ENDBRANCH  23  25
ENDBRANCH  22  23
ENDBRANCH  15  22
ENDBRANCH   1  20
TORSDOF 5
ENDMDL
MODEL 6
REMARK VINA RESULT:    -5.506     12.014     14.301
REMARK INTER + INTRA:          -7.546
REMARK INTER:                  -7.149
REMARK INTRA:                  -0.397
REMARK UNBOUND:                -0.431
REMARK  Name = /home/qwerty/github/datacon2025hack/step_04_hit_selection/docking/ligands/lig_710.pdb
REMARK  5 active torsions:
REMARK  status: ('A' for Active; 'I' for Inactive)
REMARK    1  A    between atoms: C2_2  and  C3_3
REMARK    2  A    between atoms: C3_3  and  C4_4
REMARK    3  A    between atoms: C4_4  and  C5_5
REMARK    4  A    between atoms: C8_10  and  N2_11
REMARK    5  A    between atoms: C9_12  and  C10_14
REMARK                            x       y       z     vdW  Elec       q    Type
REMARK                         _______ _______ _______ _____ _____    ______ ____
ROOT
ATOM      1  N2  UNL     1      13.564   2.787  21.085  0.00  0.00    -0.307 N 
ATOM      2  C9  UNL     1      13.353   4.194  21.287  0.00  0.00    +0.246 C 
ATOM      3  O2  UNL     1      14.294   4.907  21.732  0.00  0.00    -0.270 OA
ATOM      4  H13 UNL     1      12.731   2.165  20.984  0.00  0.00    +0.149 HD
ENDROOT
BRANCH   2   5
ATOM      5  C10 UNL     1      12.040   4.818  21.001  0.00  0.00    +0.057 A 
ATOM      6  C11 UNL     1      11.947   6.156  20.519  0.00  0.00    +0.126 A 
ATOM      7  N3  UNL     1      10.731   6.726  20.265  0.00  0.00    -0.235 NA
ATOM      8  C12 UNL     1       9.611   5.995  20.480  0.00  0.00    +0.158 A 
ATOM      9  N4  UNL     1       8.347   6.381  20.294  0.00  0.00    -0.329 N 
ATOM     10  C13 UNL     1       7.627   5.294  20.668  0.00  0.00    +0.198 A 
ATOM     11  N5  UNL     1       8.393   4.247  21.080  0.00  0.00    -0.234 NA
ATOM     12  C14 UNL     1       9.643   4.725  20.948  0.00  0.00    +0.108 A 
ATOM     13  C15 UNL     1      10.848   4.091  21.228  0.00  0.00    +0.046 A 
ATOM     14  H15 UNL     1       7.994   7.302  19.948  0.00  0.00    +0.168 HD
ENDBRANCH   2   5
BRANCH   1  20
ATOM     15  C5  UNL     1      16.037  -1.125  22.704  0.00  0.00    +0.216 C 
ATOM     16  O1  UNL     1      16.853  -1.965  22.234  0.00  0.00    -0.276 OA
ATOM     17  N1  UNL     1      15.667   0.018  21.914  0.00  0.00    -0.300 N 
ATOM     18  C6  UNL     1      16.133   0.224  20.551  0.00  0.00    +0.109 C 
ATOM     19  C7  UNL     1      15.379   1.446  20.042  0.00  0.00    +0.043 C 
ATOM     20  C8  UNL     1      14.875   2.165  21.298  0.00  0.00    +0.092 C 
ATOM     21  C16 UNL     1      14.810   1.094  22.383  0.00  0.00    +0.130 C 
BRANCH  15  22
ATOM     22  C4  UNL     1      15.484  -1.304  24.098  0.00  0.00    +0.100 C 
BRANCH  22  23
ATOM     23  C3  UNL     1      15.580  -2.753  24.597  0.00  0.00    +0.036 C 
BRANCH  23  25
ATOM     24  C1  UNL     1      13.941  -2.178  26.371  0.00  0.00    +0.004 C 
ATOM     25  C2  UNL     1      14.446  -3.085  25.530  0.00  0.00    -0.034 C 
ENDBRANCH  23  25
ENDBRANCH  22  23
ENDBRANCH  15  22
ENDBRANCH   1  20
TORSDOF 5
ENDMDL
MODEL 7
REMARK VINA RESULT:    -5.504      9.845     11.681
REMARK INTER + INTRA:          -7.544
REMARK INTER:                  -7.155
REMARK INTRA:                  -0.389
REMARK UNBOUND:                -0.431
REMARK  Name = /home/qwerty/github/datacon2025hack/step_04_hit_selection/docking/ligands/lig_710.pdb
REMARK  5 active torsions:
REMARK  status: ('A' for Active; 'I' for Inactive)
REMARK    1  A    between atoms: C2_2  and  C3_3
REMARK    2  A    between atoms: C3_3  and  C4_4
REMARK    3  A    between atoms: C4_4  and  C5_5
REMARK    4  A    between atoms: C8_10  and  N2_11
REMARK    5  A    between atoms: C9_12  and  C10_14
REMARK                            x       y       z     vdW  Elec       q    Type
REMARK                         _______ _______ _______ _____ _____    ______ ____
ROOT
ATOM      1  N2  UNL     1      19.458   2.803  24.320  0.00  0.00    -0.307 N 
ATOM      2  C9  UNL     1      18.419   3.645  23.795  0.00  0.00    +0.246 C 
ATOM      3  O2  UNL     1      18.131   4.722  24.387  0.00  0.00    -0.270 OA
ATOM      4  H13 UNL     1      19.506   1.810  24.000  0.00  0.00    +0.149 HD
ENDROOT
BRANCH   2   5
ATOM      5  C10 UNL     1      17.664   3.260  22.580  0.00  0.00    +0.057 A 
ATOM      6  C11 UNL     1      17.614   4.112  21.439  0.00  0.00    +0.126 A 
ATOM      7  N3  UNL     1      16.908   3.751  20.325  0.00  0.00    -0.235 NA
ATOM      8  C12 UNL     1      16.254   2.564  20.324  0.00  0.00    +0.158 A 
ATOM      9  N4  UNL     1      15.516   2.049  19.338  0.00  0.00    -0.329 N 
ATOM     10  C13 UNL     1      15.083   0.871  19.851  0.00  0.00    +0.198 A 
ATOM     11  N5  UNL     1      15.521   0.632  21.117  0.00  0.00    -0.234 NA
ATOM     12  C14 UNL     1      16.259   1.724  21.385  0.00  0.00    +0.108 A 
ATOM     13  C15 UNL     1      16.955   2.035  22.548  0.00  0.00    +0.046 A 
ATOM     14  H15 UNL     1      15.316   2.457  18.397  0.00  0.00    +0.168 HD
ENDBRANCH   2   5
BRANCH   1  20
ATOM     15  C5  UNL     1      22.316   1.346  28.028  0.00  0.00    +0.216 C 
ATOM     16  O1  UNL     1      23.495   1.555  28.426  0.00  0.00    -0.276 OA
ATOM     17  N1  UNL     1      21.786   2.136  26.949  0.00  0.00    -0.300 N 
ATOM     18  C6  UNL     1      22.571   3.127  26.232  0.00  0.00    +0.109 C 
ATOM     19  C7  UNL     1      21.687   3.597  25.083  0.00  0.00    +0.043 C 
ATOM     20  C8  UNL     1      20.261   3.201  25.481  0.00  0.00    +0.092 C 
ATOM     21  C16 UNL     1      20.417   2.047  26.467  0.00  0.00    +0.130 C 
BRANCH  15  22
ATOM     22  C4  UNL     1      21.462   0.301  28.704  0.00  0.00    +0.100 C 
BRANCH  22  23
ATOM     23  C3  UNL     1      21.632   0.287  30.230  0.00  0.00    +0.036 C 
BRANCH  23  25
ATOM     24  C1  UNL     1      20.223   0.533  32.260  0.00  0.00    +0.004 C 
ATOM     25  C2  UNL     1      20.311   0.462  30.929  0.00  0.00    -0.034 C 
ENDBRANCH  23  25
ENDBRANCH  22  23
ENDBRANCH  15  22
ENDBRANCH   1  20
TORSDOF 5
ENDMDL
MODEL 8
REMARK VINA RESULT:    -5.432     11.329     12.777
REMARK INTER + INTRA:          -7.451
REMARK INTER:                  -7.030
REMARK INTRA:                  -0.421
REMARK UNBOUND:                -0.431
REMARK  Name = /home/qwerty/github/datacon2025hack/step_04_hit_selection/docking/ligands/lig_710.pdb
REMARK  5 active torsions:
REMARK  status: ('A' for Active; 'I' for Inactive)
REMARK    1  A    between atoms: C2_2  and  C3_3
REMARK    2  A    between atoms: C3_3  and  C4_4
REMARK    3  A    between atoms: C4_4  and  C5_5
REMARK    4  A    between atoms: C8_10  and  N2_11
REMARK    5  A    between atoms: C9_12  and  C10_14
REMARK                            x       y       z     vdW  Elec       q    Type
REMARK                         _______ _______ _______ _____ _____    ______ ____
ROOT
ATOM      1  N2  UNL     1      19.325   1.560  25.455  0.00  0.00    -0.307 N 
ATOM      2  C9  UNL     1      18.373   2.280  24.654  0.00  0.00    +0.246 C 
ATOM      3  O2  UNL     1      18.157   3.501  24.890  0.00  0.00    -0.270 OA
ATOM      4  H13 UNL     1      19.301   0.516  25.442  0.00  0.00    +0.149 HD
ENDROOT
BRANCH   2   5
ATOM      5  C10 UNL     1      17.622   1.606  23.569  0.00  0.00    +0.057 A 
ATOM      6  C11 UNL     1      17.559   0.185  23.486  0.00  0.00    +0.126 A 
ATOM      7  N3  UNL     1      16.870  -0.428  22.476  0.00  0.00    -0.235 NA
ATOM      8  C12 UNL     1      16.247   0.342  21.552  0.00  0.00    +0.158 A 
ATOM      9  N4  UNL     1      15.536  -0.074  20.501  0.00  0.00    -0.329 N 
ATOM     10  C13 UNL     1      15.153   1.081  19.903  0.00  0.00    +0.198 A 
ATOM     11  N5  UNL     1      15.597   2.200  20.539  0.00  0.00    -0.234 NA
ATOM     12  C14 UNL     1      16.285   1.695  21.578  0.00  0.00    +0.108 A 
ATOM     13  C15 UNL     1      16.971   2.376  22.576  0.00  0.00    +0.046 A 
ATOM     14  H15 UNL     1      15.328  -1.055  20.207  0.00  0.00    +0.168 HD
ENDBRANCH   2   5
BRANCH   1  20
ATOM     15  C5  UNL     1      22.112   1.047  29.456  0.00  0.00    +0.216 C 
ATOM     16  O1  UNL     1      23.291   1.328  29.805  0.00  0.00    -0.276 OA
ATOM     17  N1  UNL     1      21.610   1.543  28.203  0.00  0.00    -0.300 N 
ATOM     18  C6  UNL     1      22.425   2.302  27.267  0.00  0.00    +0.109 C 
ATOM     19  C7  UNL     1      21.564   2.479  26.024  0.00  0.00    +0.043 C 
ATOM     20  C8  UNL     1      20.125   2.226  26.487  0.00  0.00    +0.092 C 
ATOM     21  C16 UNL     1      20.245   1.361  27.739  0.00  0.00    +0.130 C 
BRANCH  15  22
ATOM     22  C4  UNL     1      21.227   0.227  30.364  0.00  0.00    +0.100 C 
BRANCH  22  23
ATOM     23  C3  UNL     1      20.772   0.999  31.611  0.00  0.00    +0.036 C 
BRANCH  23  25
ATOM     24  C1  UNL     1      18.456   0.249  32.104  0.00  0.00    +0.004 C 
ATOM     25  C2  UNL     1      19.759   0.213  32.399  0.00  0.00    -0.034 C 
ENDBRANCH  23  25
ENDBRANCH  22  23
ENDBRANCH  15  22
ENDBRANCH   1  20
TORSDOF 5
ENDMDL
MODEL 9
REMARK VINA RESULT:    -5.387     13.319     16.192
REMARK INTER + INTRA:          -7.393
REMARK INTER:                  -6.991
REMARK INTRA:                  -0.401
REMARK UNBOUND:                -0.431
REMARK  Name = /home/qwerty/github/datacon2025hack/step_04_hit_selection/docking/ligands/lig_710.pdb
REMARK  5 active torsions:
REMARK  status: ('A' for Active; 'I' for Inactive)
REMARK    1  A    between atoms: C2_2  and  C3_3
REMARK    2  A    between atoms: C3_3  and  C4_4
REMARK    3  A    between atoms: C4_4  and  C5_5
REMARK    4  A    between atoms: C8_10  and  N2_11
REMARK    5  A    between atoms: C9_12  and  C10_14
REMARK                            x       y       z     vdW  Elec       q    Type
REMARK                         _______ _______ _______ _____ _____    ______ ____
ROOT
ATOM      1  N2  UNL     1      19.020   9.225  36.061  0.00  0.00    -0.307 N 
ATOM      2  C9  UNL     1      17.654   9.253  36.505  0.00  0.00    +0.246 C 
ATOM      3  O2  UNL     1      17.070   8.172  36.793  0.00  0.00    -0.270 OA
ATOM      4  H13 UNL     1      19.404  10.065  35.572  0.00  0.00    +0.149 HD
ENDROOT
BRANCH   2   5
ATOM      5  C10 UNL     1      16.910  10.531  36.610  0.00  0.00    +0.057 A 
ATOM      6  C11 UNL     1      17.592  11.773  36.760  0.00  0.00    +0.126 A 
ATOM      7  N3  UNL     1      16.897  12.945  36.864  0.00  0.00    -0.235 NA
ATOM      8  C12 UNL     1      15.544  12.907  36.822  0.00  0.00    +0.158 A 
ATOM      9  N4  UNL     1      14.703  13.940  36.912  0.00  0.00    -0.329 N 
ATOM     10  C13 UNL     1      13.480  13.359  36.831  0.00  0.00    +0.198 A 
ATOM     11  N5  UNL     1      13.526  12.005  36.695  0.00  0.00    -0.234 NA
ATOM     12  C14 UNL     1      14.847  11.753  36.693  0.00  0.00    +0.108 A 
ATOM     13  C15 UNL     1      15.495  10.528  36.587  0.00  0.00    +0.046 A 
ATOM     14  H15 UNL     1      14.931  14.953  37.022  0.00  0.00    +0.168 HD
ENDBRANCH   2   5
BRANCH   1  20
ATOM     15  C5  UNL     1      23.208   7.035  34.756  0.00  0.00    +0.216 C 
ATOM     16  O1  UNL     1      24.131   6.388  35.323  0.00  0.00    -0.276 OA
ATOM     17  N1  UNL     1      22.022   7.368  35.497  0.00  0.00    -0.300 N 
ATOM     18  C6  UNL     1      21.856   7.060  36.909  0.00  0.00    +0.109 C 
ATOM     19  C7  UNL     1      20.550   7.726  37.322  0.00  0.00    +0.043 C 
ATOM     20  C8  UNL     1      19.791   7.979  36.015  0.00  0.00    +0.092 C 
ATOM     21  C16 UNL     1      20.859   8.028  34.926  0.00  0.00    +0.130 C 
BRANCH  15  22
ATOM     22  C4  UNL     1      23.337   7.421  33.302  0.00  0.00    +0.100 C 
BRANCH  22  23
ATOM     23  C3  UNL     1      24.780   7.754  32.898  0.00  0.00    +0.036 C 
BRANCH  23  25
ATOM     24  C1  UNL     1      24.462   9.807  31.537  0.00  0.00    +0.004 C 
ATOM     25  C2  UNL     1      24.948   9.227  32.638  0.00  0.00    -0.034 C 
ENDBRANCH  23  25
ENDBRANCH  22  23
ENDBRANCH  15  22
ENDBRANCH   1  20
TORSDOF 5
ENDMDL
