MODEL 1
REMARK VINA RESULT:    -6.379      0.000      0.000
REMARK INTER + INTRA:         -10.831
REMARK INTER:                  -8.989
REMARK INTRA:                  -1.842
REMARK UNBOUND:                -1.842
REMARK  Name = /home/qwerty/github/datacon2025hack/step_04_hit_selection/docking/ligands/lig_779.pdb
REMARK  10 active torsions:
REMARK  status: ('A' for Active; 'I' for Inactive)
REMARK    1  A    between atoms: C1_1  and  C2_2
REMARK    2  A    between atoms: C2_2  and  N1_3
REMARK    3  A    between atoms: N1_3  and  C3_4
REMARK    4  A    between atoms: N1_3  and  S1_6
REMARK    5  A    between atoms: C3_4  and  C4_5
REMARK    6  A    between atoms: S1_6  and  C5_9
REMARK    7  A    between atoms: C8_12  and  N2_13
REMARK    8  A    between atoms: C13_18  and  N3_19
REMARK    9  A    between atoms: C14_20  and  C15_22
REMARK   10  A    between atoms: C18_26  and  C19_27
REMARK                            x       y       z     vdW  Elec       q    Type
REMARK                         _______ _______ _______ _____ _____    ______ ____
ROOT
ATOM      1  C5  UNL     1      12.626   2.597  22.306  0.00  0.00    +0.107 A 
ATOM      2  C6  UNL     1      12.393   1.277  21.904  0.00  0.00    +0.030 A 
ATOM      3  C7  UNL     1      13.309   0.273  22.223  0.00  0.00    +0.027 A 
ATOM      4  C8  UNL     1      14.478   0.574  22.939  0.00  0.00    +0.051 A 
ATOM      5  C13 UNL     1      14.735   1.914  23.310  0.00  0.00    +0.057 A 
ATOM      6  C24 UNL     1      13.792   2.908  23.016  0.00  0.00    +0.053 A 
ENDROOT
BRANCH   4   7
ATOM      7  N2  UNL     1      15.362  -0.489  23.333  0.00  0.00    -0.328 N 
ATOM      8  C9  UNL     1      16.401  -1.027  22.474  0.00  0.00    +0.105 C 
ATOM      9  C10 UNL     1      17.115  -2.073  23.317  0.00  0.00    +0.020 C 
ATOM     10  C11 UNL     1      16.138  -2.441  24.431  0.00  0.00    +0.020 C 
ATOM     11  C12 UNL     1      15.182  -1.263  24.551  0.00  0.00    +0.105 C 
ENDBRANCH   4   7
BRANCH   5  12
ATOM     12  N3  UNL     1      15.958   2.292  23.960  0.00  0.00    -0.280 N 
ATOM     13  C14 UNL     1      17.182   2.487  23.231  0.00  0.00    +0.255 C 
ATOM     14  O3  UNL     1      17.156   2.523  21.971  0.00  0.00    -0.270 OA
ATOM     15  H21 UNL     1      15.900   2.650  24.939  0.00  0.00    +0.155 HD
BRANCH  13  16
ATOM     16  C15 UNL     1      18.475   2.659  23.948  0.00  0.00    +0.120 A 
ATOM     17  C16 UNL     1      19.334   3.707  23.604  0.00  0.00    +0.131 A 
ATOM     18  N4  UNL     1      20.504   3.874  24.261  0.00  0.00    -0.236 NA
ATOM     19  C17 UNL     1      20.885   3.044  25.267  0.00  0.00    +0.143 A 
ATOM     20  C18 UNL     1      22.117   3.261  25.917  0.00  0.00    -0.008 A 
ATOM     21  C19 UNL     1      23.007   4.414  25.536  0.00  0.00    +0.047 C 
ATOM     22  C20 UNL     1      22.482   2.419  26.971  0.00  0.00    +0.008 A 
ATOM     23  C21 UNL     1      21.647   1.374  27.349  0.00  0.00    +0.019 A 
ATOM     24  C22 UNL     1      20.441   1.177  26.678  0.00  0.00    +0.096 A 
ATOM     25  N5  UNL     1      20.065   2.002  25.648  0.00  0.00    -0.267 N 
ATOM     26  C23 UNL     1      18.870   1.802  24.996  0.00  0.00    +0.271 A 
ATOM     27  O4  UNL     1      18.120   0.839  25.327  0.00  0.00    -0.266 OA
ENDBRANCH  13  16
ENDBRANCH   5  12
BRANCH   1  28
ATOM     28  S1  UNL     1      11.466   3.866  21.905  0.00  0.00    +0.061 S 
ATOM     29  O1  UNL     1      11.059   4.583  23.161  0.00  0.00    -0.153 OA
ATOM     30  O2  UNL     1      10.232   3.231  21.328  0.00  0.00    -0.153 OA
BRANCH  28  31
ATOM     31  N1  UNL     1      12.136   5.006  20.749  0.00  0.00    -0.177 NA
BRANCH  31  33
ATOM     32  C1  UNL     1      14.247   4.656  19.486  0.00  0.00    +0.022 C 
ATOM     33  C2  UNL     1      12.768   4.297  19.612  0.00  0.00    +0.106 C 
ENDBRANCH  31  33
BRANCH  31  34
ATOM     34  C3  UNL     1      11.073   5.916  20.278  0.00  0.00    +0.106 C 
ATOM     35  C4  UNL     1      11.405   7.362  20.638  0.00  0.00    +0.022 C 
ENDBRANCH  31  34
ENDBRANCH  28  31
ENDBRANCH   1  28
TORSDOF 7
ENDMDL
MODEL 2
REMARK VINA RESULT:    -6.253      5.786     10.970
REMARK INTER + INTRA:         -10.654
REMARK INTER:                  -8.878
REMARK INTRA:                  -1.776
REMARK UNBOUND:                -1.842
REMARK  Name = /home/qwerty/github/datacon2025hack/step_04_hit_selection/docking/ligands/lig_779.pdb
REMARK  10 active torsions:
REMARK  status: ('A' for Active; 'I' for Inactive)
REMARK    1  A    between atoms: C1_1  and  C2_2
REMARK    2  A    between atoms: C2_2  and  N1_3
REMARK    3  A    between atoms: N1_3  and  C3_4
REMARK    4  A    between atoms: N1_3  and  S1_6
REMARK    5  A    between atoms: C3_4  and  C4_5
REMARK    6  A    between atoms: S1_6  and  C5_9
REMARK    7  A    between atoms: C8_12  and  N2_13
REMARK    8  A    between atoms: C13_18  and  N3_19
REMARK    9  A    between atoms: C14_20  and  C15_22
REMARK   10  A    between atoms: C18_26  and  C19_27
REMARK                            x       y       z     vdW  Elec       q    Type
REMARK                         _______ _______ _______ _____ _____    ______ ____
ROOT
ATOM      1  C5  UNL     1      11.650   4.800  21.469  0.00  0.00    +0.107 A 
ATOM      2  C6  UNL     1      11.199   5.358  20.268  0.00  0.00    +0.030 A 
ATOM      3  C7  UNL     1      10.495   6.564  20.273  0.00  0.00    +0.027 A 
ATOM      4  C8  UNL     1      10.219   7.223  21.481  0.00  0.00    +0.051 A 
ATOM      5  C13 UNL     1      10.636   6.640  22.698  0.00  0.00    +0.057 A 
ATOM      6  C24 UNL     1      11.375   5.448  22.679  0.00  0.00    +0.053 A 
ENDROOT
BRANCH   4   7
ATOM      7  N2  UNL     1       9.570   8.506  21.455  0.00  0.00    -0.328 N 
ATOM      8  C9  UNL     1       8.141   8.685  21.638  0.00  0.00    +0.105 C 
ATOM      9  C10 UNL     1       7.918  10.190  21.599  0.00  0.00    +0.020 C 
ATOM     10  C11 UNL     1       9.142  10.769  20.894  0.00  0.00    +0.020 C 
ATOM     11  C12 UNL     1      10.244   9.730  21.054  0.00  0.00    +0.105 C 
ENDBRANCH   4   7
BRANCH   5  12
ATOM     12  N3  UNL     1      10.299   7.223  23.967  0.00  0.00    -0.280 N 
ATOM     13  C14 UNL     1       9.065   6.925  24.641  0.00  0.00    +0.255 C 
ATOM     14  O3  UNL     1       8.339   5.983  24.220  0.00  0.00    -0.270 OA
ATOM     15  H21 UNL     1      11.061   7.689  24.507  0.00  0.00    +0.155 HD
BRANCH  13  16
ATOM     16  C15 UNL     1       8.643   7.706  25.836  0.00  0.00    +0.120 A 
ATOM     17  C16 UNL     1       8.067   7.056  26.931  0.00  0.00    +0.131 A 
ATOM     18  N4  UNL     1       7.693   7.761  28.022  0.00  0.00    -0.236 NA
ATOM     19  C17 UNL     1       7.860   9.107  28.098  0.00  0.00    +0.143 A 
ATOM     20  C18 UNL     1       7.451   9.794  29.259  0.00  0.00    -0.008 A 
ATOM     21  C19 UNL     1       6.855   9.059  30.429  0.00  0.00    +0.047 C 
ATOM     22  C20 UNL     1       7.659  11.173  29.336  0.00  0.00    +0.008 A 
ATOM     23  C21 UNL     1       8.240  11.851  28.271  0.00  0.00    +0.019 A 
ATOM     24  C22 UNL     1       8.623  11.145  27.131  0.00  0.00    +0.096 A 
ATOM     25  N5  UNL     1       8.435   9.789  27.045  0.00  0.00    -0.267 N 
ATOM     26  C23 UNL     1       8.822   9.103  25.917  0.00  0.00    +0.271 A 
ATOM     27  O4  UNL     1       9.332   9.722  24.941  0.00  0.00    -0.266 OA
ENDBRANCH  13  16
ENDBRANCH   5  12
BRANCH   1  28
ATOM     28  S1  UNL     1      12.543   3.278  21.461  0.00  0.00    +0.061 S 
ATOM     29  O1  UNL     1      13.835   3.455  22.208  0.00  0.00    -0.153 OA
ATOM     30  O2  UNL     1      12.888   2.924  20.041  0.00  0.00    -0.153 OA
BRANCH  28  31
ATOM     31  N1  UNL     1      11.605   1.979  22.178  0.00  0.00    -0.177 NA
BRANCH  31  33
ATOM     32  C1  UNL     1      12.669   0.645  23.985  0.00  0.00    +0.022 C 
ATOM     33  C2  UNL     1      11.852   1.888  23.636  0.00  0.00    +0.106 C 
ENDBRANCH  31  33
BRANCH  31  34
ATOM     34  C3  UNL     1      10.170   2.192  21.900  0.00  0.00    +0.106 C 
ATOM     35  C4  UNL     1       9.387   2.344  23.202  0.00  0.00    +0.022 C 
ENDBRANCH  31  34
ENDBRANCH  28  31
ENDBRANCH   1  28
TORSDOF 7
ENDMDL
MODEL 3
REMARK VINA RESULT:    -6.247      1.469      2.108
REMARK INTER + INTRA:         -10.646
REMARK INTER:                  -8.922
REMARK INTRA:                  -1.723
REMARK UNBOUND:                -1.842
REMARK  Name = /home/qwerty/github/datacon2025hack/step_04_hit_selection/docking/ligands/lig_779.pdb
REMARK  10 active torsions:
REMARK  status: ('A' for Active; 'I' for Inactive)
REMARK    1  A    between atoms: C1_1  and  C2_2
REMARK    2  A    between atoms: C2_2  and  N1_3
REMARK    3  A    between atoms: N1_3  and  C3_4
REMARK    4  A    between atoms: N1_3  and  S1_6
REMARK    5  A    between atoms: C3_4  and  C4_5
REMARK    6  A    between atoms: S1_6  and  C5_9
REMARK    7  A    between atoms: C8_12  and  N2_13
REMARK    8  A    between atoms: C13_18  and  N3_19
REMARK    9  A    between atoms: C14_20  and  C15_22
REMARK   10  A    between atoms: C18_26  and  C19_27
REMARK                            x       y       z     vdW  Elec       q    Type
REMARK                         _______ _______ _______ _____ _____    ______ ____
ROOT
ATOM      1  C5  UNL     1      12.603   2.518  22.452  0.00  0.00    +0.107 A 
ATOM      2  C6  UNL     1      12.410   1.200  22.023  0.00  0.00    +0.030 A 
ATOM      3  C7  UNL     1      13.370   0.223  22.296  0.00  0.00    +0.027 A 
ATOM      4  C8  UNL     1      14.543   0.552  22.992  0.00  0.00    +0.051 A 
ATOM      5  C13 UNL     1      14.760   1.890  23.389  0.00  0.00    +0.057 A 
ATOM      6  C24 UNL     1      13.773   2.855  23.142  0.00  0.00    +0.053 A 
ENDROOT
BRANCH   4   7
ATOM      7  N2  UNL     1      15.476  -0.487  23.339  0.00  0.00    -0.328 N 
ATOM      8  C9  UNL     1      16.467  -1.014  22.419  0.00  0.00    +0.105 C 
ATOM      9  C10 UNL     1      17.260  -2.032  23.226  0.00  0.00    +0.020 C 
ATOM     10  C11 UNL     1      16.368  -2.405  24.407  0.00  0.00    +0.020 C 
ATOM     11  C12 UNL     1      15.395  -1.246  24.576  0.00  0.00    +0.105 C 
ENDBRANCH   4   7
BRANCH   5  12
ATOM     12  N3  UNL     1      15.983   2.300  24.020  0.00  0.00    -0.280 N 
ATOM     13  C14 UNL     1      17.188   2.534  23.272  0.00  0.00    +0.255 C 
ATOM     14  O3  UNL     1      17.137   2.577  22.013  0.00  0.00    -0.270 OA
ATOM     15  H21 UNL     1      15.931   2.649  25.003  0.00  0.00    +0.155 HD
BRANCH  13  16
ATOM     16  C15 UNL     1      18.488   2.738  23.967  0.00  0.00    +0.120 A 
ATOM     17  C16 UNL     1      19.326   3.791  23.591  0.00  0.00    +0.131 A 
ATOM     18  N4  UNL     1      20.503   3.987  24.228  0.00  0.00    -0.236 NA
ATOM     19  C17 UNL     1      20.910   3.182  25.244  0.00  0.00    +0.143 A 
ATOM     20  C18 UNL     1      22.147   3.429  25.873  0.00  0.00    -0.008 A 
ATOM     21  C19 UNL     1      23.015   4.587  25.457  0.00  0.00    +0.047 C 
ATOM     22  C20 UNL     1      22.539   2.614  26.938  0.00  0.00    +0.008 A 
ATOM     23  C21 UNL     1      21.724   1.564  27.347  0.00  0.00    +0.019 A 
ATOM     24  C22 UNL     1      20.513   1.338  26.696  0.00  0.00    +0.096 A 
ATOM     25  N5  UNL     1      20.110   2.137  25.657  0.00  0.00    -0.267 N 
ATOM     26  C23 UNL     1      18.909   1.907  25.026  0.00  0.00    +0.271 A 
ATOM     27  O4  UNL     1      18.178   0.940  25.385  0.00  0.00    -0.266 OA
ENDBRANCH  13  16
ENDBRANCH   5  12
BRANCH   1  28
ATOM     28  S1  UNL     1      11.388   3.751  22.109  0.00  0.00    +0.061 S 
ATOM     29  O1  UNL     1      11.549   4.228  20.693  0.00  0.00    -0.153 OA
ATOM     30  O2  UNL     1      11.623   4.930  23.012  0.00  0.00    -0.153 OA
BRANCH  28  31
ATOM     31  N1  UNL     1       9.762   3.137  22.358  0.00  0.00    -0.177 NA
BRANCH  31  33
ATOM     32  C1  UNL     1       9.466   1.408  24.120  0.00  0.00    +0.022 C 
ATOM     33  C2  UNL     1       9.499   2.901  23.797  0.00  0.00    +0.106 C 
ENDBRANCH  31  33
BRANCH  31  34
ATOM     34  C3  UNL     1       8.782   4.085  21.792  0.00  0.00    +0.106 C 
ATOM     35  C4  UNL     1       7.584   4.241  22.727  0.00  0.00    +0.022 C 
ENDBRANCH  31  34
ENDBRANCH  28  31
ENDBRANCH   1  28
TORSDOF 7
ENDMDL
MODEL 4
REMARK VINA RESULT:    -6.244      3.840      9.780
REMARK INTER + INTRA:         -10.642
REMARK INTER:                  -9.127
REMARK INTRA:                  -1.514
REMARK UNBOUND:                -1.842
REMARK  Name = /home/qwerty/github/datacon2025hack/step_04_hit_selection/docking/ligands/lig_779.pdb
REMARK  10 active torsions:
REMARK  status: ('A' for Active; 'I' for Inactive)
REMARK    1  A    between atoms: C1_1  and  C2_2
REMARK    2  A    between atoms: C2_2  and  N1_3
REMARK    3  A    between atoms: N1_3  and  C3_4
REMARK    4  A    between atoms: N1_3  and  S1_6
REMARK    5  A    between atoms: C3_4  and  C4_5
REMARK    6  A    between atoms: S1_6  and  C5_9
REMARK    7  A    between atoms: C8_12  and  N2_13
REMARK    8  A    between atoms: C13_18  and  N3_19
REMARK    9  A    between atoms: C14_20  and  C15_22
REMARK   10  A    between atoms: C18_26  and  C19_27
REMARK                            x       y       z     vdW  Elec       q    Type
REMARK                         _______ _______ _______ _____ _____    ______ ____
ROOT
ATOM      1  C5  UNL     1      22.005   1.690  27.930  0.00  0.00    +0.107 A 
ATOM      2  C6  UNL     1      22.904   2.553  27.294  0.00  0.00    +0.030 A 
ATOM      3  C7  UNL     1      22.486   3.333  26.214  0.00  0.00    +0.027 A 
ATOM      4  C8  UNL     1      21.165   3.254  25.746  0.00  0.00    +0.051 A 
ATOM      5  C13 UNL     1      20.267   2.351  26.360  0.00  0.00    +0.057 A 
ATOM      6  C24 UNL     1      20.688   1.600  27.466  0.00  0.00    +0.053 A 
ENDROOT
BRANCH   4   7
ATOM      7  N2  UNL     1      20.733   4.130  24.691  0.00  0.00    -0.328 N 
ATOM      8  C9  UNL     1      20.188   5.455  24.922  0.00  0.00    +0.105 C 
ATOM      9  C10 UNL     1      19.934   6.031  23.536  0.00  0.00    +0.020 C 
ATOM     10  C11 UNL     1      19.868   4.829  22.598  0.00  0.00    +0.020 C 
ATOM     11  C12 UNL     1      20.618   3.708  23.305  0.00  0.00    +0.105 C 
ENDBRANCH   4   7
BRANCH   5  12
ATOM     12  N3  UNL     1      18.934   2.161  25.862  0.00  0.00    -0.280 N 
ATOM     13  C14 UNL     1      18.635   1.218  24.819  0.00  0.00    +0.255 C 
ATOM     14  O3  UNL     1      19.516   0.392  24.458  0.00  0.00    -0.270 OA
ATOM     15  H21 UNL     1      18.144   2.548  26.424  0.00  0.00    +0.155 HD
BRANCH  13  16
ATOM     16  C15 UNL     1      17.295   1.200  24.171  0.00  0.00    +0.120 A 
ATOM     17  C16 UNL     1      17.162   1.553  22.826  0.00  0.00    +0.131 A 
ATOM     18  N4  UNL     1      15.948   1.526  22.230  0.00  0.00    -0.236 NA
ATOM     19  C17 UNL     1      14.827   1.159  22.905  0.00  0.00    +0.143 A 
ATOM     20  C18 UNL     1      13.586   1.150  22.237  0.00  0.00    -0.008 A 
ATOM     21  C19 UNL     1      13.483   1.515  20.780  0.00  0.00    +0.047 C 
ATOM     22  C20 UNL     1      12.447   0.739  22.934  0.00  0.00    +0.008 A 
ATOM     23  C21 UNL     1      12.543   0.369  24.270  0.00  0.00    +0.019 A 
ATOM     24  C22 UNL     1      13.783   0.401  24.906  0.00  0.00    +0.096 A 
ATOM     25  N5  UNL     1      14.912   0.791  24.232  0.00  0.00    -0.267 N 
ATOM     26  C23 UNL     1      16.132   0.813  24.869  0.00  0.00    +0.271 A 
ATOM     27  O4  UNL     1      16.216   0.496  26.090  0.00  0.00    -0.266 OA
ENDBRANCH  13  16
ENDBRANCH   5  12
BRANCH   1  28
ATOM     28  S1  UNL     1      22.534   0.706  29.297  0.00  0.00    +0.061 S 
ATOM     29  O1  UNL     1      24.023   0.833  29.455  0.00  0.00    -0.153 OA
ATOM     30  O2  UNL     1      22.234  -0.738  29.002  0.00  0.00    -0.153 OA
BRANCH  28  31
ATOM     31  N1  UNL     1      21.727   1.182  30.781  0.00  0.00    -0.177 NA
BRANCH  31  33
ATOM     32  C1  UNL     1      22.509   3.248  31.921  0.00  0.00    +0.022 C 
ATOM     33  C2  UNL     1      21.585   2.655  30.858  0.00  0.00    +0.106 C 
ENDBRANCH  31  33
BRANCH  31  34
ATOM     34  C3  UNL     1      20.408   0.522  30.862  0.00  0.00    +0.106 C 
ATOM     35  C4  UNL     1      20.037   0.240  32.316  0.00  0.00    +0.022 C 
ENDBRANCH  31  34
ENDBRANCH  28  31
ENDBRANCH   1  28
TORSDOF 7
ENDMDL
MODEL 5
REMARK VINA RESULT:    -6.239      8.651     12.094
REMARK INTER + INTRA:         -10.634
REMARK INTER:                  -9.164
REMARK INTRA:                  -1.470
REMARK UNBOUND:                -1.842
REMARK  Name = /home/qwerty/github/datacon2025hack/step_04_hit_selection/docking/ligands/lig_779.pdb
REMARK  10 active torsions:
REMARK  status: ('A' for Active; 'I' for Inactive)
REMARK    1  A    between atoms: C1_1  and  C2_2
REMARK    2  A    between atoms: C2_2  and  N1_3
REMARK    3  A    between atoms: N1_3  and  C3_4
REMARK    4  A    between atoms: N1_3  and  S1_6
REMARK    5  A    between atoms: C3_4  and  C4_5
REMARK    6  A    between atoms: S1_6  and  C5_9
REMARK    7  A    between atoms: C8_12  and  N2_13
REMARK    8  A    between atoms: C13_18  and  N3_19
REMARK    9  A    between atoms: C14_20  and  C15_22
REMARK   10  A    between atoms: C18_26  and  C19_27
REMARK                            x       y       z     vdW  Elec       q    Type
REMARK                         _______ _______ _______ _____ _____    ______ ____
ROOT
ATOM      1  C5  UNL     1       8.206  11.523  28.720  0.00  0.00    +0.107 A 
ATOM      2  C6  UNL     1       7.519  10.887  29.761  0.00  0.00    +0.030 A 
ATOM      3  C7  UNL     1       7.415   9.495  29.787  0.00  0.00    +0.027 A 
ATOM      4  C8  UNL     1       7.984   8.717  28.766  0.00  0.00    +0.051 A 
ATOM      5  C13 UNL     1       8.641   9.360  27.693  0.00  0.00    +0.057 A 
ATOM      6  C24 UNL     1       8.772  10.756  27.696  0.00  0.00    +0.053 A 
ENDROOT
BRANCH   4   7
ATOM      7  N2  UNL     1       7.940   7.283  28.860  0.00  0.00    -0.328 N 
ATOM      8  C9  UNL     1       6.777   6.492  28.500  0.00  0.00    +0.105 C 
ATOM      9  C10 UNL     1       7.203   5.044  28.696  0.00  0.00    +0.020 C 
ATOM     10  C11 UNL     1       8.407   5.092  29.633  0.00  0.00    +0.020 C 
ATOM     11  C12 UNL     1       8.980   6.496  29.502  0.00  0.00    +0.105 C 
ENDBRANCH   4   7
BRANCH   5  12
ATOM     12  N3  UNL     1       9.158   8.620  26.576  0.00  0.00    -0.280 N 
ATOM     13  C14 UNL     1       8.460   8.541  25.322  0.00  0.00    +0.255 C 
ATOM     14  O3  UNL     1       7.468   9.292  25.115  0.00  0.00    -0.270 OA
ATOM     15  H21 UNL     1      10.160   8.328  26.607  0.00  0.00    +0.155 HD
BRANCH  13  16
ATOM     16  C15 UNL     1       8.903   7.593  24.263  0.00  0.00    +0.120 A 
ATOM     17  C16 UNL     1       9.569   8.069  23.130  0.00  0.00    +0.131 A 
ATOM     18  N4  UNL     1       9.983   7.210  22.172  0.00  0.00    -0.236 NA
ATOM     19  C17 UNL     1       9.773   5.871  22.270  0.00  0.00    +0.143 A 
ATOM     20  C18 UNL     1      10.223   5.020  21.241  0.00  0.00    -0.008 A 
ATOM     21  C19 UNL     1      10.958   5.564  20.045  0.00  0.00    +0.047 C 
ATOM     22  C20 UNL     1      10.029   3.642  21.370  0.00  0.00    +0.008 A 
ATOM     23  C21 UNL     1       9.380   3.132  22.489  0.00  0.00    +0.019 A 
ATOM     24  C22 UNL     1       8.935   4.002  23.484  0.00  0.00    +0.096 A 
ATOM     25  N5  UNL     1       9.129   5.356  23.376  0.00  0.00    -0.267 N 
ATOM     26  C23 UNL     1       8.690   6.203  24.367  0.00  0.00    +0.271 A 
ATOM     27  O4  UNL     1       8.082   5.741  25.374  0.00  0.00    -0.266 OA
ENDBRANCH  13  16
ENDBRANCH   5  12
BRANCH   1  28
ATOM     28  S1  UNL     1       8.341  13.282  28.690  0.00  0.00    +0.061 S 
ATOM     29  O1  UNL     1       7.386  13.872  29.690  0.00  0.00    -0.153 OA
ATOM     30  O2  UNL     1       7.932  13.778  27.330  0.00  0.00    -0.153 OA
BRANCH  28  31
ATOM     31  N1  UNL     1       9.980  13.807  29.038  0.00  0.00    -0.177 NA
BRANCH  31  33
ATOM     32  C1  UNL     1      10.996  13.717  31.304  0.00  0.00    +0.022 C 
ATOM     33  C2  UNL     1      10.612  12.931  30.051  0.00  0.00    +0.106 C 
ENDBRANCH  31  33
BRANCH  31  34
ATOM     34  C3  UNL     1      10.770  13.824  27.790  0.00  0.00    +0.106 C 
ATOM     35  C4  UNL     1      11.827  14.924  27.839  0.00  0.00    +0.022 C 
ENDBRANCH  31  34
ENDBRANCH  28  31
ENDBRANCH   1  28
TORSDOF 7
ENDMDL
MODEL 6
REMARK VINA RESULT:    -6.146      9.162     13.217
REMARK INTER + INTRA:         -10.503
REMARK INTER:                  -8.816
REMARK INTRA:                  -1.687
REMARK UNBOUND:                -1.842
REMARK  Name = /home/qwerty/github/datacon2025hack/step_04_hit_selection/docking/ligands/lig_779.pdb
REMARK  10 active torsions:
REMARK  status: ('A' for Active; 'I' for Inactive)
REMARK    1  A    between atoms: C1_1  and  C2_2
REMARK    2  A    between atoms: C2_2  and  N1_3
REMARK    3  A    between atoms: N1_3  and  C3_4
REMARK    4  A    between atoms: N1_3  and  S1_6
REMARK    5  A    between atoms: C3_4  and  C4_5
REMARK    6  A    between atoms: S1_6  and  C5_9
REMARK    7  A    between atoms: C8_12  and  N2_13
REMARK    8  A    between atoms: C13_18  and  N3_19
REMARK    9  A    between atoms: C14_20  and  C15_22
REMARK   10  A    between atoms: C18_26  and  C19_27
REMARK                            x       y       z     vdW  Elec       q    Type
REMARK                         _______ _______ _______ _____ _____    ______ ____
ROOT
ATOM      1  C5  UNL     1      20.093   7.646  35.985  0.00  0.00    +0.107 A 
ATOM      2  C6  UNL     1      20.845   8.811  36.174  0.00  0.00    +0.030 A 
ATOM      3  C7  UNL     1      21.858   9.148  35.274  0.00  0.00    +0.027 A 
ATOM      4  C8  UNL     1      22.142   8.319  34.177  0.00  0.00    +0.051 A 
ATOM      5  C13 UNL     1      21.413   7.121  34.008  0.00  0.00    +0.057 A 
ATOM      6  C24 UNL     1      20.374   6.811  34.897  0.00  0.00    +0.053 A 
ENDROOT
BRANCH   4   7
ATOM      7  N2  UNL     1      23.129   8.731  33.215  0.00  0.00    -0.328 N 
ATOM      8  C9  UNL     1      24.552   8.494  33.375  0.00  0.00    +0.105 C 
ATOM      9  C10 UNL     1      25.193   9.034  32.104  0.00  0.00    +0.020 C 
ATOM     10  C11 UNL     1      24.174  10.003  31.510  0.00  0.00    +0.020 C 
ATOM     11  C12 UNL     1      22.825   9.592  32.084  0.00  0.00    +0.105 C 
ENDBRANCH   4   7
BRANCH   5  12
ATOM     12  N3  UNL     1      21.725   6.191  32.960  0.00  0.00    -0.280 N 
ATOM     13  C14 UNL     1      21.022   6.190  31.706  0.00  0.00    +0.255 C 
ATOM     14  O3  UNL     1      20.246   7.144  31.428  0.00  0.00    -0.270 OA
ATOM     15  H21 UNL     1      22.623   5.664  33.027  0.00  0.00    +0.155 HD
BRANCH  13  16
ATOM     16  C15 UNL     1      21.210   5.083  30.729  0.00  0.00    +0.120 A 
ATOM     17  C16 UNL     1      21.362   5.365  29.369  0.00  0.00    +0.131 A 
ATOM     18  N4  UNL     1      21.545   4.363  28.480  0.00  0.00    -0.236 NA
ATOM     19  C17 UNL     1      21.589   3.061  28.868  0.00  0.00    +0.143 A 
ATOM     20  C18 UNL     1      21.781   2.055  27.899  0.00  0.00    -0.008 A 
ATOM     21  C19 UNL     1      21.963   2.397  26.445  0.00  0.00    +0.047 C 
ATOM     22  C20 UNL     1      21.857   0.723  28.316  0.00  0.00    +0.008 A 
ATOM     23  C21 UNL     1      21.723   0.405  29.662  0.00  0.00    +0.019 A 
ATOM     24  C22 UNL     1      21.522   1.423  30.594  0.00  0.00    +0.096 A 
ATOM     25  N5  UNL     1      21.456   2.736  30.201  0.00  0.00    -0.267 N 
ATOM     26  C23 UNL     1      21.263   3.732  31.131  0.00  0.00    +0.271 A 
ATOM     27  O4  UNL     1      21.120   3.441  32.353  0.00  0.00    -0.266 OA
ENDBRANCH  13  16
ENDBRANCH   5  12
BRANCH   1  28
ATOM     28  S1  UNL     1      18.811   7.222  37.122  0.00  0.00    +0.061 S 
ATOM     29  O1  UNL     1      18.765   8.243  38.224  0.00  0.00    -0.153 OA
ATOM     30  O2  UNL     1      19.137   5.895  37.750  0.00  0.00    -0.153 OA
BRANCH  28  31
ATOM     31  N1  UNL     1      17.251   7.126  36.323  0.00  0.00    -0.177 NA
BRANCH  31  33
ATOM     32  C1  UNL     1      15.746   6.227  38.084  0.00  0.00    +0.022 C 
ATOM     33  C2  UNL     1      16.492   5.940  36.783  0.00  0.00    +0.106 C 
ENDBRANCH  31  33
BRANCH  31  34
ATOM     34  C3  UNL     1      16.490   8.366  36.570  0.00  0.00    +0.106 C 
ATOM     35  C4  UNL     1      16.770   9.396  35.479  0.00  0.00    +0.022 C 
ENDBRANCH  31  34
ENDBRANCH  28  31
ENDBRANCH   1  28
TORSDOF 7
ENDMDL
MODEL 7
REMARK VINA RESULT:    -6.143     12.176     13.983
REMARK INTER + INTRA:         -10.498
REMARK INTER:                  -8.769
REMARK INTRA:                  -1.730
REMARK UNBOUND:                -1.842
REMARK  Name = /home/qwerty/github/datacon2025hack/step_04_hit_selection/docking/ligands/lig_779.pdb
REMARK  10 active torsions:
REMARK  status: ('A' for Active; 'I' for Inactive)
REMARK    1  A    between atoms: C1_1  and  C2_2
REMARK    2  A    between atoms: C2_2  and  N1_3
REMARK    3  A    between atoms: N1_3  and  C3_4
REMARK    4  A    between atoms: N1_3  and  S1_6
REMARK    5  A    between atoms: C3_4  and  C4_5
REMARK    6  A    between atoms: S1_6  and  C5_9
REMARK    7  A    between atoms: C8_12  and  N2_13
REMARK    8  A    between atoms: C13_18  and  N3_19
REMARK    9  A    between atoms: C14_20  and  C15_22
REMARK   10  A    between atoms: C18_26  and  C19_27
REMARK                            x       y       z     vdW  Elec       q    Type
REMARK                         _______ _______ _______ _____ _____    ______ ____
ROOT
ATOM      1  C5  UNL     1      10.051  13.481  28.489  0.00  0.00    +0.107 A 
ATOM      2  C6  UNL     1      10.678  14.175  27.448  0.00  0.00    +0.030 A 
ATOM      3  C7  UNL     1      12.058  14.388  27.475  0.00  0.00    +0.027 A 
ATOM      4  C8  UNL     1      12.831  13.920  28.549  0.00  0.00    +0.051 A 
ATOM      5  C13 UNL     1      12.194  13.255  29.621  0.00  0.00    +0.057 A 
ATOM      6  C24 UNL     1      10.814  13.015  29.566  0.00  0.00    +0.053 A 
ENDROOT
BRANCH   4   7
ATOM      7  N2  UNL     1      14.260  14.073  28.512  0.00  0.00    -0.328 N 
ATOM      8  C9  UNL     1      14.951  15.262  28.975  0.00  0.00    +0.105 C 
ATOM      9  C10 UNL     1      16.432  14.956  28.808  0.00  0.00    +0.020 C 
ATOM     10  C11 UNL     1      16.504  13.817  27.794  0.00  0.00    +0.020 C 
ATOM     11  C12 UNL     1      15.143  13.137  27.835  0.00  0.00    +0.105 C 
ENDBRANCH   4   7
BRANCH   5  12
ATOM     12  N3  UNL     1      12.921  12.840  30.787  0.00  0.00    -0.280 N 
ATOM     13  C14 UNL     1      13.179  13.731  31.885  0.00  0.00    +0.255 C 
ATOM     14  O3  UNL     1      12.593  14.846  31.930  0.00  0.00    -0.270 OA
ATOM     15  H21 UNL     1      13.065  11.816  30.933  0.00  0.00    +0.155 HD
BRANCH  13  16
ATOM     16  C15 UNL     1      14.119  13.346  32.973  0.00  0.00    +0.120 A 
ATOM     17  C16 UNL     1      13.687  13.337  34.302  0.00  0.00    +0.131 A 
ATOM     18  N4  UNL     1      14.535  12.976  35.292  0.00  0.00    -0.236 NA
ATOM     19  C17 UNL     1      15.819  12.613  35.039  0.00  0.00    +0.143 A 
ATOM     20  C18 UNL     1      16.662  12.248  36.109  0.00  0.00    -0.008 A 
ATOM     21  C19 UNL     1      16.156  12.227  37.526  0.00  0.00    +0.047 C 
ATOM     22  C20 UNL     1      17.970  11.845  35.830  0.00  0.00    +0.008 A 
ATOM     23  C21 UNL     1      18.431  11.830  34.519  0.00  0.00    +0.019 A 
ATOM     24  C22 UNL     1      17.577  12.209  33.484  0.00  0.00    +0.096 A 
ATOM     25  N5  UNL     1      16.286  12.596  33.741  0.00  0.00    -0.267 N 
ATOM     26  C23 UNL     1      15.451  12.963  32.711  0.00  0.00    +0.271 A 
ATOM     27  O4  UNL     1      15.876  12.969  31.520  0.00  0.00    -0.266 OA
ENDBRANCH  13  16
ENDBRANCH   5  12
BRANCH   1  28
ATOM     28  S1  UNL     1       8.308  13.210  28.452  0.00  0.00    +0.061 S 
ATOM     29  O1  UNL     1       7.694  14.060  27.376  0.00  0.00    -0.153 OA
ATOM     30  O2  UNL     1       7.720  13.650  29.765  0.00  0.00    -0.153 OA
BRANCH  28  31
ATOM     31  N1  UNL     1       7.927  11.518  28.176  0.00  0.00    -0.177 NA
BRANCH  31  33
ATOM     32  C1  UNL     1       8.238  10.406  25.976  0.00  0.00    +0.022 C 
ATOM     33  C2  UNL     1       8.908  10.897  27.257  0.00  0.00    +0.106 C 
ENDBRANCH  31  33
BRANCH  31  34
ATOM     34  C3  UNL     1       7.888  10.802  29.467  0.00  0.00    +0.106 C 
ATOM     35  C4  UNL     1       6.932   9.613  29.393  0.00  0.00    +0.022 C 
ENDBRANCH  31  34
ENDBRANCH  28  31
ENDBRANCH   1  28
TORSDOF 7
ENDMDL
MODEL 8
REMARK VINA RESULT:    -6.124     10.551     13.967
REMARK INTER + INTRA:         -10.472
REMARK INTER:                  -8.633
REMARK INTRA:                  -1.839
REMARK UNBOUND:                -1.842
REMARK  Name = /home/qwerty/github/datacon2025hack/step_04_hit_selection/docking/ligands/lig_779.pdb
REMARK  10 active torsions:
REMARK  status: ('A' for Active; 'I' for Inactive)
REMARK    1  A    between atoms: C1_1  and  C2_2
REMARK    2  A    between atoms: C2_2  and  N1_3
REMARK    3  A    between atoms: N1_3  and  C3_4
REMARK    4  A    between atoms: N1_3  and  S1_6
REMARK    5  A    between atoms: C3_4  and  C4_5
REMARK    6  A    between atoms: S1_6  and  C5_9
REMARK    7  A    between atoms: C8_12  and  N2_13
REMARK    8  A    between atoms: C13_18  and  N3_19
REMARK    9  A    between atoms: C14_20  and  C15_22
REMARK   10  A    between atoms: C18_26  and  C19_27
REMARK                            x       y       z     vdW  Elec       q    Type
REMARK                         _______ _______ _______ _____ _____    ______ ____
ROOT
ATOM      1  C5  UNL     1      19.025  10.254  35.335  0.00  0.00    +0.107 A 
ATOM      2  C6  UNL     1      20.276  10.631  35.835  0.00  0.00    +0.030 A 
ATOM      3  C7  UNL     1      21.391   9.816  35.628  0.00  0.00    +0.027 A 
ATOM      4  C8  UNL     1      21.269   8.605  34.928  0.00  0.00    +0.051 A 
ATOM      5  C13 UNL     1      19.998   8.203  34.459  0.00  0.00    +0.057 A 
ATOM      6  C24 UNL     1      18.893   9.046  34.641  0.00  0.00    +0.053 A 
ENDROOT
BRANCH   4   7
ATOM      7  N2  UNL     1      22.445   7.825  34.651  0.00  0.00    -0.328 N 
ATOM      8  C9  UNL     1      23.030   6.894  35.597  0.00  0.00    +0.105 C 
ATOM      9  C10 UNL     1      24.202   6.259  34.861  0.00  0.00    +0.020 C 
ATOM     10  C11 UNL     1      24.539   7.217  33.721  0.00  0.00    +0.020 C 
ATOM     11  C12 UNL     1      23.276   8.031  33.476  0.00  0.00    +0.105 C 
ENDBRANCH   4   7
BRANCH   5  12
ATOM     12  N3  UNL     1      19.799   6.932  33.821  0.00  0.00    -0.280 N 
ATOM     13  C14 UNL     1      19.664   5.713  34.570  0.00  0.00    +0.255 C 
ATOM     14  O3  UNL     1      19.518   5.767  35.822  0.00  0.00    -0.270 OA
ATOM     15  H21 UNL     1      19.523   6.930  32.814  0.00  0.00    +0.155 HD
BRANCH  13  16
ATOM     16  C15 UNL     1      19.683   4.392  33.885  0.00  0.00    +0.120 A 
ATOM     17  C16 UNL     1      18.713   3.432  34.186  0.00  0.00    +0.131 A 
ATOM     18  N4  UNL     1      18.720   2.235  33.556  0.00  0.00    -0.236 NA
ATOM     19  C17 UNL     1      19.655   1.923  32.620  0.00  0.00    +0.143 A 
ATOM     20  C18 UNL     1      19.617   0.660  31.996  0.00  0.00    -0.008 A 
ATOM     21  C19 UNL     1      18.544  -0.342  32.327  0.00  0.00    +0.047 C 
ATOM     22  C20 UNL     1      20.565   0.365  31.012  0.00  0.00    +0.008 A 
ATOM     23  C21 UNL     1      21.537   1.300  30.678  0.00  0.00    +0.019 A 
ATOM     24  C22 UNL     1      21.555   2.536  31.323  0.00  0.00    +0.096 A 
ATOM     25  N5  UNL     1      20.625   2.844  32.283  0.00  0.00    -0.267 N 
ATOM     26  C23 UNL     1      20.649   4.069  32.909  0.00  0.00    +0.271 A 
ATOM     27  O4  UNL     1      21.546   4.912  32.620  0.00  0.00    -0.266 OA
ENDBRANCH  13  16
ENDBRANCH   5  12
BRANCH   1  28
ATOM     28  S1  UNL     1      17.617  11.287  35.594  0.00  0.00    +0.061 S 
ATOM     29  O1  UNL     1      16.928  11.528  34.281  0.00  0.00    -0.153 OA
ATOM     30  O2  UNL     1      18.082  12.621  36.111  0.00  0.00    -0.153 OA
BRANCH  28  31
ATOM     31  N1  UNL     1      16.498  10.571  36.742  0.00  0.00    -0.177 NA
BRANCH  31  33
ATOM     32  C1  UNL     1      17.076   8.429  37.863  0.00  0.00    +0.022 C 
ATOM     33  C2  UNL     1      17.225   9.950  37.873  0.00  0.00    +0.106 C 
ENDBRANCH  31  33
BRANCH  31  34
ATOM     34  C3  UNL     1      15.555  11.600  37.223  0.00  0.00    +0.106 C 
ATOM     35  C4  UNL     1      14.124  11.246  36.825  0.00  0.00    +0.022 C 
ENDBRANCH  31  34
ENDBRANCH  28  31
ENDBRANCH   1  28
TORSDOF 7
ENDMDL
MODEL 9
REMARK VINA RESULT:    -6.031      5.471     10.834
REMARK INTER + INTRA:         -10.341
REMARK INTER:                  -8.633
REMARK INTRA:                  -1.708
REMARK UNBOUND:                -1.842
REMARK  Name = /home/qwerty/github/datacon2025hack/step_04_hit_selection/docking/ligands/lig_779.pdb
REMARK  10 active torsions:
REMARK  status: ('A' for Active; 'I' for Inactive)
REMARK    1  A    between atoms: C1_1  and  C2_2
REMARK    2  A    between atoms: C2_2  and  N1_3
REMARK    3  A    between atoms: N1_3  and  C3_4
REMARK    4  A    between atoms: N1_3  and  S1_6
REMARK    5  A    between atoms: C3_4  and  C4_5
REMARK    6  A    between atoms: S1_6  and  C5_9
REMARK    7  A    between atoms: C8_12  and  N2_13
REMARK    8  A    between atoms: C13_18  and  N3_19
REMARK    9  A    between atoms: C14_20  and  C15_22
REMARK   10  A    between atoms: C18_26  and  C19_27
REMARK                            x       y       z     vdW  Elec       q    Type
REMARK                         _______ _______ _______ _____ _____    ______ ____
ROOT
ATOM      1  C5  UNL     1      11.989   4.880  21.488  0.00  0.00    +0.107 A 
ATOM      2  C6  UNL     1      11.512   5.400  20.279  0.00  0.00    +0.030 A 
ATOM      3  C7  UNL     1      10.733   6.558  20.270  0.00  0.00    +0.027 A 
ATOM      4  C8  UNL     1      10.409   7.209  21.471  0.00  0.00    +0.051 A 
ATOM      5  C13 UNL     1      10.854   6.662  22.696  0.00  0.00    +0.057 A 
ATOM      6  C24 UNL     1      11.666   5.520  22.690  0.00  0.00    +0.053 A 
ENDROOT
BRANCH   4   7
ATOM      7  N2  UNL     1       9.680   8.448  21.431  0.00  0.00    -0.328 N 
ATOM      8  C9  UNL     1      10.316   9.753  21.443  0.00  0.00    +0.105 C 
ATOM      9  C10 UNL     1       9.176  10.754  21.324  0.00  0.00    +0.020 C 
ATOM     10  C11 UNL     1       7.921  10.002  21.758  0.00  0.00    +0.020 C 
ATOM     11  C12 UNL     1       8.235   8.525  21.568  0.00  0.00    +0.105 C 
ENDBRANCH   4   7
BRANCH   5  12
ATOM     12  N3  UNL     1      10.473   7.233  23.957  0.00  0.00    -0.280 N 
ATOM     13  C14 UNL     1       9.216   6.929  24.585  0.00  0.00    +0.255 C 
ATOM     14  O3  UNL     1       8.506   5.991  24.130  0.00  0.00    -0.270 OA
ATOM     15  H21 UNL     1      11.216   7.695  24.527  0.00  0.00    +0.155 HD
BRANCH  13  16
ATOM     16  C15 UNL     1       8.752   7.698  25.772  0.00  0.00    +0.120 A 
ATOM     17  C16 UNL     1       8.138   7.038  26.840  0.00  0.00    +0.131 A 
ATOM     18  N4  UNL     1       7.726   7.733  27.924  0.00  0.00    -0.236 NA
ATOM     19  C17 UNL     1       7.891   9.078  28.019  0.00  0.00    +0.143 A 
ATOM     20  C18 UNL     1       7.441   9.753  29.172  0.00  0.00    -0.008 A 
ATOM     21  C19 UNL     1       6.804   9.007  30.313  0.00  0.00    +0.047 C 
ATOM     22  C20 UNL     1       7.646  11.132  29.269  0.00  0.00    +0.008 A 
ATOM     23  C21 UNL     1       8.264  11.820  28.232  0.00  0.00    +0.019 A 
ATOM     24  C22 UNL     1       8.686  11.125  27.099  0.00  0.00    +0.096 A 
ATOM     25  N5  UNL     1       8.502   9.770  26.994  0.00  0.00    -0.267 N 
ATOM     26  C23 UNL     1       8.928   9.094  25.873  0.00  0.00    +0.271 A 
ATOM     27  O4  UNL     1       9.472   9.723  24.921  0.00  0.00    -0.266 OA
ENDBRANCH  13  16
ENDBRANCH   5  12
BRANCH   1  28
ATOM     28  S1  UNL     1      12.977   3.417  21.498  0.00  0.00    +0.061 S 
ATOM     29  O1  UNL     1      12.575   2.537  20.349  0.00  0.00    -0.153 OA
ATOM     30  O2  UNL     1      12.704   2.656  22.766  0.00  0.00    -0.153 OA
BRANCH  28  31
ATOM     31  N1  UNL     1      14.688   3.798  21.398  0.00  0.00    -0.177 NA
BRANCH  31  33
ATOM     32  C1  UNL     1      16.059   1.740  21.143  0.00  0.00    +0.022 C 
ATOM     33  C2  UNL     1      15.499   2.783  22.110  0.00  0.00    +0.106 C 
ENDBRANCH  31  33
BRANCH  31  34
ATOM     34  C3  UNL     1      15.092   3.895  19.981  0.00  0.00    +0.106 C 
ATOM     35  C4  UNL     1      15.603   5.299  19.664  0.00  0.00    +0.022 C 
ENDBRANCH  31  34
ENDBRANCH  28  31
ENDBRANCH   1  28
TORSDOF 7
ENDMDL
