MODEL 1
REMARK VINA RESULT:    -7.086      0.000      0.000
REMARK INTER + INTRA:          -9.454
REMARK INTER:                  -8.950
REMARK INTRA:                  -0.504
REMARK UNBOUND:                -0.504
REMARK  Name = /home/qwerty/github/datacon2025hack/step_04_hit_selection/docking/ligands/lig_799.pdb
REMARK  5 active torsions:
REMARK  status: ('A' for Active; 'I' for Inactive)
REMARK    1  A    between atoms: N1_3  and  C2_4
REMARK    2  A    between atoms: C2_4  and  C3_5
REMARK    3  A    between atoms: C3_5  and  O2_6
REMARK    4  A    between atoms: C3_5  and  C4_7
REMARK    5  A    between atoms: N2_16  and  C12_17
REMARK                            x       y       z     vdW  Elec       q    Type
REMARK                         _______ _______ _______ _____ _____    ______ ____
ROOT
ATOM      1  O1  UNL     1      17.628  11.689  35.312  0.00  0.00    -0.253 OA
ATOM      2  C1  UNL     1      18.054  12.243  36.362  0.00  0.00    +0.304 C 
ATOM      3  N1  UNL     1      19.421  12.076  36.755  0.00  0.00    -0.296 N 
ATOM      4  N2  UNL     1      17.165  13.004  37.195  0.00  0.00    -0.269 N 
ATOM      5  H1  UNL     1      19.742  12.549  37.629  0.00  0.00    +0.150 HD
ATOM      6  H11 UNL     1      17.486  13.232  38.164  0.00  0.00    +0.156 HD
ENDROOT
BRANCH   4   7
ATOM      7  C12 UNL     1      15.816  13.344  36.835  0.00  0.00    +0.038 A 
ATOM      8  C13 UNL     1      15.557  14.590  36.236  0.00  0.00    +0.027 A 
ATOM      9  C14 UNL     1      14.257  14.941  35.861  0.00  0.00    +0.051 A 
ATOM     10  C15 UNL     1      13.208  14.041  36.063  0.00  0.00    +0.162 A 
ATOM     11  C16 UNL     1      13.453  12.800  36.661  0.00  0.00    +0.164 A 
ATOM     12  C17 UNL     1      14.755  12.439  37.025  0.00  0.00    +0.072 A 
ATOM     13  O3  UNL     1      12.382  11.931  36.886  0.00  0.00    -0.485 OA
ATOM     14  C18 UNL     1      11.030  12.384  36.786  0.00  0.00    +0.270 C 
ATOM     15  C19 UNL     1      10.882  13.364  35.615  0.00  0.00    +0.270 C 
ATOM     16  O4  UNL     1      11.904  14.362  35.674  0.00  0.00    -0.485 OA
ENDBRANCH   4   7
BRANCH   3  17
ATOM     17  C2  UNL     1      20.342  11.240  35.979  0.00  0.00    +0.142 C 
BRANCH  17  18
ATOM     18  C3  UNL     1      20.275   9.751  36.379  0.00  0.00    +0.168 C 
BRANCH  18  19
ATOM     19  C4  UNL     1      21.405   8.951  35.780  0.00  0.00    +0.021 A 
ATOM     20  C5  UNL     1      22.012   9.227  34.552  0.00  0.00    +0.022 A 
ATOM     21  C6  UNL     1      22.987   8.283  34.213  0.00  0.00    -0.010 A 
ATOM     22  C7  UNL     1      23.764   8.283  33.050  0.00  0.00    +0.009 A 
ATOM     23  C8  UNL     1      24.701   7.254  32.865  0.00  0.00    +0.001 A 
ATOM     24  C9  UNL     1      24.852   6.243  33.834  0.00  0.00    +0.001 A 
ATOM     25  C10 UNL     1      24.067   6.254  34.998  0.00  0.00    +0.015 A 
ATOM     26  C11 UNL     1      23.145   7.284  35.159  0.00  0.00    +0.020 A 
ATOM     27  S1  UNL     1      22.079   7.539  36.430  0.00  0.00    -0.091 S 
ENDBRANCH  18  19
BRANCH  18  28
ATOM     28  O2  UNL     1      19.023   9.186  36.075  0.00  0.00    -0.385 OA
ATOM     29  H5  UNL     1      19.019   8.939  35.115  0.00  0.00    +0.210 HD
ENDBRANCH  18  28
ENDBRANCH  17  18
ENDBRANCH   3  17
TORSDOF 5
ENDMDL
MODEL 2
REMARK VINA RESULT:    -7.033     11.373     14.022
REMARK INTER + INTRA:          -9.387
REMARK INTER:                  -8.780
REMARK INTRA:                  -0.606
REMARK UNBOUND:                -0.504
REMARK  Name = /home/qwerty/github/datacon2025hack/step_04_hit_selection/docking/ligands/lig_799.pdb
REMARK  5 active torsions:
REMARK  status: ('A' for Active; 'I' for Inactive)
REMARK    1  A    between atoms: N1_3  and  C2_4
REMARK    2  A    between atoms: C2_4  and  C3_5
REMARK    3  A    between atoms: C3_5  and  O2_6
REMARK    4  A    between atoms: C3_5  and  C4_7
REMARK    5  A    between atoms: N2_16  and  C12_17
REMARK                            x       y       z     vdW  Elec       q    Type
REMARK                         _______ _______ _______ _____ _____    ______ ____
ROOT
ATOM      1  O1  UNL     1      10.004  10.693  27.267  0.00  0.00    -0.253 OA
ATOM      2  C1  UNL     1       9.011  11.439  27.048  0.00  0.00    +0.304 C 
ATOM      3  N1  UNL     1       7.898  10.945  26.293  0.00  0.00    -0.296 N 
ATOM      4  N2  UNL     1       9.005  12.799  27.512  0.00  0.00    -0.269 N 
ATOM      5  H1  UNL     1       7.091  11.588  26.131  0.00  0.00    +0.150 HD
ATOM      6  H11 UNL     1       8.292  13.445  27.104  0.00  0.00    +0.156 HD
ENDROOT
BRANCH   4   7
ATOM      7  C12 UNL     1      10.001  13.357  28.384  0.00  0.00    +0.038 A 
ATOM      8  C13 UNL     1      11.048  14.118  27.835  0.00  0.00    +0.027 A 
ATOM      9  C14 UNL     1      12.022  14.685  28.662  0.00  0.00    +0.051 A 
ATOM     10  C15 UNL     1      11.947  14.514  30.046  0.00  0.00    +0.162 A 
ATOM     11  C16 UNL     1      10.910  13.756  30.603  0.00  0.00    +0.164 A 
ATOM     12  C17 UNL     1       9.926  13.198  29.781  0.00  0.00    +0.072 A 
ATOM     13  O3  UNL     1      10.875  13.569  31.988  0.00  0.00    -0.485 OA
ATOM     14  C18 UNL     1      12.006  13.883  32.804  0.00  0.00    +0.270 C 
ATOM     15  C19 UNL     1      12.684  15.165  32.304  0.00  0.00    +0.270 C 
ATOM     16  O4  UNL     1      12.897  15.093  30.892  0.00  0.00    -0.485 OA
ENDBRANCH   4   7
BRANCH   3  17
ATOM     17  C2  UNL     1       7.898   9.592  25.730  0.00  0.00    +0.142 C 
BRANCH  17  18
ATOM     18  C3  UNL     1       7.497   9.565  24.240  0.00  0.00    +0.168 C 
BRANCH  18  19
ATOM     19  C4  UNL     1       8.673   9.815  23.330  0.00  0.00    +0.021 A 
ATOM     20  C5  UNL     1       8.583  10.014  21.950  0.00  0.00    +0.022 A 
ATOM     21  C6  UNL     1       9.838  10.157  21.348  0.00  0.00    -0.010 A 
ATOM     22  C7  UNL     1      10.078  10.363  19.986  0.00  0.00    +0.009 A 
ATOM     23  C8  UNL     1      11.406  10.484  19.545  0.00  0.00    +0.001 A 
ATOM     24  C9  UNL     1      12.472  10.397  20.462  0.00  0.00    +0.001 A 
ATOM     25  C10 UNL     1      12.218  10.190  21.827  0.00  0.00    +0.015 A 
ATOM     26  C11 UNL     1      10.894  10.073  22.239  0.00  0.00    +0.020 A 
ATOM     27  S1  UNL     1      10.304   9.815  23.789  0.00  0.00    -0.091 S 
ENDBRANCH  18  19
BRANCH  18  28
ATOM     28  O2  UNL     1       6.437  10.450  23.970  0.00  0.00    -0.385 OA
ATOM     29  H5  UNL     1       6.821  11.336  23.748  0.00  0.00    +0.210 HD
ENDBRANCH  18  28
ENDBRANCH  17  18
ENDBRANCH   3  17
TORSDOF 5
ENDMDL
MODEL 3
REMARK VINA RESULT:    -6.929      2.909     10.407
REMARK INTER + INTRA:          -9.256
REMARK INTER:                  -8.904
REMARK INTRA:                  -0.352
REMARK UNBOUND:                -0.504
REMARK  Name = /home/qwerty/github/datacon2025hack/step_04_hit_selection/docking/ligands/lig_799.pdb
REMARK  5 active torsions:
REMARK  status: ('A' for Active; 'I' for Inactive)
REMARK    1  A    between atoms: N1_3  and  C2_4
REMARK    2  A    between atoms: C2_4  and  C3_5
REMARK    3  A    between atoms: C3_5  and  O2_6
REMARK    4  A    between atoms: C3_5  and  C4_7
REMARK    5  A    between atoms: N2_16  and  C12_17
REMARK                            x       y       z     vdW  Elec       q    Type
REMARK                         _______ _______ _______ _____ _____    ______ ____
ROOT
ATOM      1  O1  UNL     1      18.667   8.998  36.062  0.00  0.00    -0.253 OA
ATOM      2  C1  UNL     1      19.071   9.417  37.181  0.00  0.00    +0.304 C 
ATOM      3  N1  UNL     1      18.166  10.099  38.058  0.00  0.00    -0.296 N 
ATOM      4  N2  UNL     1      20.446   9.256  37.566  0.00  0.00    -0.269 N 
ATOM      5  H1  UNL     1      18.532  10.431  38.978  0.00  0.00    +0.150 HD
ATOM      6  H11 UNL     1      20.792   9.825  38.372  0.00  0.00    +0.156 HD
ENDROOT
BRANCH   4   7
ATOM      7  C12 UNL     1      21.403   8.478  36.829  0.00  0.00    +0.038 A 
ATOM      8  C13 UNL     1      21.808   7.229  37.331  0.00  0.00    +0.027 A 
ATOM      9  C14 UNL     1      22.727   6.445  36.627  0.00  0.00    +0.051 A 
ATOM     10  C15 UNL     1      23.233   6.894  35.406  0.00  0.00    +0.162 A 
ATOM     11  C16 UNL     1      22.839   8.137  34.897  0.00  0.00    +0.164 A 
ATOM     12  C17 UNL     1      21.910   8.919  35.591  0.00  0.00    +0.072 A 
ATOM     13  O3  UNL     1      23.386   8.581  33.690  0.00  0.00    -0.485 OA
ATOM     14  C18 UNL     1      24.529   7.941  33.118  0.00  0.00    +0.270 C 
ATOM     15  C19 UNL     1      24.442   6.422  33.312  0.00  0.00    +0.270 C 
ATOM     16  O4  UNL     1      24.134   6.114  34.674  0.00  0.00    -0.485 OA
ENDBRANCH   4   7
BRANCH   3  17
ATOM     17  C2  UNL     1      16.777  10.358  37.671  0.00  0.00    +0.142 C 
BRANCH  17  18
ATOM     18  C3  UNL     1      16.410  11.856  37.731  0.00  0.00    +0.168 C 
BRANCH  18  19
ATOM     19  C4  UNL     1      15.080  12.142  37.081  0.00  0.00    +0.021 A 
ATOM     20  C5  UNL     1      14.215  11.167  36.577  0.00  0.00    +0.022 A 
ATOM     21  C6  UNL     1      13.082  11.720  35.970  0.00  0.00    -0.010 A 
ATOM     22  C7  UNL     1      12.039  11.008  35.370  0.00  0.00    +0.009 A 
ATOM     23  C8  UNL     1      10.972  11.723  34.802  0.00  0.00    +0.001 A 
ATOM     24  C9  UNL     1      10.958  13.131  34.839  0.00  0.00    +0.001 A 
ATOM     25  C10 UNL     1      12.011  13.835  35.444  0.00  0.00    +0.015 A 
ATOM     26  C11 UNL     1      13.057  13.105  35.999  0.00  0.00    +0.020 A 
ATOM     27  S1  UNL     1      14.435  13.676  36.767  0.00  0.00    -0.091 S 
ENDBRANCH  18  19
BRANCH  18  28
ATOM     28  O2  UNL     1      17.431  12.664  37.198  0.00  0.00    -0.385 OA
ATOM     29  H5  UNL     1      17.072  13.580  37.082  0.00  0.00    +0.210 HD
ENDBRANCH  18  28
ENDBRANCH  17  18
ENDBRANCH   3  17
TORSDOF 5
ENDMDL
MODEL 4
REMARK VINA RESULT:    -6.928      8.567     10.655
REMARK INTER + INTRA:          -9.255
REMARK INTER:                  -8.529
REMARK INTRA:                  -0.725
REMARK UNBOUND:                -0.504
REMARK  Name = /home/qwerty/github/datacon2025hack/step_04_hit_selection/docking/ligands/lig_799.pdb
REMARK  5 active torsions:
REMARK  status: ('A' for Active; 'I' for Inactive)
REMARK    1  A    between atoms: N1_3  and  C2_4
REMARK    2  A    between atoms: C2_4  and  C3_5
REMARK    3  A    between atoms: C3_5  and  O2_6
REMARK    4  A    between atoms: C3_5  and  C4_7
REMARK    5  A    between atoms: N2_16  and  C12_17
REMARK                            x       y       z     vdW  Elec       q    Type
REMARK                         _______ _______ _______ _____ _____    ______ ____
ROOT
ATOM      1  O1  UNL     1      19.897   3.987  33.427  0.00  0.00    -0.253 OA
ATOM      2  C1  UNL     1      20.838   3.187  33.681  0.00  0.00    +0.304 C 
ATOM      3  N1  UNL     1      20.577   1.781  33.769  0.00  0.00    -0.296 N 
ATOM      4  N2  UNL     1      22.165   3.679  33.928  0.00  0.00    -0.269 N 
ATOM      5  H1  UNL     1      21.380   1.146  33.979  0.00  0.00    +0.150 HD
ATOM      6  H11 UNL     1      22.848   3.025  34.372  0.00  0.00    +0.156 HD
ENDROOT
BRANCH   4   7
ATOM      7  C12 UNL     1      22.566   5.046  33.738  0.00  0.00    +0.038 A 
ATOM      8  C13 UNL     1      22.831   5.847  34.863  0.00  0.00    +0.027 A 
ATOM      9  C14 UNL     1      23.237   7.176  34.708  0.00  0.00    +0.051 A 
ATOM     10  C15 UNL     1      23.402   7.709  33.427  0.00  0.00    +0.162 A 
ATOM     11  C16 UNL     1      23.138   6.921  32.301  0.00  0.00    +0.164 A 
ATOM     12  C17 UNL     1      22.744   5.587  32.451  0.00  0.00    +0.072 A 
ATOM     13  O3  UNL     1      23.275   7.486  31.030  0.00  0.00    -0.485 OA
ATOM     14  C18 UNL     1      23.396   8.900  30.860  0.00  0.00    +0.270 C 
ATOM     15  C19 UNL     1      24.268   9.498  31.972  0.00  0.00    +0.270 C 
ATOM     16  O4  UNL     1      23.831   9.028  33.250  0.00  0.00    -0.485 OA
ENDBRANCH   4   7
BRANCH   3  17
ATOM     17  C2  UNL     1      19.224   1.244  33.606  0.00  0.00    +0.142 C 
BRANCH  17  18
ATOM     18  C3  UNL     1      19.086   0.344  32.359  0.00  0.00    +0.168 C 
BRANCH  18  19
ATOM     19  C4  UNL     1      19.775   0.933  31.154  0.00  0.00    +0.021 A 
ATOM     20  C5  UNL     1      20.995   0.488  30.639  0.00  0.00    +0.022 A 
ATOM     21  C6  UNL     1      21.431   1.259  29.556  0.00  0.00    -0.010 A 
ATOM     22  C7  UNL     1      22.613   1.068  28.833  0.00  0.00    +0.009 A 
ATOM     23  C8  UNL     1      22.902   1.939  27.770  0.00  0.00    +0.001 A 
ATOM     24  C9  UNL     1      22.015   2.984  27.443  0.00  0.00    +0.001 A 
ATOM     25  C10 UNL     1      20.832   3.166  28.176  0.00  0.00    +0.015 A 
ATOM     26  C11 UNL     1      20.568   2.290  29.225  0.00  0.00    +0.020 A 
ATOM     27  S1  UNL     1      19.251   2.277  30.266  0.00  0.00    -0.091 S 
ENDBRANCH  18  19
BRANCH  18  28
ATOM     28  O2  UNL     1      17.740   0.036  32.087  0.00  0.00    -0.385 OA
ATOM     29  H5  UNL     1      17.415   0.659  31.389  0.00  0.00    +0.210 HD
ENDBRANCH  18  28
ENDBRANCH  17  18
ENDBRANCH   3  17
TORSDOF 5
ENDMDL
MODEL 5
REMARK VINA RESULT:    -6.814     12.457     14.763
REMARK INTER + INTRA:          -9.110
REMARK INTER:                  -8.414
REMARK INTRA:                  -0.696
REMARK UNBOUND:                -0.504
REMARK  Name = /home/qwerty/github/datacon2025hack/step_04_hit_selection/docking/ligands/lig_799.pdb
REMARK  5 active torsions:
REMARK  status: ('A' for Active; 'I' for Inactive)
REMARK    1  A    between atoms: N1_3  and  C2_4
REMARK    2  A    between atoms: C2_4  and  C3_5
REMARK    3  A    between atoms: C3_5  and  O2_6
REMARK    4  A    between atoms: C3_5  and  C4_7
REMARK    5  A    between atoms: N2_16  and  C12_17
REMARK                            x       y       z     vdW  Elec       q    Type
REMARK                         _______ _______ _______ _____ _____    ______ ____
ROOT
ATOM      1  O1  UNL     1      18.989   2.826  24.592  0.00  0.00    -0.253 OA
ATOM      2  C1  UNL     1      19.927   2.029  24.321  0.00  0.00    +0.304 C 
ATOM      3  N1  UNL     1      21.274   2.510  24.243  0.00  0.00    -0.296 N 
ATOM      4  N2  UNL     1      19.651   0.647  24.044  0.00  0.00    -0.269 N 
ATOM      5  H1  UNL     1      22.028   1.823  24.018  0.00  0.00    +0.150 HD
ATOM      6  H11 UNL     1      20.405   0.085  23.587  0.00  0.00    +0.156 HD
ENDROOT
BRANCH   4   7
ATOM      7  C12 UNL     1      18.364   0.031  24.220  0.00  0.00    +0.038 A 
ATOM      8  C13 UNL     1      17.678  -0.461  23.096  0.00  0.00    +0.027 A 
ATOM      9  C14 UNL     1      16.431  -1.078  23.240  0.00  0.00    +0.051 A 
ATOM     10  C15 UNL     1      15.871  -1.227  24.510  0.00  0.00    +0.162 A 
ATOM     11  C16 UNL     1      16.544  -0.739  25.636  0.00  0.00    +0.164 A 
ATOM     12  C17 UNL     1      17.797  -0.132  25.498  0.00  0.00    +0.072 A 
ATOM     13  O3  UNL     1      15.947  -0.867  26.893  0.00  0.00    -0.485 OA
ATOM     14  C18 UNL     1      14.568  -1.218  27.022  0.00  0.00    +0.270 C 
ATOM     15  C19 UNL     1      14.185  -2.269  25.973  0.00  0.00    +0.270 C 
ATOM     16  O4  UNL     1      14.637  -1.863  24.679  0.00  0.00    -0.485 OA
ENDBRANCH   4   7
BRANCH   3  17
ATOM     17  C2  UNL     1      21.591   3.927  24.437  0.00  0.00    +0.142 C 
BRANCH  17  18
ATOM     18  C3  UNL     1      22.476   4.176  25.677  0.00  0.00    +0.168 C 
BRANCH  18  19
ATOM     19  C4  UNL     1      21.960   3.459  26.898  0.00  0.00    +0.021 A 
ATOM     20  C5  UNL     1      22.518   2.295  27.433  0.00  0.00    +0.022 A 
ATOM     21  C6  UNL     1      21.795   1.810  28.528  0.00  0.00    -0.010 A 
ATOM     22  C7  UNL     1      22.098   0.665  29.272  0.00  0.00    +0.009 A 
ATOM     23  C8  UNL     1      21.262   0.316  30.346  0.00  0.00    +0.001 A 
ATOM     24  C9  UNL     1      20.142   1.109  30.663  0.00  0.00    +0.001 A 
ATOM     25  C10 UNL     1      19.848   2.256  29.909  0.00  0.00    +0.015 A 
ATOM     26  C11 UNL     1      20.690   2.580  28.850  0.00  0.00    +0.020 A 
ATOM     27  S1  UNL     1      20.577   3.872  27.785  0.00  0.00    -0.091 S 
ENDBRANCH  18  19
BRANCH  18  28
ATOM     28  O2  UNL     1      22.655   5.550  25.921  0.00  0.00    -0.385 OA
ATOM     29  H5  UNL     1      23.383   5.877  25.333  0.00  0.00    +0.210 HD
ENDBRANCH  18  28
ENDBRANCH  17  18
ENDBRANCH   3  17
TORSDOF 5
ENDMDL
MODEL 6
REMARK VINA RESULT:    -6.713     11.517     14.571
REMARK INTER + INTRA:          -8.983
REMARK INTER:                  -8.417
REMARK INTRA:                  -0.566
REMARK UNBOUND:                -0.504
REMARK  Name = /home/qwerty/github/datacon2025hack/step_04_hit_selection/docking/ligands/lig_799.pdb
REMARK  5 active torsions:
REMARK  status: ('A' for Active; 'I' for Inactive)
REMARK    1  A    between atoms: N1_3  and  C2_4
REMARK    2  A    between atoms: C2_4  and  C3_5
REMARK    3  A    between atoms: C3_5  and  O2_6
REMARK    4  A    between atoms: C3_5  and  C4_7
REMARK    5  A    between atoms: N2_16  and  C12_17
REMARK                            x       y       z     vdW  Elec       q    Type
REMARK                         _______ _______ _______ _____ _____    ______ ____
ROOT
ATOM      1  O1  UNL     1       9.575  10.896  26.666  0.00  0.00    -0.253 OA
ATOM      2  C1  UNL     1       8.371  10.661  26.958  0.00  0.00    +0.304 C 
ATOM      3  N1  UNL     1       7.846  11.085  28.221  0.00  0.00    -0.296 N 
ATOM      4  N2  UNL     1       7.532   9.929  26.051  0.00  0.00    -0.269 N 
ATOM      5  H1  UNL     1       6.844  10.876  28.431  0.00  0.00    +0.150 HD
ATOM      6  H11 UNL     1       6.635   9.544  26.426  0.00  0.00    +0.156 HD
ENDROOT
BRANCH   4   7
ATOM      7  C12 UNL     1       7.911   9.572  24.711  0.00  0.00    +0.038 A 
ATOM      8  C13 UNL     1       7.572  10.428  23.649  0.00  0.00    +0.027 A 
ATOM      9  C14 UNL     1       7.942  10.112  22.338  0.00  0.00    +0.051 A 
ATOM     10  C15 UNL     1       8.671   8.949  22.081  0.00  0.00    +0.162 A 
ATOM     11  C16 UNL     1       9.012   8.089  23.131  0.00  0.00    +0.164 A 
ATOM     12  C17 UNL     1       8.656   8.407  24.445  0.00  0.00    +0.072 A 
ATOM     13  O3  UNL     1       9.711   6.913  22.845  0.00  0.00    -0.485 OA
ATOM     14  C18 UNL     1       9.833   6.434  21.504  0.00  0.00    +0.270 C 
ATOM     15  C19 UNL     1      10.043   7.607  20.537  0.00  0.00    +0.270 C 
ATOM     16  O4  UNL     1       9.072   8.628  20.781  0.00  0.00    -0.485 OA
ENDBRANCH   4   7
BRANCH   3  17
ATOM     17  C2  UNL     1       8.689  11.761  29.210  0.00  0.00    +0.142 C 
BRANCH  17  18
ATOM     18  C3  UNL     1       8.790  13.283  28.968  0.00  0.00    +0.168 C 
BRANCH  18  19
ATOM     19  C4  UNL     1      10.220  13.743  28.833  0.00  0.00    +0.021 A 
ATOM     20  C5  UNL     1      10.823  14.124  27.632  0.00  0.00    +0.022 A 
ATOM     21  C6  UNL     1      12.176  14.442  27.790  0.00  0.00    -0.010 A 
ATOM     22  C7  UNL     1      13.049  14.852  26.778  0.00  0.00    +0.009 A 
ATOM     23  C8  UNL     1      14.385  15.131  27.110  0.00  0.00    +0.001 A 
ATOM     24  C9  UNL     1      14.831  14.998  28.439  0.00  0.00    +0.001 A 
ATOM     25  C10 UNL     1      13.946  14.585  29.447  0.00  0.00    +0.015 A 
ATOM     26  C11 UNL     1      12.628  14.314  29.093  0.00  0.00    +0.020 A 
ATOM     27  S1  UNL     1      11.369  13.800  30.077  0.00  0.00    -0.091 S 
ENDBRANCH  18  19
BRANCH  18  28
ATOM     28  O2  UNL     1       8.102  14.013  29.954  0.00  0.00    -0.385 OA
ATOM     29  H5  UNL     1       7.929  14.923  29.601  0.00  0.00    +0.210 HD
ENDBRANCH  18  28
ENDBRANCH  17  18
ENDBRANCH   3  17
TORSDOF 5
ENDMDL
MODEL 7
REMARK VINA RESULT:    -6.650      7.315     11.852
REMARK INTER + INTRA:          -8.903
REMARK INTER:                  -8.392
REMARK INTRA:                  -0.511
REMARK UNBOUND:                -0.504
REMARK  Name = /home/qwerty/github/datacon2025hack/step_04_hit_selection/docking/ligands/lig_799.pdb
REMARK  5 active torsions:
REMARK  status: ('A' for Active; 'I' for Inactive)
REMARK    1  A    between atoms: N1_3  and  C2_4
REMARK    2  A    between atoms: C2_4  and  C3_5
REMARK    3  A    between atoms: C3_5  and  O2_6
REMARK    4  A    between atoms: C3_5  and  C4_7
REMARK    5  A    between atoms: N2_16  and  C12_17
REMARK                            x       y       z     vdW  Elec       q    Type
REMARK                         _______ _______ _______ _____ _____    ______ ____
ROOT
ATOM      1  O1  UNL     1      11.295  12.401  31.117  0.00  0.00    -0.253 OA
ATOM      2  C1  UNL     1      10.903  13.598  31.049  0.00  0.00    +0.304 C 
ATOM      3  N1  UNL     1      10.177  14.047  29.899  0.00  0.00    -0.296 N 
ATOM      4  N2  UNL     1      11.219  14.528  32.097  0.00  0.00    -0.269 N 
ATOM      5  H1  UNL     1       9.865  15.044  29.875  0.00  0.00    +0.150 HD
ATOM      6  H11 UNL     1      11.098  15.546  31.892  0.00  0.00    +0.156 HD
ENDROOT
BRANCH   4   7
ATOM      7  C12 UNL     1      11.824  14.159  33.347  0.00  0.00    +0.038 A 
ATOM      8  C13 UNL     1      11.003  13.755  34.415  0.00  0.00    +0.027 A 
ATOM      9  C14 UNL     1      11.566  13.376  35.638  0.00  0.00    +0.051 A 
ATOM     10  C15 UNL     1      12.953  13.378  35.796  0.00  0.00    +0.162 A 
ATOM     11  C16 UNL     1      13.779  13.782  34.741  0.00  0.00    +0.164 A 
ATOM     12  C17 UNL     1      13.222  14.149  33.512  0.00  0.00    +0.072 A 
ATOM     13  O3  UNL     1      15.163  13.811  34.934  0.00  0.00    -0.485 OA
ATOM     14  C18 UNL     1      15.727  13.717  36.244  0.00  0.00    +0.270 C 
ATOM     15  C19 UNL     1      14.938  12.711  37.093  0.00  0.00    +0.270 C 
ATOM     16  O4  UNL     1      13.537  12.980  37.003  0.00  0.00    -0.485 OA
ENDBRANCH   4   7
BRANCH   3  17
ATOM     17  C2  UNL     1       9.904  13.154  28.770  0.00  0.00    +0.142 C 
BRANCH  17  18
ATOM     18  C3  UNL     1       8.396  12.892  28.567  0.00  0.00    +0.168 C 
BRANCH  18  19
ATOM     19  C4  UNL     1       8.061  11.423  28.630  0.00  0.00    +0.021 A 
ATOM     20  C5  UNL     1       7.666  10.746  29.787  0.00  0.00    +0.022 A 
ATOM     21  C6  UNL     1       7.483   9.376  29.568  0.00  0.00    -0.010 A 
ATOM     22  C7  UNL     1       7.095   8.435  30.526  0.00  0.00    +0.009 A 
ATOM     23  C8  UNL     1       6.960   7.092  30.137  0.00  0.00    +0.001 A 
ATOM     24  C9  UNL     1       7.211   6.707  28.806  0.00  0.00    +0.001 A 
ATOM     25  C10 UNL     1       7.600   7.661  27.853  0.00  0.00    +0.015 A 
ATOM     26  C11 UNL     1       7.728   8.985  28.263  0.00  0.00    +0.020 A 
ATOM     27  S1  UNL     1       8.183  10.319  27.351  0.00  0.00    -0.091 S 
ENDBRANCH  18  19
BRANCH  18  28
ATOM     28  O2  UNL     1       7.921  13.481  27.382  0.00  0.00    -0.385 OA
ATOM     29  H5  UNL     1       6.948  13.302  27.315  0.00  0.00    +0.210 HD
ENDBRANCH  18  28
ENDBRANCH  17  18
ENDBRANCH   3  17
TORSDOF 5
ENDMDL
MODEL 8
REMARK VINA RESULT:    -6.615     16.381     17.219
REMARK INTER + INTRA:          -8.859
REMARK INTER:                  -8.405
REMARK INTRA:                  -0.454
REMARK UNBOUND:                -0.504
REMARK  Name = /home/qwerty/github/datacon2025hack/step_04_hit_selection/docking/ligands/lig_799.pdb
REMARK  5 active torsions:
REMARK  status: ('A' for Active; 'I' for Inactive)
REMARK    1  A    between atoms: N1_3  and  C2_4
REMARK    2  A    between atoms: C2_4  and  C3_5
REMARK    3  A    between atoms: C3_5  and  O2_6
REMARK    4  A    between atoms: C3_5  and  C4_7
REMARK    5  A    between atoms: N2_16  and  C12_17
REMARK                            x       y       z     vdW  Elec       q    Type
REMARK                         _______ _______ _______ _____ _____    ______ ____
ROOT
ATOM      1  O1  UNL     1      13.016   4.303  21.409  0.00  0.00    -0.253 OA
ATOM      2  C1  UNL     1      12.847   4.109  20.174  0.00  0.00    +0.304 C 
ATOM      3  N1  UNL     1      13.753   3.268  19.451  0.00  0.00    -0.296 N 
ATOM      4  N2  UNL     1      11.776   4.764  19.475  0.00  0.00    -0.269 N 
ATOM      5  H1  UNL     1      13.583   3.127  18.430  0.00  0.00    +0.150 HD
ATOM      6  H11 UNL     1      11.817   4.777  18.430  0.00  0.00    +0.156 HD
ENDROOT
BRANCH   4   7
ATOM      7  C12 UNL     1      10.736   5.519  20.118  0.00  0.00    +0.038 A 
ATOM      8  C13 UNL     1       9.625   4.844  20.653  0.00  0.00    +0.027 A 
ATOM      9  C14 UNL     1       8.606   5.553  21.297  0.00  0.00    +0.051 A 
ATOM     10  C15 UNL     1       8.700   6.939  21.431  0.00  0.00    +0.162 A 
ATOM     11  C16 UNL     1       9.800   7.623  20.900  0.00  0.00    +0.164 A 
ATOM     12  C17 UNL     1      10.828   6.916  20.266  0.00  0.00    +0.072 A 
ATOM     13  O3  UNL     1       9.855   9.014  21.014  0.00  0.00    -0.485 OA
ATOM     14  C18 UNL     1       8.703   9.770  21.396  0.00  0.00    +0.270 C 
ATOM     15  C19 UNL     1       7.914   9.025  22.480  0.00  0.00    +0.270 C 
ATOM     16  O4  UNL     1       7.705   7.664  22.093  0.00  0.00    -0.485 OA
ENDBRANCH   4   7
BRANCH   3  17
ATOM     17  C2  UNL     1      14.906   2.647  20.107  0.00  0.00    +0.142 C 
BRANCH  17  18
ATOM     18  C3  UNL     1      14.812   1.107  20.149  0.00  0.00    +0.168 C 
BRANCH  18  19
ATOM     19  C4  UNL     1      15.358   0.539  21.435  0.00  0.00    +0.021 A 
ATOM     20  C5  UNL     1      16.087  -0.649  21.533  0.00  0.00    +0.022 A 
ATOM     21  C6  UNL     1      16.411  -0.970  22.856  0.00  0.00    -0.010 A 
ATOM     22  C7  UNL     1      17.127  -2.094  23.278  0.00  0.00    +0.009 A 
ATOM     23  C8  UNL     1      17.365  -2.266  24.652  0.00  0.00    +0.001 A 
ATOM     24  C9  UNL     1      16.887  -1.322  25.582  0.00  0.00    +0.001 A 
ATOM     25  C10 UNL     1      16.168  -0.198  25.146  0.00  0.00    +0.015 A 
ATOM     26  C11 UNL     1      15.945  -0.049  23.780  0.00  0.00    +0.020 A 
ATOM     27  S1  UNL     1      15.118   1.176  22.986  0.00  0.00    -0.091 S 
ENDBRANCH  18  19
BRANCH  18  28
ATOM     28  O2  UNL     1      15.417   0.517  19.024  0.00  0.00    -0.385 OA
ATOM     29  H5  UNL     1      16.396   0.654  19.092  0.00  0.00    +0.210 HD
ENDBRANCH  18  28
ENDBRANCH  17  18
ENDBRANCH   3  17
TORSDOF 5
ENDMDL
MODEL 9
REMARK VINA RESULT:    -6.525      1.832      2.099
REMARK INTER + INTRA:          -8.745
REMARK INTER:                  -8.253
REMARK INTRA:                  -0.492
REMARK UNBOUND:                -0.504
REMARK  Name = /home/qwerty/github/datacon2025hack/step_04_hit_selection/docking/ligands/lig_799.pdb
REMARK  5 active torsions:
REMARK  status: ('A' for Active; 'I' for Inactive)
REMARK    1  A    between atoms: N1_3  and  C2_4
REMARK    2  A    between atoms: C2_4  and  C3_5
REMARK    3  A    between atoms: C3_5  and  O2_6
REMARK    4  A    between atoms: C3_5  and  C4_7
REMARK    5  A    between atoms: N2_16  and  C12_17
REMARK                            x       y       z     vdW  Elec       q    Type
REMARK                         _______ _______ _______ _____ _____    ______ ____
ROOT
ATOM      1  O1  UNL     1      17.511   9.768  36.176  0.00  0.00    -0.253 OA
ATOM      2  C1  UNL     1      17.704  10.015  37.398  0.00  0.00    +0.304 C 
ATOM      3  N1  UNL     1      18.673   9.261  38.136  0.00  0.00    -0.296 N 
ATOM      4  N2  UNL     1      16.925  11.018  38.069  0.00  0.00    -0.269 N 
ATOM      5  H1  UNL     1      18.808   9.492  39.145  0.00  0.00    +0.150 HD
ATOM      6  H11 UNL     1      16.936  11.020  39.114  0.00  0.00    +0.156 HD
ENDROOT
BRANCH   4   7
ATOM      7  C12 UNL     1      16.024  11.919  37.403  0.00  0.00    +0.038 A 
ATOM      8  C13 UNL     1      16.519  13.129  36.887  0.00  0.00    +0.027 A 
ATOM      9  C14 UNL     1      15.668  14.017  36.221  0.00  0.00    +0.051 A 
ATOM     10  C15 UNL     1      14.321  13.693  36.048  0.00  0.00    +0.162 A 
ATOM     11  C16 UNL     1      13.817  12.492  36.560  0.00  0.00    +0.164 A 
ATOM     12  C17 UNL     1      14.667  11.594  37.215  0.00  0.00    +0.072 A 
ATOM     13  O3  UNL     1      12.458  12.205  36.406  0.00  0.00    -0.485 OA
ATOM     14  C18 UNL     1      11.532  13.215  36.001  0.00  0.00    +0.270 C 
ATOM     15  C19 UNL     1      12.165  14.123  34.938  0.00  0.00    +0.270 C 
ATOM     16  O4  UNL     1      13.459  14.555  35.364  0.00  0.00    -0.485 OA
ENDBRANCH   4   7
BRANCH   3  17
ATOM     17  C2  UNL     1      19.430   8.173  37.512  0.00  0.00    +0.142 C 
BRANCH  17  18
ATOM     18  C3  UNL     1      20.873   8.584  37.146  0.00  0.00    +0.168 C 
BRANCH  18  19
ATOM     19  C4  UNL     1      21.293   8.046  35.801  0.00  0.00    +0.021 A 
ATOM     20  C5  UNL     1      22.525   8.300  35.193  0.00  0.00    +0.022 A 
ATOM     21  C6  UNL     1      22.620   7.729  33.919  0.00  0.00    -0.010 A 
ATOM     22  C7  UNL     1      23.721   7.810  33.061  0.00  0.00    +0.009 A 
ATOM     23  C8  UNL     1      23.649   7.178  31.809  0.00  0.00    +0.001 A 
ATOM     24  C9  UNL     1      22.488   6.477  31.430  0.00  0.00    +0.001 A 
ATOM     25  C10 UNL     1      21.388   6.403  32.300  0.00  0.00    +0.015 A 
ATOM     26  C11 UNL     1      21.483   7.038  33.534  0.00  0.00    +0.020 A 
ATOM     27  S1  UNL     1      20.334   7.122  34.755  0.00  0.00    -0.091 S 
ENDBRANCH  18  19
BRANCH  18  28
ATOM     28  O2  UNL     1      21.787   8.229  38.154  0.00  0.00    -0.385 OA
ATOM     29  H5  UNL     1      21.614   7.288  38.412  0.00  0.00    +0.210 HD
ENDBRANCH  18  28
ENDBRANCH  17  18
ENDBRANCH   3  17
TORSDOF 5
ENDMDL
