REMARK  Name = /home/qwerty/github/datacon2025hack/step_04_hit_selection/docking/ligands/lig_388.pdb
REMARK  5 active torsions:
REMARK  status: ('A' for Active; 'I' for Inactive)
REMARK    1  A    between atoms: C1_1  and  C2_2
REMARK    2  A    between atoms: C2_2  and  C3_3
REMARK    3  A    between atoms: C3_3  and  N1_4
REMARK    4  A    between atoms: C3_3  and  C13_16
REMARK    5  A    between atoms: C4_5  and  C5_7
REMARK                            x       y       z     vdW  Elec       q    Type
REMARK                         _______ _______ _______ _____ _____    ______ ____
ROOT
ATOM      1  N1  UNL     1      -0.070  -0.028  -0.268  0.00  0.00    -0.308 N 
ATOM      2  C4  UNL     1       0.911   0.281  -1.271  0.00  0.00    +0.244 C 
ATOM      3  O1  UNL     1       0.537   0.584  -2.437  0.00  0.00    -0.270 OA
ATOM      4  H7  UNL     1       0.230  -0.083   0.730  0.00  0.00    +0.149 HD
ENDROOT
BRANCH   2   5
ATOM      5  C5  UNL     1       2.358   0.265  -0.955  0.00  0.00    +0.037 A 
ATOM      6  C6  UNL     1       3.257   1.056  -1.720  0.00  0.00    +0.015 A 
ATOM      7  C7  UNL     1       4.637   1.048  -1.446  0.00  0.00    +0.027 A 
ATOM      8  C8  UNL     1       5.091   0.235  -0.411  0.00  0.00    +0.046 A 
ATOM      9  N2  UNL     1       6.358   0.071   0.003  0.00  0.00    -0.361 N 
ATOM     10  C9  UNL     1       6.303  -0.825   1.015  0.00  0.00    +0.083 A 
ATOM     11  C10 UNL     1       4.992  -1.230   1.246  0.00  0.00    +0.027 A 
ATOM     12  C11 UNL     1       4.235  -0.539   0.324  0.00  0.00    +0.000 A 
ATOM     13  C12 UNL     1       2.864  -0.554   0.084  0.00  0.00    +0.023 A 
ATOM     14  H10 UNL     1       7.213   0.533  -0.380  0.00  0.00    +0.165 HD
ENDBRANCH   2   5
BRANCH   1  15
ATOM     15  C3  UNL     1      -1.486  -0.240  -0.601  0.00  0.00    +0.078 C 
BRANCH  15  16
ATOM     16  C13 UNL     1      -2.371   0.000   0.662  0.00  0.00    +0.035 C 
ATOM     17  C14 UNL     1      -3.876  -0.184   0.378  0.00  0.00    +0.010 C 
ATOM     18  C15 UNL     1      -4.709   0.101   1.636  0.00  0.00    +0.028 C 
ATOM     19  C16 UNL     1      -4.084   1.216   2.489  0.00  0.00    +0.160 C 
ATOM     20  O2  UNL     1      -3.307   2.078   1.685  0.00  0.00    -0.379 OA
ATOM     21  C17 UNL     1      -2.121   1.418   1.268  0.00  0.00    +0.165 C 
ENDBRANCH  15  16
BRANCH  15  23
ATOM     22  C1  UNL     1      -2.521  -1.675  -2.454  0.00  0.00    +0.006 C 
ATOM     23  C2  UNL     1      -1.654  -1.666  -1.194  0.00  0.00    +0.019 C 
ENDBRANCH  15  23
ENDBRANCH   1  15
TORSDOF 4
