MODEL 1
REMARK VINA RESULT:    -5.881      0.000      0.000
REMARK INTER + INTRA:          -6.223
REMARK INTER:                  -6.225
REMARK INTRA:                   0.002
REMARK UNBOUND:                 0.002
REMARK  Name = /home/qwerty/github/datacon2025hack/step_04_hit_selection/docking/ligands/lig_187.pdb
REMARK  1 active torsions:
REMARK  status: ('A' for Active; 'I' for Inactive)
REMARK    1  A    between atoms: N1_3  and  C2_4
REMARK                            x       y       z     vdW  Elec       q    Type
REMARK                         _______ _______ _______ _____ _____    ______ ____
ROOT
ATOM      1  O1  UNL     1      13.321   3.847  20.453  0.00  0.00    -0.252 OA
ATOM      2  C1  UNL     1      12.301   3.143  20.685  0.00  0.00    +0.309 C 
ATOM      3  N1  UNL     1      12.431   1.723  20.862  0.00  0.00    -0.269 N 
ATOM      4  N2  UNL     1      10.995   3.742  20.723  0.00  0.00    -0.252 N 
ATOM      5  C8  UNL     1      10.748   5.159  20.620  0.00  0.00    +0.163 A 
ATOM      6  N3  UNL     1      11.787   6.040  20.620  0.00  0.00    -0.234 NA
ATOM      7  C9  UNL     1      11.592   7.381  20.535  0.00  0.00    +0.153 A 
ATOM      8  C10 UNL     1      10.292   7.877  20.448  0.00  0.00    +0.149 A 
ATOM      9 CL1  UNL     1      10.001   9.601  20.338  0.00  0.00    -0.060 Cl
ATOM     10  N4  UNL     1       9.247   7.012  20.449  0.00  0.00    -0.219 NA
ATOM     11  C11 UNL     1       9.436   5.668  20.534  0.00  0.00    +0.171 A 
ATOM     12 CL2  UNL     1       8.022   4.624  20.520  0.00  0.00    -0.058 Cl
ATOM     13  H1  UNL     1      11.569   1.141  20.758  0.00  0.00    +0.156 HD
ATOM     14  H6  UNL     1      10.186   3.094  20.846  0.00  0.00    +0.158 HD
ENDROOT
BRANCH   3  15
ATOM     15  C2  UNL     1      13.683   1.045  21.057  0.00  0.00    +0.035 A 
ATOM     16  C3  UNL     1      13.952   0.437  22.295  0.00  0.00    +0.026 A 
ATOM     17  C4  UNL     1      15.172  -0.209  22.516  0.00  0.00    +0.040 A 
ATOM     18  C5  UNL     1      16.141  -0.241  21.510  0.00  0.00    +0.124 A 
ATOM     19  F1  UNL     1      17.324  -0.865  21.728  0.00  0.00    -0.205 F 
ATOM     20  C6  UNL     1      15.893   0.381  20.283  0.00  0.00    +0.040 A 
ATOM     21  C7  UNL     1      14.674   1.028  20.056  0.00  0.00    +0.026 A 
ENDBRANCH   3  15
TORSDOF 1
ENDMDL
MODEL 2
REMARK VINA RESULT:    -5.835      9.503     10.423
REMARK INTER + INTRA:          -6.174
REMARK INTER:                  -5.979
REMARK INTRA:                  -0.195
REMARK UNBOUND:                 0.002
REMARK  Name = /home/qwerty/github/datacon2025hack/step_04_hit_selection/docking/ligands/lig_187.pdb
REMARK  1 active torsions:
REMARK  status: ('A' for Active; 'I' for Inactive)
REMARK    1  A    between atoms: N1_3  and  C2_4
REMARK                            x       y       z     vdW  Elec       q    Type
REMARK                         _______ _______ _______ _____ _____    ______ ____
ROOT
ATOM      1  O1  UNL     1      21.049   5.397  25.239  0.00  0.00    -0.252 OA
ATOM      2  C1  UNL     1      21.836   4.817  24.443  0.00  0.00    +0.309 C 
ATOM      3  N1  UNL     1      22.435   3.564  24.808  0.00  0.00    -0.269 N 
ATOM      4  N2  UNL     1      22.184   5.427  23.188  0.00  0.00    -0.252 N 
ATOM      5  C8  UNL     1      21.602   6.648  22.690  0.00  0.00    +0.163 A 
ATOM      6  N3  UNL     1      20.560   7.231  23.345  0.00  0.00    -0.234 NA
ATOM      7  C9  UNL     1      19.980   8.375  22.898  0.00  0.00    +0.153 A 
ATOM      8  C10 UNL     1      20.461   8.975  21.736  0.00  0.00    +0.149 A 
ATOM      9 CL1  UNL     1      19.739  10.452  21.129  0.00  0.00    -0.060 Cl
ATOM     10  N4  UNL     1      21.498   8.406  21.072  0.00  0.00    -0.219 NA
ATOM     11  C11 UNL     1      22.082   7.260  21.513  0.00  0.00    +0.171 A 
ATOM     12 CL2  UNL     1      23.426   6.599  20.591  0.00  0.00    -0.058 Cl
ATOM     13  H1  UNL     1      23.285   3.261  24.280  0.00  0.00    +0.156 HD
ATOM     14  H6  UNL     1      22.897   4.931  22.608  0.00  0.00    +0.158 HD
ENDROOT
BRANCH   3  15
ATOM     15  C2  UNL     1      22.011   2.760  25.921  0.00  0.00    +0.035 A 
ATOM     16  C3  UNL     1      22.708   2.847  27.138  0.00  0.00    +0.026 A 
ATOM     17  C4  UNL     1      22.328   2.059  28.229  0.00  0.00    +0.040 A 
ATOM     18  C5  UNL     1      21.260   1.165  28.110  0.00  0.00    +0.124 A 
ATOM     19  F1  UNL     1      20.896   0.400  29.167  0.00  0.00    -0.205 F 
ATOM     20  C6  UNL     1      20.576   1.054  26.897  0.00  0.00    +0.040 A 
ATOM     21  C7  UNL     1      20.951   1.841  25.803  0.00  0.00    +0.026 A 
ENDBRANCH   3  15
TORSDOF 1
ENDMDL
MODEL 3
REMARK VINA RESULT:    -5.828     18.356     19.706
REMARK INTER + INTRA:          -6.167
REMARK INTER:                  -6.197
REMARK INTRA:                   0.030
REMARK UNBOUND:                 0.002
REMARK  Name = /home/qwerty/github/datacon2025hack/step_04_hit_selection/docking/ligands/lig_187.pdb
REMARK  1 active torsions:
REMARK  status: ('A' for Active; 'I' for Inactive)
REMARK    1  A    between atoms: N1_3  and  C2_4
REMARK                            x       y       z     vdW  Elec       q    Type
REMARK                         _______ _______ _______ _____ _____    ______ ____
ROOT
ATOM      1  O1  UNL     1      20.185   9.667  35.452  0.00  0.00    -0.252 OA
ATOM      2  C1  UNL     1      20.283   9.243  36.636  0.00  0.00    +0.309 C 
ATOM      3  N1  UNL     1      19.421   9.762  37.660  0.00  0.00    -0.269 N 
ATOM      4  N2  UNL     1      21.289   8.277  36.983  0.00  0.00    -0.252 N 
ATOM      5  C8  UNL     1      22.167   7.641  36.032  0.00  0.00    +0.163 A 
ATOM      6  N3  UNL     1      21.987   7.831  34.695  0.00  0.00    -0.234 NA
ATOM      7  C9  UNL     1      22.788   7.240  33.771  0.00  0.00    +0.153 A 
ATOM      8  C10 UNL     1      23.826   6.413  34.197  0.00  0.00    +0.149 A 
ATOM      9 CL1  UNL     1      24.880   5.634  33.035  0.00  0.00    -0.060 Cl
ATOM     10  N4  UNL     1      24.017   6.214  35.525  0.00  0.00    -0.219 NA
ATOM     11  C11 UNL     1      23.218   6.801  36.456  0.00  0.00    +0.171 A 
ATOM     12 CL2  UNL     1      23.546   6.490  38.154  0.00  0.00    -0.058 Cl
ATOM     13  H1  UNL     1      19.710   9.621  38.655  0.00  0.00    +0.156 HD
ATOM     14  H6  UNL     1      21.365   8.022  37.993  0.00  0.00    +0.158 HD
ENDROOT
BRANCH   3  15
ATOM     15  C2  UNL     1      18.252  10.559  37.405  0.00  0.00    +0.035 A 
ATOM     16  C3  UNL     1      18.398  11.829  36.823  0.00  0.00    +0.026 A 
ATOM     17  C4  UNL     1      17.278  12.632  36.585  0.00  0.00    +0.040 A 
ATOM     18  C5  UNL     1      16.004  12.181  36.941  0.00  0.00    +0.124 A 
ATOM     19  F1  UNL     1      14.920  12.962  36.713  0.00  0.00    -0.205 F 
ATOM     20  C6  UNL     1      15.851  10.929  37.542  0.00  0.00    +0.040 A 
ATOM     21  C7  UNL     1      16.967  10.122  37.781  0.00  0.00    +0.026 A 
ENDBRANCH   3  15
TORSDOF 1
ENDMDL
MODEL 4
REMARK VINA RESULT:    -5.763     13.736     14.833
REMARK INTER + INTRA:          -6.099
REMARK INTER:                  -5.903
REMARK INTRA:                  -0.195
REMARK UNBOUND:                 0.002
REMARK  Name = /home/qwerty/github/datacon2025hack/step_04_hit_selection/docking/ligands/lig_187.pdb
REMARK  1 active torsions:
REMARK  status: ('A' for Active; 'I' for Inactive)
REMARK    1  A    between atoms: N1_3  and  C2_4
REMARK                            x       y       z     vdW  Elec       q    Type
REMARK                         _______ _______ _______ _____ _____    ______ ____
ROOT
ATOM      1  O1  UNL     1      17.694   1.553  32.716  0.00  0.00    -0.252 OA
ATOM      2  C1  UNL     1      18.340   0.792  33.487  0.00  0.00    +0.309 C 
ATOM      3  N1  UNL     1      19.650   0.336  33.115  0.00  0.00    -0.269 N 
ATOM      4  N2  UNL     1      17.755   0.332  34.716  0.00  0.00    -0.252 N 
ATOM      5  C8  UNL     1      16.477   0.769  35.221  0.00  0.00    +0.163 A 
ATOM      6  N3  UNL     1      15.801   1.777  34.602  0.00  0.00    -0.234 NA
ATOM      7  C9  UNL     1      14.601   2.222  35.056  0.00  0.00    +0.153 A 
ATOM      8  C10 UNL     1      14.039   1.634  36.188  0.00  0.00    +0.149 A 
ATOM      9 CL1  UNL     1      12.492   2.181  36.802  0.00  0.00    -0.060 Cl
ATOM     10  N4  UNL     1      14.701   0.630  36.815  0.00  0.00    -0.219 NA
ATOM     11  C11 UNL     1      15.903   0.181  36.367  0.00  0.00    +0.171 A 
ATOM     12 CL2  UNL     1      16.683  -1.130  37.241  0.00  0.00    -0.058 Cl
ATOM     13  H1  UNL     1      20.030  -0.503  33.611  0.00  0.00    +0.156 HD
ATOM     14  H6  UNL     1      18.312  -0.353  35.273  0.00  0.00    +0.158 HD
ENDROOT
BRANCH   3  15
ATOM     15  C2  UNL     1      20.420   0.884  32.032  0.00  0.00    +0.035 A 
ATOM     16  C3  UNL     1      20.423   0.231  30.789  0.00  0.00    +0.026 A 
ATOM     17  C4  UNL     1      21.181   0.733  29.727  0.00  0.00    +0.040 A 
ATOM     18  C5  UNL     1      21.956   1.883  29.901  0.00  0.00    +0.124 A 
ATOM     19  F1  UNL     1      22.693   2.366  28.872  0.00  0.00    -0.205 F 
ATOM     20  C6  UNL     1      21.979   2.527  31.141  0.00  0.00    +0.040 A 
ATOM     21  C7  UNL     1      21.222   2.029  32.206  0.00  0.00    +0.026 A 
ENDBRANCH   3  15
TORSDOF 1
ENDMDL
MODEL 5
REMARK VINA RESULT:    -5.641     10.678     12.321
REMARK INTER + INTRA:          -5.969
REMARK INTER:                  -5.958
REMARK INTRA:                  -0.011
REMARK UNBOUND:                 0.002
REMARK  Name = /home/qwerty/github/datacon2025hack/step_04_hit_selection/docking/ligands/lig_187.pdb
REMARK  1 active torsions:
REMARK  status: ('A' for Active; 'I' for Inactive)
REMARK    1  A    between atoms: N1_3  and  C2_4
REMARK                            x       y       z     vdW  Elec       q    Type
REMARK                         _______ _______ _______ _____ _____    ______ ____
ROOT
ATOM      1  O1  UNL     1      22.218   3.615  24.814  0.00  0.00    -0.252 OA
ATOM      2  C1  UNL     1      21.975   4.752  25.304  0.00  0.00    +0.309 C 
ATOM      3  N1  UNL     1      22.016   5.920  24.469  0.00  0.00    -0.269 N 
ATOM      4  N2  UNL     1      21.709   4.898  26.709  0.00  0.00    -0.252 N 
ATOM      5  C8  UNL     1      21.583   3.796  27.630  0.00  0.00    +0.163 A 
ATOM      6  N3  UNL     1      21.575   2.514  27.172  0.00  0.00    -0.234 NA
ATOM      7  C9  UNL     1      21.447   1.452  28.010  0.00  0.00    +0.153 A 
ATOM      8  C10 UNL     1      21.319   1.676  29.380  0.00  0.00    +0.149 A 
ATOM      9 CL1  UNL     1      21.152   0.332  30.491  0.00  0.00    -0.060 Cl
ATOM     10  N4  UNL     1      21.323   2.948  29.850  0.00  0.00    -0.219 NA
ATOM     11  C11 UNL     1      21.450   4.015  29.018  0.00  0.00    +0.171 A 
ATOM     12 CL2  UNL     1      21.453   5.627  29.719  0.00  0.00    -0.058 Cl
ATOM     13  H1  UNL     1      22.104   6.849  24.939  0.00  0.00    +0.156 HD
ATOM     14  H6  UNL     1      21.588   5.873  27.064  0.00  0.00    +0.158 HD
ENDROOT
BRANCH   3  15
ATOM     15  C2  UNL     1      22.059   5.884  23.032  0.00  0.00    +0.035 A 
ATOM     16  C3  UNL     1      23.030   6.639  22.353  0.00  0.00    +0.026 A 
ATOM     17  C4  UNL     1      23.077   6.638  20.956  0.00  0.00    +0.040 A 
ATOM     18  C5  UNL     1      22.146   5.897  20.223  0.00  0.00    +0.124 A 
ATOM     19  F1  UNL     1      22.192   5.900  18.869  0.00  0.00    -0.205 F 
ATOM     20  C6  UNL     1      21.161   5.163  20.889  0.00  0.00    +0.040 A 
ATOM     21  C7  UNL     1      21.110   5.159  22.286  0.00  0.00    +0.026 A 
ENDBRANCH   3  15
TORSDOF 1
ENDMDL
MODEL 6
REMARK VINA RESULT:    -5.609      5.124      8.318
REMARK INTER + INTRA:          -5.935
REMARK INTER:                  -6.105
REMARK INTRA:                   0.169
REMARK UNBOUND:                 0.002
REMARK  Name = /home/qwerty/github/datacon2025hack/step_04_hit_selection/docking/ligands/lig_187.pdb
REMARK  1 active torsions:
REMARK  status: ('A' for Active; 'I' for Inactive)
REMARK    1  A    between atoms: N1_3  and  C2_4
REMARK                            x       y       z     vdW  Elec       q    Type
REMARK                         _______ _______ _______ _____ _____    ______ ____
ROOT
ATOM      1  O1  UNL     1      12.745   1.112  22.787  0.00  0.00    -0.252 OA
ATOM      2  C1  UNL     1      13.209   1.261  21.624  0.00  0.00    +0.309 C 
ATOM      3  N1  UNL     1      12.520   2.090  20.675  0.00  0.00    -0.269 N 
ATOM      4  N2  UNL     1      14.398   0.563  21.219  0.00  0.00    -0.252 N 
ATOM      5  C8  UNL     1      15.205  -0.246  22.099  0.00  0.00    +0.163 A 
ATOM      6  N3  UNL     1      14.944  -0.277  23.436  0.00  0.00    -0.234 NA
ATOM      7  C9  UNL     1      15.690  -1.019  24.296  0.00  0.00    +0.153 A 
ATOM      8  C10 UNL     1      16.754  -1.771  23.802  0.00  0.00    +0.149 A 
ATOM      9 CL1  UNL     1      17.738  -2.739  24.881  0.00  0.00    -0.060 Cl
ATOM     10  N4  UNL     1      17.027  -1.748  22.473  0.00  0.00    -0.219 NA
ATOM     11  C11 UNL     1      16.286  -1.007  21.607  0.00  0.00    +0.171 A 
ATOM     12 CL2  UNL     1      16.709  -1.045  19.902  0.00  0.00    -0.058 Cl
ATOM     13  H1  UNL     1      12.752   1.964  19.663  0.00  0.00    +0.156 HD
ATOM     14  H6  UNL     1      14.689   0.671  20.222  0.00  0.00    +0.158 HD
ENDROOT
BRANCH   3  15
ATOM     15  C2  UNL     1      11.457   2.996  21.015  0.00  0.00    +0.035 A 
ATOM     16  C3  UNL     1      10.348   2.518  21.733  0.00  0.00    +0.026 A 
ATOM     17  C4  UNL     1       9.292   3.374  22.056  0.00  0.00    +0.040 A 
ATOM     18  C5  UNL     1       9.324   4.712  21.653  0.00  0.00    +0.124 A 
ATOM     19  F1  UNL     1       8.298   5.539  21.964  0.00  0.00    -0.205 F 
ATOM     20  C6  UNL     1      10.412   5.191  20.917  0.00  0.00    +0.040 A 
ATOM     21  C7  UNL     1      11.472   4.339  20.592  0.00  0.00    +0.026 A 
ENDBRANCH   3  15
TORSDOF 1
ENDMDL
MODEL 7
REMARK VINA RESULT:    -5.580      2.593      3.565
REMARK INTER + INTRA:          -5.904
REMARK INTER:                  -5.975
REMARK INTRA:                   0.070
REMARK UNBOUND:                 0.002
REMARK  Name = /home/qwerty/github/datacon2025hack/step_04_hit_selection/docking/ligands/lig_187.pdb
REMARK  1 active torsions:
REMARK  status: ('A' for Active; 'I' for Inactive)
REMARK    1  A    between atoms: N1_3  and  C2_4
REMARK                            x       y       z     vdW  Elec       q    Type
REMARK                         _______ _______ _______ _____ _____    ______ ____
ROOT
ATOM      1  O1  UNL     1      12.109   5.718  21.846  0.00  0.00    -0.252 OA
ATOM      2  C1  UNL     1      12.343   6.196  20.703  0.00  0.00    +0.309 C 
ATOM      3  N1  UNL     1      13.269   5.538  19.823  0.00  0.00    -0.269 N 
ATOM      4  N2  UNL     1      11.728   7.427  20.288  0.00  0.00    -0.252 N 
ATOM      5  C8  UNL     1      10.740   8.141  21.057  0.00  0.00    +0.163 A 
ATOM      6  N3  UNL     1      10.224   7.593  22.192  0.00  0.00    -0.234 NA
ATOM      7  C9  UNL     1       9.284   8.232  22.936  0.00  0.00    +0.153 A 
ATOM      8  C10 UNL     1       8.830   9.486  22.531  0.00  0.00    +0.149 A 
ATOM      9 CL1  UNL     1       7.619  10.341  23.464  0.00  0.00    -0.060 Cl
ATOM     10  N4  UNL     1       9.334  10.044  21.401  0.00  0.00    -0.219 NA
ATOM     11  C11 UNL     1      10.274   9.409  20.652  0.00  0.00    +0.171 A 
ATOM     12 CL2  UNL     1      10.874  10.214  19.209  0.00  0.00    -0.058 Cl
ATOM     13  H1  UNL     1      13.660   6.094  19.029  0.00  0.00    +0.156 HD
ATOM     14  H6  UNL     1      12.019   7.807  19.359  0.00  0.00    +0.158 HD
ENDROOT
BRANCH   3  15
ATOM     15  C2  UNL     1      13.777   4.210  20.032  0.00  0.00    +0.035 A 
ATOM     16  C3  UNL     1      15.139   3.950  19.807  0.00  0.00    +0.026 A 
ATOM     17  C4  UNL     1      15.651   2.661  19.982  0.00  0.00    +0.040 A 
ATOM     18  C5  UNL     1      14.807   1.617  20.367  0.00  0.00    +0.124 A 
ATOM     19  F1  UNL     1      15.306   0.368  20.533  0.00  0.00    -0.205 F 
ATOM     20  C6  UNL     1      13.446   1.860  20.570  0.00  0.00    +0.040 A 
ATOM     21  C7  UNL     1      12.928   3.147  20.398  0.00  0.00    +0.026 A 
ENDBRANCH   3  15
TORSDOF 1
ENDMDL
MODEL 8
REMARK VINA RESULT:    -5.537      3.839      4.811
REMARK INTER + INTRA:          -5.859
REMARK INTER:                  -5.664
REMARK INTRA:                  -0.195
REMARK UNBOUND:                 0.002
REMARK  Name = /home/qwerty/github/datacon2025hack/step_04_hit_selection/docking/ligands/lig_187.pdb
REMARK  1 active torsions:
REMARK  status: ('A' for Active; 'I' for Inactive)
REMARK    1  A    between atoms: N1_3  and  C2_4
REMARK                            x       y       z     vdW  Elec       q    Type
REMARK                         _______ _______ _______ _____ _____    ______ ____
ROOT
ATOM      1  O1  UNL     1      13.058   0.402  23.294  0.00  0.00    -0.252 OA
ATOM      2  C1  UNL     1      12.536   0.284  24.436  0.00  0.00    +0.309 C 
ATOM      3  N1  UNL     1      13.174  -0.521  25.439  0.00  0.00    -0.269 N 
ATOM      4  N2  UNL     1      11.275   0.909  24.730  0.00  0.00    -0.252 N 
ATOM      5  C8  UNL     1      10.574   1.788  23.826  0.00  0.00    +0.163 A 
ATOM      6  N3  UNL     1      11.160   2.189  22.664  0.00  0.00    -0.234 NA
ATOM      7  C9  UNL     1      10.534   3.024  21.794  0.00  0.00    +0.153 A 
ATOM      8  C10 UNL     1       9.255   3.487  22.095  0.00  0.00    +0.149 A 
ATOM      9 CL1  UNL     1       8.416   4.565  20.999  0.00  0.00    -0.060 Cl
ATOM     10  N4  UNL     1       8.659   3.097  23.250  0.00  0.00    -0.219 NA
ATOM     11  C11 UNL     1       9.280   2.263  24.125  0.00  0.00    +0.171 A 
ATOM     12 CL2  UNL     1       8.427   1.805  25.592  0.00  0.00    -0.058 Cl
ATOM     13  H1  UNL     1      12.594  -0.837  26.249  0.00  0.00    +0.156 HD
ATOM     14  H6  UNL     1      10.862   0.713  25.668  0.00  0.00    +0.158 HD
ENDROOT
BRANCH   3  15
ATOM     15  C2  UNL     1      14.521  -1.015  25.343  0.00  0.00    +0.035 A 
ATOM     16  C3  UNL     1      14.743  -2.326  24.891  0.00  0.00    +0.026 A 
ATOM     17  C4  UNL     1      16.043  -2.836  24.809  0.00  0.00    +0.040 A 
ATOM     18  C5  UNL     1      17.131  -2.048  25.193  0.00  0.00    +0.124 A 
ATOM     19  F1  UNL     1      18.389  -2.545  25.117  0.00  0.00    -0.205 F 
ATOM     20  C6  UNL     1      16.918  -0.750  25.667  0.00  0.00    +0.040 A 
ATOM     21  C7  UNL     1      15.621  -0.235  25.749  0.00  0.00    +0.026 A 
ENDBRANCH   3  15
TORSDOF 1
ENDMDL
MODEL 9
REMARK VINA RESULT:    -5.488     16.815     17.369
REMARK INTER + INTRA:          -5.807
REMARK INTER:                  -5.706
REMARK INTRA:                  -0.101
REMARK UNBOUND:                 0.002
REMARK  Name = /home/qwerty/github/datacon2025hack/step_04_hit_selection/docking/ligands/lig_187.pdb
REMARK  1 active torsions:
REMARK  status: ('A' for Active; 'I' for Inactive)
REMARK    1  A    between atoms: N1_3  and  C2_4
REMARK                            x       y       z     vdW  Elec       q    Type
REMARK                         _______ _______ _______ _____ _____    ______ ____
ROOT
ATOM      1  O1  UNL     1      15.672  10.260  35.603  0.00  0.00    -0.252 OA
ATOM      2  C1  UNL     1      15.130  10.048  36.722  0.00  0.00    +0.309 C 
ATOM      3  N1  UNL     1      15.773   9.195  37.682  0.00  0.00    -0.269 N 
ATOM      4  N2  UNL     1      13.844  10.611  37.027  0.00  0.00    -0.252 N 
ATOM      5  C8  UNL     1      13.134  11.527  36.169  0.00  0.00    +0.163 A 
ATOM      6  N3  UNL     1      13.732  12.026  35.051  0.00  0.00    -0.234 NA
ATOM      7  C9  UNL     1      13.097  12.899  34.226  0.00  0.00    +0.153 A 
ATOM      8  C10 UNL     1      11.797  13.300  34.528  0.00  0.00    +0.149 A 
ATOM      9 CL1  UNL     1      10.947  14.425  33.487  0.00  0.00    -0.060 Cl
ATOM     10  N4  UNL     1      11.190  12.813  35.639  0.00  0.00    -0.219 NA
ATOM     11  C11 UNL     1      11.819  11.940  36.469  0.00  0.00    +0.171 A 
ATOM     12 CL2  UNL     1      10.950  11.356  37.881  0.00  0.00    -0.058 Cl
ATOM     13  H1  UNL     1      15.185   8.806  38.455  0.00  0.00    +0.156 HD
ATOM     14  H6  UNL     1      13.417  10.338  37.940  0.00  0.00    +0.158 HD
ENDROOT
BRANCH   3  15
ATOM     15  C2  UNL     1      17.137   8.751  37.584  0.00  0.00    +0.035 A 
ATOM     16  C3  UNL     1      17.411   7.375  37.527  0.00  0.00    +0.026 A 
ATOM     17  C4  UNL     1      18.731   6.919  37.454  0.00  0.00    +0.040 A 
ATOM     18  C5  UNL     1      19.789   7.831  37.453  0.00  0.00    +0.124 A 
ATOM     19  F1  UNL     1      21.067   7.387  37.386  0.00  0.00    -0.205 F 
ATOM     20  C6  UNL     1      19.528   9.202  37.534  0.00  0.00    +0.040 A 
ATOM     21  C7  UNL     1      18.210   9.663  37.606  0.00  0.00    +0.026 A 
ENDBRANCH   3  15
TORSDOF 1
ENDMDL
