REMARK  Name = /home/qwerty/github/datacon2025hack/step_04_hit_selection/docking/ligands/lig_418.pdb
REMARK  8 active torsions:
REMARK  status: ('A' for Active; 'I' for Inactive)
REMARK    1  A    between atoms: C1_1  and  C2_2
REMARK    2  A    between atoms: C2_2  and  C3_3
REMARK    3  A    between atoms: C2_2  and  N2_18
REMARK    4  A    between atoms: C3_3  and  C4_4
REMARK    5  A    between atoms: N1_6  and  C5_7
REMARK    6  A    between atoms: C7_9  and  C8_10
REMARK    7  A    between atoms: N2_18  and  C12_19
REMARK    8  A    between atoms: C12_19  and  C13_20
REMARK                            x       y       z     vdW  Elec       q    Type
REMARK                         _______ _______ _______ _____ _____    ______ ____
ROOT
ATOM      1  C3  UNL     1       0.048   2.816  -0.602  0.00  0.00    +0.114 C 
ENDROOT
BRANCH   1   2
ATOM      2  C4  UNL     1       1.274   2.184  -1.191  0.00  0.00    +0.219 C 
ATOM      3  O1  UNL     1       1.301   1.917  -2.423  0.00  0.00    -0.275 OA
ATOM      4  N1  UNL     1       2.369   1.809  -0.342  0.00  0.00    -0.284 N 
ATOM      5  H7  UNL     1       2.245   1.897   0.692  0.00  0.00    +0.155 HD
BRANCH   4   6
ATOM      6  C5  UNL     1       3.488   1.053  -0.820  0.00  0.00    +0.052 A 
ATOM      7  C6  UNL     1       3.754  -0.201  -0.252  0.00  0.00    +0.037 A 
ATOM      8  C7  UNL     1       4.833  -0.981  -0.704  0.00  0.00    +0.057 A 
ATOM      9  C9  UNL     1       5.676  -0.464  -1.701  0.00  0.00    +0.014 A 
ATOM     10  C10 UNL     1       5.433   0.796  -2.251  0.00  0.00    +0.022 A 
ATOM     11  C11 UNL     1       4.348   1.562  -1.814  0.00  0.00    +0.062 A 
ATOM     12 CL1  UNL     1       4.148   3.185  -2.462  0.00  0.00    -0.082 Cl
BRANCH   8  13
ATOM     13  C8  UNL     1       5.149  -2.308  -0.059  0.00  0.00    +0.417 C 
ATOM     14  F1  UNL     1       6.090  -2.116   0.936  0.00  0.00    -0.166 F 
ATOM     15  F2  UNL     1       4.014  -2.873   0.498  0.00  0.00    -0.166 F 
ATOM     16  F3  UNL     1       5.656  -3.191  -0.997  0.00  0.00    -0.166 F 
ENDBRANCH   8  13
ENDBRANCH   4   6
ENDBRANCH   1   2
BRANCH   1  18
ATOM     17  C1  UNL     1      -2.287   2.410   0.255  0.00  0.00    +0.024 C 
ATOM     18  C2  UNL     1      -0.977   1.745  -0.199  0.00  0.00    +0.060 C 
BRANCH  18  19
ATOM     19  N2  UNL     1      -0.405   0.899   0.874  0.00  0.00    -0.305 NA
ATOM     20  H11 UNL     1      -0.821   1.115   1.811  0.00  0.00    +0.123 HD
BRANCH  19  21
ATOM     21  C12 UNL     1      -0.516  -0.540   0.600  0.00  0.00    +0.178 C 
BRANCH  21  22
ATOM     22  C13 UNL     1      -1.936  -1.008   0.689  0.00  0.00    +0.211 A 
ATOM     23  N3  UNL     1      -2.728  -1.198  -0.401  0.00  0.00    -0.212 NA
ATOM     24  C14 UNL     1      -3.888  -1.575   0.162  0.00  0.00    +0.111 A 
ATOM     25  C15 UNL     1      -5.080  -1.909  -0.475  0.00  0.00    +0.051 A 
ATOM     26  C16 UNL     1      -6.173  -2.279   0.335  0.00  0.00    +0.043 A 
ATOM     27 CL2  UNL     1      -7.697  -2.722  -0.407  0.00  0.00    -0.083 Cl
ATOM     28  C17 UNL     1      -6.042  -2.301   1.745  0.00  0.00    +0.024 A 
ATOM     29  C18 UNL     1      -4.821  -1.955   2.353  0.00  0.00    +0.050 A 
ATOM     30  C19 UNL     1      -3.766  -1.598   1.518  0.00  0.00    +0.155 A 
ATOM     31  O2  UNL     1      -2.551  -1.242   1.837  0.00  0.00    -0.438 OA
ENDBRANCH  21  22
ENDBRANCH  19  21
ENDBRANCH  18  19
ENDBRANCH   1  18
TORSDOF 7
