REMARK  Name = /home/qwerty/github/datacon2025hack/step_04_hit_selection/docking/ligands/lig_785.pdb
REMARK  6 active torsions:
REMARK  status: ('A' for Active; 'I' for Inactive)
REMARK    1  A    between atoms: C1_1  and  C2_2
REMARK    2  A    between atoms: C6_8  and  C7_9
REMARK    3  A    between atoms: C7_9  and  N2_10
REMARK    4  A    between atoms: C8_11  and  C9_12
REMARK    5  A    between atoms: N3_22  and  C17_23
REMARK    6  A    between atoms: C20_26  and  C21_27
REMARK                            x       y       z     vdW  Elec       q    Type
REMARK                         _______ _______ _______ _____ _____    ______ ____
ROOT
ATOM      1  N2  UNL     1       0.095   0.747  -0.685  0.00  0.00    -0.319 N 
ATOM      2  C8  UNL     1      -0.553   1.889  -1.091  0.00  0.00    +0.059 A 
ATOM      3  C15 UNL     1       0.216   3.051  -1.027  0.00  0.00    +0.075 A 
ATOM      4  S1  UNL     1       1.740   2.645  -0.454  0.00  0.00    -0.057 S 
ATOM      5  C16 UNL     1       1.380   1.004  -0.321  0.00  0.00    +0.174 A 
ATOM      6  N3  UNL     1       2.185   0.084   0.130  0.00  0.00    -0.224 NA
ENDROOT
BRANCH   2   7
ATOM      7  C9  UNL     1      -1.938   1.919  -1.609  0.00  0.00    +0.017 A 
ATOM      8  C10 UNL     1      -2.245   1.230  -2.794  0.00  0.00    +0.011 A 
ATOM      9  C11 UNL     1      -3.544   1.247  -3.307  0.00  0.00    +0.001 A 
ATOM     10  C12 UNL     1      -4.545   1.968  -2.653  0.00  0.00    +0.001 A 
ATOM     11  C13 UNL     1      -4.248   2.679  -1.488  0.00  0.00    +0.020 A 
ATOM     12  C14 UNL     1      -2.949   2.667  -0.964  0.00  0.00    +0.050 A 
ATOM     13 CL1  UNL     1      -2.639   3.564   0.519  0.00  0.00    -0.083 Cl
ENDBRANCH   2   7
BRANCH   6  14
ATOM     14  C17 UNL     1       3.560   0.253   0.507  0.00  0.00    +0.067 A 
ATOM     15  C18 UNL     1       4.468   0.955  -0.303  0.00  0.00    +0.028 A 
ATOM     16  C19 UNL     1       5.810   1.066   0.072  0.00  0.00    +0.015 A 
ATOM     17  C20 UNL     1       6.275   0.452   1.250  0.00  0.00    +0.037 A 
ATOM     18  C22 UNL     1       5.365  -0.269   2.043  0.00  0.00    +0.015 A 
ATOM     19  C23 UNL     1       4.024  -0.379   1.665  0.00  0.00    +0.028 A 
BRANCH  17  20
ATOM     20  C21 UNL     1       7.695   0.562   1.667  0.00  0.00    +0.242 C 
ATOM     21  N4  UNL     1       8.732   0.850   0.725  0.00  0.00    -0.325 N 
ATOM     22  O2  UNL     1       8.005   0.385   2.876  0.00  0.00    -0.270 OA
ATOM     23  H20 UNL     1       9.713   0.984   1.056  0.00  0.00    +0.145 HD
ATOM     24  H21 UNL     1       8.559   0.838  -0.304  0.00  0.00    +0.145 HD
ENDBRANCH  17  20
ENDBRANCH   6  14
BRANCH   1  25
ATOM     25  C7  UNL     1      -0.510  -0.596  -0.601  0.00  0.00    +0.129 C 
BRANCH  25  33
ATOM     26  C1  UNL     1      -4.262  -3.564  -1.321  0.00  0.00    +0.109 C 
ATOM     27  C2  UNL     1      -2.871  -3.284  -0.838  0.00  0.00    +0.212 C 
ATOM     28  O1  UNL     1      -1.905  -3.640  -1.566  0.00  0.00    -0.276 OA
ATOM     29  N1  UNL     1      -2.621  -2.613   0.419  0.00  0.00    -0.301 N 
ATOM     30  C3  UNL     1      -3.650  -1.819   1.106  0.00  0.00    +0.108 C 
ATOM     31  C4  UNL     1      -3.281  -0.337   1.026  0.00  0.00    +0.019 C 
ATOM     32  C5  UNL     1      -1.852  -0.095   1.545  0.00  0.00    +0.008 C 
ATOM     33  C6  UNL     1      -0.803  -1.006   0.863  0.00  0.00    +0.026 C 
ATOM     34  C24 UNL     1      -1.254  -2.478   0.941  0.00  0.00    +0.113 C 
ENDBRANCH  25  33
ENDBRANCH   1  25
TORSDOF 5
