REMARK  Name = /home/qwerty/github/datacon2025hack/step_04_hit_selection/docking/ligands/lig_609.pdb
REMARK  9 active torsions:
REMARK  status: ('A' for Active; 'I' for Inactive)
REMARK    1  A    between atoms: C1_1  and  C2_2
REMARK    2  A    between atoms: C2_2  and  C3_3
REMARK    3  A    between atoms: C2_2  and  N1_10
REMARK    4  A    between atoms: N1_10  and  C9_11
REMARK    5  A    between atoms: C10_12  and  C11_14
REMARK    6  A    between atoms: C11_14  and  S1_15
REMARK    7  A    between atoms: S1_15  and  C12_17
REMARK    8  A    between atoms: C12_17  and  C13_18
REMARK    9  A    between atoms: C15_21  and  C16_22
REMARK                            x       y       z     vdW  Elec       q    Type
REMARK                         _______ _______ _______ _____ _____    ______ ____
ROOT
ATOM      1  C11 UNL     1      -0.913   2.100   1.241  0.00  0.00    +0.199 C 
ENDROOT
BRANCH   1   4
ATOM      2  N1  UNL     1      -2.356   0.043   0.656  0.00  0.00    -0.297 N 
ATOM      3  C9  UNL     1      -2.208  -1.413   0.541  0.00  0.00    +0.132 C 
ATOM      4  C10 UNL     1      -1.477   0.741   1.562  0.00  0.00    +0.228 C 
ATOM      5  O1  UNL     1      -1.123   0.180   2.635  0.00  0.00    -0.275 OA
BRANCH   2   7
ATOM      6  C1  UNL     1      -3.046   0.839  -1.583  0.00  0.00    +0.033 C 
ATOM      7  C2  UNL     1      -3.409   0.756  -0.093  0.00  0.00    +0.103 C 
BRANCH   7   8
ATOM      8  C3  UNL     1      -4.774   0.145   0.191  0.00  0.00    -0.027 A 
ATOM      9  C4  UNL     1      -5.401   0.442   1.415  0.00  0.00    +0.007 A 
ATOM     10  C5  UNL     1      -6.639  -0.120   1.738  0.00  0.00    +0.020 A 
ATOM     11  C6  UNL     1      -7.264  -0.997   0.847  0.00  0.00    +0.041 A 
ATOM     12 CL1  UNL     1      -8.817  -1.704   1.256  0.00  0.00    -0.084 Cl
ATOM     13  C7  UNL     1      -6.647  -1.314  -0.365  0.00  0.00    +0.020 A 
ATOM     14  C8  UNL     1      -5.408  -0.755  -0.692  0.00  0.00    +0.007 A 
ENDBRANCH   7   8
ENDBRANCH   2   7
ENDBRANCH   1   4
BRANCH   1  15
ATOM     15  S1  UNL     1       0.863   2.017   0.896  0.00  0.00    +0.037 S 
ATOM     16  O2  UNL     1       1.471   1.404   2.151  0.00  0.00    -0.256 OA
BRANCH  15  17
ATOM     17  C12 UNL     1       1.059   0.736  -0.362  0.00  0.00    +0.160 C 
BRANCH  17  18
ATOM     18  C13 UNL     1       2.456   0.758  -0.890  0.00  0.00    +0.061 A 
ATOM     19  C14 UNL     1       2.843   1.529  -1.982  0.00  0.00    +0.071 A 
ATOM     20  S2  UNL     1       4.493   1.303  -2.203  0.00  0.00    -0.075 S 
ATOM     21  C15 UNL     1       4.651   0.246  -0.898  0.00  0.00    +0.109 A 
ATOM     22  N2  UNL     1       3.458   0.060  -0.289  0.00  0.00    -0.243 NA
BRANCH  21  23
ATOM     23  C16 UNL     1       5.906  -0.400  -0.452  0.00  0.00    +0.007 A 
ATOM     24  C17 UNL     1       7.114  -0.194  -1.145  0.00  0.00    +0.010 A 
ATOM     25  C18 UNL     1       8.292  -0.813  -0.715  0.00  0.00    +0.001 A 
ATOM     26  C19 UNL     1       8.278  -1.641   0.410  0.00  0.00    +0.000 A 
ATOM     27  C20 UNL     1       7.087  -1.852   1.107  0.00  0.00    +0.001 A 
ATOM     28  C21 UNL     1       5.906  -1.236   0.681  0.00  0.00    +0.010 A 
ENDBRANCH  21  23
ENDBRANCH  17  18
ENDBRANCH  15  17
ENDBRANCH   1  15
TORSDOF 7
