REMARK  Name = /home/qwerty/github/datacon2025hack/step_04_hit_selection/docking/ligands/lig_482.pdb
REMARK  9 active torsions:
REMARK  status: ('A' for Active; 'I' for Inactive)
REMARK    1  A    between atoms: C1_1  and  C2_2
REMARK    2  A    between atoms: C2_2  and  C3_3
REMARK    3  A    between atoms: C3_3  and  C4_4
REMARK    4  A    between atoms: C3_3  and  N1_5
REMARK    5  A    between atoms: C5_6  and  C6_8
REMARK    6  A    between atoms: C10_12  and  C11_13
REMARK    7  A    between atoms: C11_13  and  N2_14
REMARK    8  A    between atoms: C12_15  and  C13_16
REMARK    9  A    between atoms: C20_27  and  C21_28
REMARK                            x       y       z     vdW  Elec       q    Type
REMARK                         _______ _______ _______ _____ _____    ______ ____
ROOT
ATOM      1  N2  UNL     1      -2.458  -1.325  -0.243  0.00  0.00    -0.290 N 
ATOM      2  C12 UNL     1      -3.087  -2.515  -0.081  0.00  0.00    +0.182 A 
ATOM      3  N4  UNL     1      -4.414  -2.350   0.080  0.00  0.00    -0.126 NA
ATOM      4  N5  UNL     1      -4.657  -1.050   0.038  0.00  0.00    -0.113 NA
ATOM      5  C17 UNL     1      -3.474  -0.435  -0.150  0.00  0.00    +0.220 A 
ATOM      6  N6  UNL     1      -3.354   0.995  -0.279  0.00  0.00    -0.299 N 
ATOM      7  C18 UNL     1      -2.305   1.784   0.354  0.00  0.00    +0.108 C 
ATOM      8  C19 UNL     1      -2.699   3.241   0.150  0.00  0.00    +0.024 C 
ATOM      9  C20 UNL     1      -4.196   3.218  -0.165  0.00  0.00    +0.005 C 
ATOM     10  C21 UNL     1      -4.611   4.324  -1.141  0.00  0.00    +0.009 C 
ATOM     11  C22 UNL     1      -4.475   1.817  -0.709  0.00  0.00    +0.111 C 
ENDROOT
BRANCH   2  12
ATOM     12  C13 UNL     1      -2.462  -3.853  -0.121  0.00  0.00    +0.084 A 
ATOM     13  C14 UNL     1      -1.173  -4.183   0.265  0.00  0.00    +0.031 A 
ATOM     14  C15 UNL     1      -1.060  -5.551   0.110  0.00  0.00    +0.020 A 
ATOM     15  C16 UNL     1      -2.279  -5.999  -0.354  0.00  0.00    +0.083 A 
ATOM     16  N3  UNL     1      -3.130  -4.966  -0.482  0.00  0.00    -0.358 N 
ATOM     17  H19 UNL     1      -4.125  -5.024  -0.796  0.00  0.00    +0.165 HD
ENDBRANCH   2  12
BRANCH   1  18
ATOM     18  C11 UNL     1      -1.068  -1.084  -0.647  0.00  0.00    +0.161 C 
BRANCH  18  23
ATOM     19  C6  UNL     1       2.106  -0.276   1.312  0.00  0.00    +0.037 A 
ATOM     20  C7  UNL     1       1.634  -0.300   2.636  0.00  0.00    +0.013 A 
ATOM     21  C8  UNL     1       0.292  -0.571   2.904  0.00  0.00    +0.001 A 
ATOM     22  C9  UNL     1      -0.597  -0.826   1.860  0.00  0.00    +0.005 A 
ATOM     23  C10 UNL     1      -0.150  -0.806   0.525  0.00  0.00    -0.027 A 
ATOM     24  C23 UNL     1       1.204  -0.539   0.264  0.00  0.00    +0.018 A 
BRANCH  19  26
ATOM     25  N1  UNL     1       3.987   0.458  -0.239  0.00  0.00    -0.309 N 
ATOM     26  C5  UNL     1       3.543  -0.015   1.045  0.00  0.00    +0.244 C 
ATOM     27  O1  UNL     1       4.384  -0.198   1.968  0.00  0.00    -0.270 OA
ATOM     28  H10 UNL     1       3.289   0.831  -0.921  0.00  0.00    +0.149 HD
BRANCH  25  29
ATOM     29  C3  UNL     1       5.394   0.428  -0.654  0.00  0.00    +0.070 C 
ATOM     30  C4  UNL     1       5.557  -0.561  -1.811  0.00  0.00    +0.028 C 
BRANCH  29  32
ATOM     31  C1  UNL     1       5.834   2.814   0.101  0.00  0.00    +0.005 C 
ATOM     32  C2  UNL     1       5.859   1.835  -1.073  0.00  0.00    +0.018 C 
ENDBRANCH  29  32
ENDBRANCH  25  29
ENDBRANCH  19  26
ENDBRANCH  18  23
ENDBRANCH   1  18
TORSDOF 6
