REMARK  Name = /home/qwerty/github/datacon2025hack/step_04_hit_selection/docking/ligands/lig_339.pdb
REMARK  10 active torsions:
REMARK  status: ('A' for Active; 'I' for Inactive)
REMARK    1  A    between atoms: C1_1  and  C2_2
REMARK    2  A    between atoms: C2_2  and  C3_3
REMARK    3  A    between atoms: C3_3  and  C4_4
REMARK    4  A    between atoms: C3_3  and  C5_5
REMARK    5  A    between atoms: N4_12  and  C9_13
REMARK    6  A    between atoms: C9_13  and  C10_14
REMARK    7  A    between atoms: C11_18  and  C12_19
REMARK    8  A    between atoms: N5_21  and  C14_22
REMARK    9  A    between atoms: C14_22  and  C15_23
REMARK   10  A    between atoms: C15_23  and  N6_24
REMARK                            x       y       z     vdW  Elec       q    Type
REMARK                         _______ _______ _______ _____ _____    ______ ____
ROOT
ATOM      1  C5  UNL     1      -1.060   2.254  -1.124  0.00  0.00    +0.138 A 
ATOM      2  N1  UNL     1      -0.128   2.570  -2.044  0.00  0.00    -0.132 NA
ATOM      3  N2  UNL     1       0.935   1.819  -1.811  0.00  0.00    -0.113 NA
ATOM      4  C6  UNL     1       0.649   1.062  -0.739  0.00  0.00    +0.220 A 
ATOM      5  N3  UNL     1       1.535   0.032  -0.265  0.00  0.00    -0.297 N 
ATOM      6  C7  UNL     1       1.827  -0.116   1.168  0.00  0.00    +0.123 C 
ATOM      7  C8  UNL     1       3.301  -0.508   1.444  0.00  0.00    +0.104 C 
ATOM      8  N4  UNL     1       4.027  -1.029   0.259  0.00  0.00    -0.289 NA
ATOM      9  C11 UNL     1       3.119  -1.830  -0.595  0.00  0.00    +0.071 C 
ATOM     10  C12 UNL     1       3.881  -2.678  -1.624  0.00  0.00    +0.026 C 
ATOM     11  C13 UNL     1       2.055  -0.933  -1.242  0.00  0.00    +0.126 C 
ATOM     12  N5  UNL     1      -0.602   1.300  -0.270  0.00  0.00    -0.298 N 
ENDROOT
BRANCH   1  13
ATOM     13  C3  UNL     1      -2.419   2.929  -1.119  0.00  0.00    +0.054 C 
ATOM     14  C4  UNL     1      -3.571   1.935  -1.316  0.00  0.00    +0.015 C 
BRANCH  13  16
ATOM     15  C1  UNL     1      -1.620   4.978   0.172  0.00  0.00    +0.004 C 
ATOM     16  C2  UNL     1      -2.637   3.838   0.109  0.00  0.00    +0.007 C 
ENDBRANCH  13  16
ENDBRANCH   1  13
BRANCH   8  17
ATOM     17  C9  UNL     1       4.761   0.050  -0.453  0.00  0.00    +0.198 C 
BRANCH  17  18
ATOM     18  C10 UNL     1       6.218   0.090   0.010  0.00  0.00    +0.402 C 
ATOM     19  F1  UNL     1       6.293   0.351   1.366  0.00  0.00    -0.169 F 
ATOM     20  F2  UNL     1       6.827  -1.126  -0.249  0.00  0.00    -0.169 F 
ATOM     21  F3  UNL     1       6.893   1.086  -0.673  0.00  0.00    -0.169 F 
ENDBRANCH  17  18
ENDBRANCH   8  17
BRANCH  12  22
ATOM     22  C14 UNL     1      -1.323   0.560   0.775  0.00  0.00    +0.141 C 
BRANCH  22  23
ATOM     23  C15 UNL     1      -1.705  -0.843   0.286  0.00  0.00    +0.106 C 
BRANCH  23  24
ATOM     24  N6  UNL     1      -2.207  -1.663   1.412  0.00  0.00    -0.301 NA
ATOM     25  C16 UNL     1      -3.635  -1.409   1.674  0.00  0.00    +0.084 C 
ATOM     26  C17 UNL     1      -4.452  -2.497   0.981  0.00  0.00    +0.017 C 
ATOM     27  C18 UNL     1      -3.439  -3.490   0.446  0.00  0.00    +0.017 C 
ATOM     28  C19 UNL     1      -2.132  -3.098   1.104  0.00  0.00    +0.084 C 
ENDBRANCH  23  24
ENDBRANCH  22  23
ENDBRANCH  12  22
TORSDOF 7
