REMARK  Name = /home/qwerty/github/datacon2025hack/step_04_hit_selection/docking/ligands/lig_422.pdb
REMARK  4 active torsions:
REMARK  status: ('A' for Active; 'I' for Inactive)
REMARK    1  A    between atoms: C1_1  and  N1_2
REMARK    2  A    between atoms: C3_4  and  C4_5
REMARK    3  A    between atoms: C7_10  and  N3_11
REMARK    4  A    between atoms: C8_12  and  C9_14
REMARK                            x       y       z     vdW  Elec       q    Type
REMARK                         _______ _______ _______ _____ _____    ______ ____
ROOT
ATOM      1  N3  UNL     1      -1.242  -0.947   0.654  0.00  0.00    -0.307 N 
ATOM      2  C8  UNL     1      -2.142  -1.319  -0.402  0.00  0.00    +0.244 C 
ATOM      3  O2  UNL     1      -1.775  -2.164  -1.264  0.00  0.00    -0.270 OA
ATOM      4  H10 UNL     1      -1.622  -0.442   1.485  0.00  0.00    +0.149 HD
ENDROOT
BRANCH   2   5
ATOM      5  C9  UNL     1      -3.504  -0.739  -0.488  0.00  0.00    +0.037 A 
ATOM      6  C10 UNL     1      -4.526  -1.434  -1.189  0.00  0.00    +0.015 A 
ATOM      7  C11 UNL     1      -5.823  -0.900  -1.292  0.00  0.00    +0.027 A 
ATOM      8  C12 UNL     1      -6.070   0.331  -0.692  0.00  0.00    +0.046 A 
ATOM      9  N4  UNL     1      -7.225   1.016  -0.678  0.00  0.00    -0.361 N 
ATOM     10  C13 UNL     1      -6.972   2.152   0.010  0.00  0.00    +0.083 A 
ATOM     11  C14 UNL     1      -5.648   2.188   0.435  0.00  0.00    +0.027 A 
ATOM     12  C15 UNL     1      -5.091   1.014  -0.024  0.00  0.00    +0.000 A 
ATOM     13  C16 UNL     1      -3.796   0.517   0.098  0.00  0.00    +0.023 A 
ATOM     14  H13 UNL     1      -8.133   0.734  -1.111  0.00  0.00    +0.165 HD
ENDBRANCH   2   5
BRANCH   1  20
ATOM     15  C4  UNL     1       3.341   0.138  -0.704  0.00  0.00    +0.268 C 
ATOM     16  O1  UNL     1       3.105   0.510  -1.885  0.00  0.00    -0.268 OA
ATOM     17  N2  UNL     1       2.266  -0.407   0.087  0.00  0.00    -0.294 N 
ATOM     18  C5  UNL     1       2.327  -0.676   1.515  0.00  0.00    +0.110 C 
ATOM     19  C6  UNL     1       0.894  -0.974   1.938  0.00  0.00    +0.043 C 
ATOM     20  C7  UNL     1       0.166  -1.360   0.646  0.00  0.00    +0.092 C 
ATOM     21  C17 UNL     1       0.949  -0.671  -0.469  0.00  0.00    +0.130 C 
BRANCH  15  25
ATOM     22  C1  UNL     1       8.206   1.149  -0.304  0.00  0.00    +0.174 C 
ATOM     23  N1  UNL     1       6.836   0.747  -0.021  0.00  0.00    -0.254 N 
ATOM     24  C2  UNL     1       5.781   0.860  -0.843  0.00  0.00    +0.143 A 
ATOM     25  C3  UNL     1       4.718   0.274  -0.186  0.00  0.00    +0.167 A 
ATOM     26  N5  UNL     1       5.164  -0.191   1.000  0.00  0.00    -0.125 NA
ATOM     27  N6  UNL     1       6.454   0.105   1.071  0.00  0.00    -0.065 NA
ENDBRANCH  15  25
ENDBRANCH   1  20
TORSDOF 3
