MODEL 1
REMARK VINA RESULT:    -6.907      0.000      0.000
REMARK INTER + INTRA:          -9.865
REMARK INTER:                  -8.724
REMARK INTRA:                  -1.141
REMARK UNBOUND:                -1.141
REMARK  Name = /home/qwerty/github/datacon2025hack/step_04_hit_selection/docking/ligands/lig_132.pdb
REMARK  6 active torsions:
REMARK  status: ('A' for Active; 'I' for Inactive)
REMARK    1  A    between atoms: C1_1  and  C2_2
REMARK    2  A    between atoms: C5_5  and  C6_6
REMARK    3  A    between atoms: N1_8  and  C7_9
REMARK    4  A    between atoms: C9_11  and  C10_12
REMARK    5  A    between atoms: C13_18  and  N2_19
REMARK    6  A    between atoms: C19_25  and  O2_26
REMARK                            x       y       z     vdW  Elec       q    Type
REMARK                         _______ _______ _______ _____ _____    ______ ____
ROOT
ATOM      1  C7  UNL     1       8.450  10.443  27.012  0.00  0.00    +0.055 A 
ATOM      2  C8  UNL     1       8.383  11.776  27.455  0.00  0.00    +0.037 A 
ATOM      3  C9  UNL     1       8.077  12.077  28.793  0.00  0.00    +0.057 A 
ATOM      4  C11 UNL     1       7.779  11.029  29.675  0.00  0.00    +0.014 A 
ATOM      5  C12 UNL     1       7.831   9.704  29.244  0.00  0.00    +0.025 A 
ATOM      6  C13 UNL     1       8.169   9.398  27.918  0.00  0.00    +0.051 A 
ENDROOT
BRANCH   6   7
ATOM      7  N2  UNL     1       8.255   8.023  27.507  0.00  0.00    -0.328 N 
ATOM      8  C14 UNL     1       9.518   7.285  27.617  0.00  0.00    +0.105 C 
ATOM      9  C15 UNL     1       9.317   6.047  28.496  0.00  0.00    +0.019 C 
ATOM     10  C16 UNL     1       8.128   5.212  28.003  0.00  0.00    +0.003 C 
ATOM     11  C17 UNL     1       6.849   6.058  27.932  0.00  0.00    +0.019 C 
ATOM     12  C18 UNL     1       7.065   7.296  27.054  0.00  0.00    +0.105 C 
ENDBRANCH   6   7
BRANCH   1  15
ATOM     13  C6  UNL     1      10.039  10.050  25.085  0.00  0.00    +0.253 C 
ATOM     14  O1  UNL     1      11.027   9.945  25.863  0.00  0.00    -0.270 OA
ATOM     15  N1  UNL     1       8.712  10.152  25.629  0.00  0.00    -0.280 N 
ATOM     16  H6  UNL     1       7.906   9.900  25.016  0.00  0.00    +0.155 HD
BRANCH  13  21
ATOM     17  C1  UNL     1      10.898  10.032  19.376  0.00  0.00    +0.066 C 
ATOM     18  C2  UNL     1      10.658  10.026  20.853  0.00  0.00    +0.042 A 
ATOM     19  C3  UNL     1       9.370  10.216  21.360  0.00  0.00    +0.024 A 
ATOM     20  C4  UNL     1       9.170  10.219  22.742  0.00  0.00    +0.020 A 
ATOM     21  C5  UNL     1      10.254  10.035  23.617  0.00  0.00    +0.098 A 
ATOM     22  C19 UNL     1      11.538   9.854  23.060  0.00  0.00    +0.225 A 
ATOM     23  N3  UNL     1      11.700   9.856  21.709  0.00  0.00    -0.218 NA
BRANCH  22  24
ATOM     24  O2  UNL     1      12.649   9.658  23.878  0.00  0.00    -0.492 OA
ATOM     25  H20 UNL     1      13.464   9.162  23.538  0.00  0.00    +0.294 HD
ENDBRANCH  22  24
ENDBRANCH  13  21
ENDBRANCH   1  15
BRANCH   3  26
ATOM     26  C10 UNL     1       7.964  13.512  29.244  0.00  0.00    +0.417 C 
ATOM     27  F1  UNL     1       7.813  14.357  28.158  0.00  0.00    -0.166 F 
ATOM     28  F2  UNL     1       6.869  13.677  30.075  0.00  0.00    -0.166 F 
ATOM     29  F3  UNL     1       9.110  13.863  29.933  0.00  0.00    -0.166 F 
ENDBRANCH   3  26
TORSDOF 5
ENDMDL
MODEL 2
REMARK VINA RESULT:    -6.862     14.346     16.285
REMARK INTER + INTRA:          -9.809
REMARK INTER:                  -8.697
REMARK INTRA:                  -1.112
REMARK UNBOUND:                -1.141
REMARK  Name = /home/qwerty/github/datacon2025hack/step_04_hit_selection/docking/ligands/lig_132.pdb
REMARK  6 active torsions:
REMARK  status: ('A' for Active; 'I' for Inactive)
REMARK    1  A    between atoms: C1_1  and  C2_2
REMARK    2  A    between atoms: C5_5  and  C6_6
REMARK    3  A    between atoms: N1_8  and  C7_9
REMARK    4  A    between atoms: C9_11  and  C10_12
REMARK    5  A    between atoms: C13_18  and  N2_19
REMARK    6  A    between atoms: C19_25  and  O2_26
REMARK                            x       y       z     vdW  Elec       q    Type
REMARK                         _______ _______ _______ _____ _____    ______ ____
ROOT
ATOM      1  C7  UNL     1      21.697   2.599  31.442  0.00  0.00    +0.055 A 
ATOM      2  C8  UNL     1      22.309   1.859  30.415  0.00  0.00    +0.037 A 
ATOM      3  C9  UNL     1      21.749   0.652  29.963  0.00  0.00    +0.057 A 
ATOM      4  C11 UNL     1      20.597   0.159  30.593  0.00  0.00    +0.014 A 
ATOM      5  C12 UNL     1      19.988   0.879  31.621  0.00  0.00    +0.025 A 
ATOM      6  C13 UNL     1      20.525   2.101  32.050  0.00  0.00    +0.051 A 
ENDROOT
BRANCH   6   7
ATOM      7  N2  UNL     1      19.857   2.844  33.084  0.00  0.00    -0.328 N 
ATOM      8  C14 UNL     1      18.823   3.830  32.750  0.00  0.00    +0.105 C 
ATOM      9  C15 UNL     1      17.512   3.460  33.450  0.00  0.00    +0.019 C 
ATOM     10  C16 UNL     1      17.735   3.248  34.954  0.00  0.00    +0.003 C 
ATOM     11  C17 UNL     1      18.820   2.194  35.209  0.00  0.00    +0.019 C 
ATOM     12  C18 UNL     1      20.125   2.573  34.500  0.00  0.00    +0.105 C 
ENDBRANCH   6   7
BRANCH   1  15
ATOM     13  C6  UNL     1      22.062   5.100  31.356  0.00  0.00    +0.253 C 
ATOM     14  O1  UNL     1      21.085   5.260  30.574  0.00  0.00    -0.270 OA
ATOM     15  N1  UNL     1      22.310   3.805  31.929  0.00  0.00    -0.280 N 
ATOM     16  H6  UNL     1      22.877   3.752  32.804  0.00  0.00    +0.155 HD
BRANCH  13  21
ATOM     17  C1  UNL     1      25.440   9.597  32.657  0.00  0.00    +0.066 C 
ATOM     18  C2  UNL     1      24.565   8.426  32.339  0.00  0.00    +0.042 A 
ATOM     19  C3  UNL     1      24.801   7.185  32.935  0.00  0.00    +0.024 A 
ATOM     20  C4  UNL     1      23.981   6.102  32.616  0.00  0.00    +0.020 A 
ATOM     21  C5  UNL     1      22.925   6.257  31.702  0.00  0.00    +0.098 A 
ATOM     22  C19 UNL     1      22.726   7.526  31.119  0.00  0.00    +0.225 A 
ATOM     23  N3  UNL     1      23.544   8.562  31.451  0.00  0.00    -0.218 NA
BRANCH  22  24
ATOM     24  O2  UNL     1      21.691   7.741  30.213  0.00  0.00    -0.492 OA
ATOM     25  H20 UNL     1      21.070   6.988  29.943  0.00  0.00    +0.294 HD
ENDBRANCH  22  24
ENDBRANCH  13  21
ENDBRANCH   1  15
BRANCH   3  26
ATOM     26  C10 UNL     1      22.441  -0.154  28.892  0.00  0.00    +0.417 C 
ATOM     27  F1  UNL     1      22.405  -1.504  29.196  0.00  0.00    -0.166 F 
ATOM     28  F2  UNL     1      21.822   0.031  27.668  0.00  0.00    -0.166 F 
ATOM     29  F3  UNL     1      23.758   0.253  28.797  0.00  0.00    -0.166 F 
ENDBRANCH   3  26
TORSDOF 5
ENDMDL
MODEL 3
REMARK VINA RESULT:    -6.684      6.851      9.852
REMARK INTER + INTRA:          -9.584
REMARK INTER:                  -8.277
REMARK INTRA:                  -1.306
REMARK UNBOUND:                -1.141
REMARK  Name = /home/qwerty/github/datacon2025hack/step_04_hit_selection/docking/ligands/lig_132.pdb
REMARK  6 active torsions:
REMARK  status: ('A' for Active; 'I' for Inactive)
REMARK    1  A    between atoms: C1_1  and  C2_2
REMARK    2  A    between atoms: C5_5  and  C6_6
REMARK    3  A    between atoms: N1_8  and  C7_9
REMARK    4  A    between atoms: C9_11  and  C10_12
REMARK    5  A    between atoms: C13_18  and  N2_19
REMARK    6  A    between atoms: C19_25  and  O2_26
REMARK                            x       y       z     vdW  Elec       q    Type
REMARK                         _______ _______ _______ _____ _____    ______ ____
ROOT
ATOM      1  C7  UNL     1      11.596  13.268  30.325  0.00  0.00    +0.055 A 
ATOM      2  C8  UNL     1      10.192  13.202  30.277  0.00  0.00    +0.037 A 
ATOM      3  C9  UNL     1       9.498  13.480  29.088  0.00  0.00    +0.057 A 
ATOM      4  C11 UNL     1      10.220  13.885  27.956  0.00  0.00    +0.014 A 
ATOM      5  C12 UNL     1      11.612  13.965  27.996  0.00  0.00    +0.025 A 
ATOM      6  C13 UNL     1      12.311  13.655  29.172  0.00  0.00    +0.051 A 
ENDROOT
BRANCH   6   7
ATOM      7  N2  UNL     1      13.748  13.706  29.176  0.00  0.00    -0.328 N 
ATOM      8  C14 UNL     1      14.542  12.531  28.799  0.00  0.00    +0.105 C 
ATOM      9  C15 UNL     1      15.455  12.883  27.620  0.00  0.00    +0.019 C 
ATOM     10  C16 UNL     1      16.277  14.143  27.923  0.00  0.00    +0.003 C 
ATOM     11  C17 UNL     1      15.368  15.322  28.294  0.00  0.00    +0.019 C 
ATOM     12  C18 UNL     1      14.457  14.956  29.470  0.00  0.00    +0.105 C 
ENDBRANCH   6   7
BRANCH   1  15
ATOM     13  C6  UNL     1      12.584  14.073  32.510  0.00  0.00    +0.253 C 
ATOM     14  O1  UNL     1      12.004  15.188  32.413  0.00  0.00    -0.270 OA
ATOM     15  N1  UNL     1      12.290  13.032  31.562  0.00  0.00    -0.280 N 
ATOM     16  H6  UNL     1      12.495  12.045  31.833  0.00  0.00    +0.155 HD
BRANCH  13  21
ATOM     17  C1  UNL     1      16.311  13.196  36.830  0.00  0.00    +0.066 C 
ATOM     18  C2  UNL     1      15.352  13.406  35.702  0.00  0.00    +0.042 A 
ATOM     19  C3  UNL     1      15.722  13.094  34.392  0.00  0.00    +0.024 A 
ATOM     20  C4  UNL     1      14.816  13.309  33.352  0.00  0.00    +0.020 A 
ATOM     21  C5  UNL     1      13.541  13.835  33.619  0.00  0.00    +0.098 A 
ATOM     22  C19 UNL     1      13.211  14.142  34.956  0.00  0.00    +0.225 A 
ATOM     23  N3  UNL     1      14.118  13.921  35.948  0.00  0.00    -0.218 NA
BRANCH  22  24
ATOM     24  O2  UNL     1      11.960  14.658  35.282  0.00  0.00    -0.492 OA
ATOM     25  H20 UNL     1      11.663  14.734  36.248  0.00  0.00    +0.294 HD
ENDBRANCH  22  24
ENDBRANCH  13  21
ENDBRANCH   1  15
BRANCH   3  26
ATOM     26  C10 UNL     1       7.990  13.450  29.062  0.00  0.00    +0.417 C 
ATOM     27  F1  UNL     1       7.521  12.169  29.293  0.00  0.00    -0.166 F 
ATOM     28  F2  UNL     1       7.469  14.284  30.037  0.00  0.00    -0.166 F 
ATOM     29  F3  UNL     1       7.548  13.876  27.823  0.00  0.00    -0.166 F 
ENDBRANCH   3  26
TORSDOF 5
ENDMDL
MODEL 4
REMARK VINA RESULT:    -6.664     12.638     15.038
REMARK INTER + INTRA:          -9.559
REMARK INTER:                  -8.422
REMARK INTRA:                  -1.136
REMARK UNBOUND:                -1.141
REMARK  Name = /home/qwerty/github/datacon2025hack/step_04_hit_selection/docking/ligands/lig_132.pdb
REMARK  6 active torsions:
REMARK  status: ('A' for Active; 'I' for Inactive)
REMARK    1  A    between atoms: C1_1  and  C2_2
REMARK    2  A    between atoms: C5_5  and  C6_6
REMARK    3  A    between atoms: N1_8  and  C7_9
REMARK    4  A    between atoms: C9_11  and  C10_12
REMARK    5  A    between atoms: C13_18  and  N2_19
REMARK    6  A    between atoms: C19_25  and  O2_26
REMARK                            x       y       z     vdW  Elec       q    Type
REMARK                         _______ _______ _______ _____ _____    ______ ____
ROOT
ATOM      1  C7  UNL     1      20.584   1.398  26.613  0.00  0.00    +0.055 A 
ATOM      2  C8  UNL     1      21.364   0.853  27.647  0.00  0.00    +0.037 A 
ATOM      3  C9  UNL     1      22.512   1.517  28.111  0.00  0.00    +0.057 A 
ATOM      4  C11 UNL     1      22.908   2.709  27.487  0.00  0.00    +0.014 A 
ATOM      5  C12 UNL     1      22.147   3.253  26.452  0.00  0.00    +0.025 A 
ATOM      6  C13 UNL     1      20.982   2.610  26.010  0.00  0.00    +0.051 A 
ENDROOT
BRANCH   6   7
ATOM      7  N2  UNL     1      20.193   3.212  24.968  0.00  0.00    -0.328 N 
ATOM      8  C14 UNL     1      19.166   4.209  25.287  0.00  0.00    +0.105 C 
ATOM      9  C15 UNL     1      19.465   5.513  24.541  0.00  0.00    +0.019 C 
ATOM     10  C16 UNL     1      19.663   5.253  23.042  0.00  0.00    +0.003 C 
ATOM     11  C17 UNL     1      20.762   4.209  22.802  0.00  0.00    +0.019 C 
ATOM     12  C18 UNL     1      20.454   2.912  23.557  0.00  0.00    +0.105 C 
ENDBRANCH   6   7
BRANCH   1  15
ATOM     13  C6  UNL     1      18.129   0.794  26.690  0.00  0.00    +0.253 C 
ATOM     14  O1  UNL     1      17.877   1.736  27.491  0.00  0.00    -0.270 OA
ATOM     15  N1  UNL     1      19.441   0.682  26.113  0.00  0.00    -0.280 N 
ATOM     16  H6  UNL     1      19.547   0.139  25.228  0.00  0.00    +0.155 HD
BRANCH  13  21
ATOM     17  C1  UNL     1      13.973  -2.973  25.325  0.00  0.00    +0.066 C 
ATOM     18  C2  UNL     1      15.057  -1.998  25.659  0.00  0.00    +0.042 A 
ATOM     19  C3  UNL     1      16.336  -2.149  25.118  0.00  0.00    +0.024 A 
ATOM     20  C4  UNL     1      17.336  -1.235  25.453  0.00  0.00    +0.020 A 
ATOM     21  C5  UNL     1      17.060  -0.170  26.328  0.00  0.00    +0.098 A 
ATOM     22  C19 UNL     1      15.756  -0.059  26.855  0.00  0.00    +0.225 A 
ATOM     23  N3  UNL     1      14.803  -0.968  26.510  0.00  0.00    -0.218 NA
BRANCH  22  24
ATOM     24  O2  UNL     1      15.423   0.980  27.720  0.00  0.00    -0.492 OA
ATOM     25  H20 UNL     1      14.577   1.521  27.582  0.00  0.00    +0.294 HD
ENDBRANCH  22  24
ENDBRANCH  13  21
ENDBRANCH   1  15
BRANCH   3  26
ATOM     26  C10 UNL     1      23.366   0.899  29.189  0.00  0.00    +0.417 C 
ATOM     27  F1  UNL     1      23.045   1.423  30.429  0.00  0.00    -0.166 F 
ATOM     28  F2  UNL     1      23.174  -0.472  29.237  0.00  0.00    -0.166 F 
ATOM     29  F3  UNL     1      24.697   1.158  28.920  0.00  0.00    -0.166 F 
ENDBRANCH   3  26
TORSDOF 5
ENDMDL
MODEL 5
REMARK VINA RESULT:    -6.657      6.361      8.112
REMARK INTER + INTRA:          -9.550
REMARK INTER:                  -8.258
REMARK INTRA:                  -1.292
REMARK UNBOUND:                -1.141
REMARK  Name = /home/qwerty/github/datacon2025hack/step_04_hit_selection/docking/ligands/lig_132.pdb
REMARK  6 active torsions:
REMARK  status: ('A' for Active; 'I' for Inactive)
REMARK    1  A    between atoms: C1_1  and  C2_2
REMARK    2  A    between atoms: C5_5  and  C6_6
REMARK    3  A    between atoms: N1_8  and  C7_9
REMARK    4  A    between atoms: C9_11  and  C10_12
REMARK    5  A    between atoms: C13_18  and  N2_19
REMARK    6  A    between atoms: C19_25  and  O2_26
REMARK                            x       y       z     vdW  Elec       q    Type
REMARK                         _______ _______ _______ _____ _____    ______ ____
ROOT
ATOM      1  C7  UNL     1      10.853   6.668  20.954  0.00  0.00    +0.055 A 
ATOM      2  C8  UNL     1      11.218   7.851  20.286  0.00  0.00    +0.037 A 
ATOM      3  C9  UNL     1      10.470   9.029  20.448  0.00  0.00    +0.057 A 
ATOM      4  C11 UNL     1       9.314   9.000  21.241  0.00  0.00    +0.014 A 
ATOM      5  C12 UNL     1       8.937   7.828  21.899  0.00  0.00    +0.025 A 
ATOM      6  C13 UNL     1       9.700   6.659  21.767  0.00  0.00    +0.051 A 
ENDROOT
BRANCH   6   7
ATOM      7  N2  UNL     1       9.312   5.476  22.487  0.00  0.00    -0.328 N 
ATOM      8  C14 UNL     1       9.723   5.278  23.881  0.00  0.00    +0.105 C 
ATOM      9  C15 UNL     1       8.484   5.100  24.763  0.00  0.00    +0.019 C 
ATOM     10  C16 UNL     1       7.565   4.006  24.203  0.00  0.00    +0.003 C 
ATOM     11  C17 UNL     1       7.176   4.300  22.748  0.00  0.00    +0.019 C 
ATOM     12  C18 UNL     1       8.424   4.481  21.878  0.00  0.00    +0.105 C 
ENDBRANCH   6   7
BRANCH   1  15
ATOM     13  C6  UNL     1      12.720   5.068  21.546  0.00  0.00    +0.253 C 
ATOM     14  O1  UNL     1      12.926   5.647  22.648  0.00  0.00    -0.270 OA
ATOM     15  N1  UNL     1      11.596   5.456  20.738  0.00  0.00    -0.280 N 
ATOM     16  H6  UNL     1      11.238   4.777  20.029  0.00  0.00    +0.155 HD
BRANCH  13  21
ATOM     17  C1  UNL     1      16.205   0.773  19.895  0.00  0.00    +0.066 C 
ATOM     18  C2  UNL     1      15.315   1.899  20.315  0.00  0.00    +0.042 A 
ATOM     19  C3  UNL     1      15.860   3.064  20.862  0.00  0.00    +0.024 A 
ATOM     20  C4  UNL     1      15.011   4.098  21.259  0.00  0.00    +0.020 A 
ATOM     21  C5  UNL     1      13.619   3.971  21.112  0.00  0.00    +0.098 A 
ATOM     22  C19 UNL     1      13.112   2.775  20.561  0.00  0.00    +0.225 A 
ATOM     23  N3  UNL     1      13.967   1.784  20.184  0.00  0.00    -0.218 NA
BRANCH  22  24
ATOM     24  O2  UNL     1      11.743   2.595  20.384  0.00  0.00    -0.492 OA
ATOM     25  H20 UNL     1      11.375   2.218  19.519  0.00  0.00    +0.294 HD
ENDBRANCH  22  24
ENDBRANCH  13  21
ENDBRANCH   1  15
BRANCH   3  26
ATOM     26  C10 UNL     1      10.846  10.279  19.691  0.00  0.00    +0.417 C 
ATOM     27  F1  UNL     1       9.773  11.150  19.620  0.00  0.00    -0.166 F 
ATOM     28  F2  UNL     1      11.893  10.932  20.317  0.00  0.00    -0.166 F 
ATOM     29  F3  UNL     1      11.233   9.934  18.409  0.00  0.00    -0.166 F 
ENDBRANCH   3  26
TORSDOF 5
ENDMDL
MODEL 6
REMARK VINA RESULT:    -6.602     12.980     14.572
REMARK INTER + INTRA:          -9.481
REMARK INTER:                  -8.149
REMARK INTRA:                  -1.332
REMARK UNBOUND:                -1.141
REMARK  Name = /home/qwerty/github/datacon2025hack/step_04_hit_selection/docking/ligands/lig_132.pdb
REMARK  6 active torsions:
REMARK  status: ('A' for Active; 'I' for Inactive)
REMARK    1  A    between atoms: C1_1  and  C2_2
REMARK    2  A    between atoms: C5_5  and  C6_6
REMARK    3  A    between atoms: N1_8  and  C7_9
REMARK    4  A    between atoms: C9_11  and  C10_12
REMARK    5  A    between atoms: C13_18  and  N2_19
REMARK    6  A    between atoms: C19_25  and  O2_26
REMARK                            x       y       z     vdW  Elec       q    Type
REMARK                         _______ _______ _______ _____ _____    ______ ____
ROOT
ATOM      1  C7  UNL     1      20.071   2.758  25.651  0.00  0.00    +0.055 A 
ATOM      2  C8  UNL     1      20.122   3.450  24.428  0.00  0.00    +0.037 A 
ATOM      3  C9  UNL     1      21.181   4.326  24.139  0.00  0.00    +0.057 A 
ATOM      4  C11 UNL     1      22.165   4.551  25.114  0.00  0.00    +0.014 A 
ATOM      5  C12 UNL     1      22.118   3.878  26.335  0.00  0.00    +0.025 A 
ATOM      6  C13 UNL     1      21.080   2.976  26.613  0.00  0.00    +0.051 A 
ENDROOT
BRANCH   6   7
ATOM      7  N2  UNL     1      21.076   2.265  27.863  0.00  0.00    -0.328 N 
ATOM      8  C14 UNL     1      21.780   0.986  28.000  0.00  0.00    +0.105 C 
ATOM      9  C15 UNL     1      22.819   1.087  29.121  0.00  0.00    +0.019 C 
ATOM     10  C16 UNL     1      22.179   1.609  30.415  0.00  0.00    +0.003 C 
ATOM     11  C17 UNL     1      21.478   2.954  30.182  0.00  0.00    +0.019 C 
ATOM     12  C18 UNL     1      20.445   2.841  29.055  0.00  0.00    +0.105 C 
ENDBRANCH   6   7
BRANCH   1  15
ATOM     13  C6  UNL     1      18.883   0.528  25.548  0.00  0.00    +0.253 C 
ATOM     14  O1  UNL     1      19.923  -0.058  25.141  0.00  0.00    -0.270 OA
ATOM     15  N1  UNL     1      18.954   1.905  25.955  0.00  0.00    -0.280 N 
ATOM     16  H6  UNL     1      18.210   2.272  26.589  0.00  0.00    +0.155 HD
BRANCH  13  21
ATOM     17  C1  UNL     1      13.887  -2.350  25.843  0.00  0.00    +0.066 C 
ATOM     18  C2  UNL     1      15.184  -1.608  25.787  0.00  0.00    +0.042 A 
ATOM     19  C3  UNL     1      15.569  -0.774  26.840  0.00  0.00    +0.024 A 
ATOM     20  C4  UNL     1      16.778  -0.081  26.761  0.00  0.00    +0.020 A 
ATOM     21  C5  UNL     1      17.604  -0.219  25.632  0.00  0.00    +0.098 A 
ATOM     22  C19 UNL     1      17.173  -1.067  24.590  0.00  0.00    +0.225 A 
ATOM     23  N3  UNL     1      15.988  -1.728  24.696  0.00  0.00    -0.218 NA
BRANCH  22  24
ATOM     24  O2  UNL     1      17.953  -1.250  23.451  0.00  0.00    -0.492 OA
ATOM     25  H20 UNL     1      17.836  -0.654  22.639  0.00  0.00    +0.294 HD
ENDBRANCH  22  24
ENDBRANCH  13  21
ENDBRANCH   1  15
BRANCH   3  26
ATOM     26  C10 UNL     1      21.199   5.097  22.843  0.00  0.00    +0.417 C 
ATOM     27  F1  UNL     1      20.220   6.075  22.841  0.00  0.00    -0.166 F 
ATOM     28  F2  UNL     1      22.426   5.713  22.659  0.00  0.00    -0.166 F 
ATOM     29  F3  UNL     1      20.971   4.227  21.794  0.00  0.00    -0.166 F 
ENDBRANCH   3  26
TORSDOF 5
ENDMDL
MODEL 7
REMARK VINA RESULT:    -6.549      2.238      2.714
REMARK INTER + INTRA:          -9.414
REMARK INTER:                  -7.956
REMARK INTRA:                  -1.457
REMARK UNBOUND:                -1.141
REMARK  Name = /home/qwerty/github/datacon2025hack/step_04_hit_selection/docking/ligands/lig_132.pdb
REMARK  6 active torsions:
REMARK  status: ('A' for Active; 'I' for Inactive)
REMARK    1  A    between atoms: C1_1  and  C2_2
REMARK    2  A    between atoms: C5_5  and  C6_6
REMARK    3  A    between atoms: N1_8  and  C7_9
REMARK    4  A    between atoms: C9_11  and  C10_12
REMARK    5  A    between atoms: C13_18  and  N2_19
REMARK    6  A    between atoms: C19_25  and  O2_26
REMARK                            x       y       z     vdW  Elec       q    Type
REMARK                         _______ _______ _______ _____ _____    ______ ____
ROOT
ATOM      1  C7  UNL     1       8.814  10.061  26.974  0.00  0.00    +0.055 A 
ATOM      2  C8  UNL     1       8.771  11.463  27.059  0.00  0.00    +0.037 A 
ATOM      3  C9  UNL     1       8.255  12.101  28.199  0.00  0.00    +0.057 A 
ATOM      4  C11 UNL     1       7.724  11.320  29.235  0.00  0.00    +0.014 A 
ATOM      5  C12 UNL     1       7.752   9.927  29.156  0.00  0.00    +0.025 A 
ATOM      6  C13 UNL     1       8.298   9.287  28.035  0.00  0.00    +0.051 A 
ENDROOT
BRANCH   6   7
ATOM      7  N2  UNL     1       8.351   7.850  27.995  0.00  0.00    -0.328 N 
ATOM      8  C14 UNL     1       7.221   7.072  27.478  0.00  0.00    +0.105 C 
ATOM      9  C15 UNL     1       7.687   6.199  26.309  0.00  0.00    +0.019 C 
ATOM     10  C16 UNL     1       8.914   5.365  26.704  0.00  0.00    +0.003 C 
ATOM     11  C17 UNL     1      10.049   6.259  27.220  0.00  0.00    +0.019 C 
ATOM     12  C18 UNL     1       9.568   7.130  28.385  0.00  0.00    +0.105 C 
ENDBRANCH   6   7
BRANCH   1  15
ATOM     13  C6  UNL     1       8.507   9.284  24.587  0.00  0.00    +0.253 C 
ATOM     14  O1  UNL     1       7.451   9.961  24.456  0.00  0.00    -0.270 OA
ATOM     15  N1  UNL     1       9.297   9.422  25.780  0.00  0.00    -0.280 N 
ATOM     16  H6  UNL     1      10.302   9.140  25.743  0.00  0.00    +0.155 HD
BRANCH  13  21
ATOM     17  C1  UNL     1      10.145   5.731  20.342  0.00  0.00    +0.066 C 
ATOM     18  C2  UNL     1       9.740   6.652  21.448  0.00  0.00    +0.042 A 
ATOM     19  C3  UNL     1      10.293   6.512  22.724  0.00  0.00    +0.024 A 
ATOM     20  C4  UNL     1       9.892   7.374  23.745  0.00  0.00    +0.020 A 
ATOM     21  C5  UNL     1       8.939   8.376  23.496  0.00  0.00    +0.098 A 
ATOM     22  C19 UNL     1       8.402   8.478  22.194  0.00  0.00    +0.225 A 
ATOM     23  N3  UNL     1       8.814   7.621  21.220  0.00  0.00    -0.218 NA
BRANCH  22  24
ATOM     24  O2  UNL     1       7.461   9.456  21.886  0.00  0.00    -0.492 OA
ATOM     25  H20 UNL     1       6.547   9.205  21.528  0.00  0.00    +0.294 HD
ENDBRANCH  22  24
ENDBRANCH  13  21
ENDBRANCH   1  15
BRANCH   3  26
ATOM     26  C10 UNL     1       8.172  13.606  28.257  0.00  0.00    +0.417 C 
ATOM     27  F1  UNL     1       7.716  14.024  29.495  0.00  0.00    -0.166 F 
ATOM     28  F2  UNL     1       9.418  14.172  28.041  0.00  0.00    -0.166 F 
ATOM     29  F3  UNL     1       7.301  14.052  27.281  0.00  0.00    -0.166 F 
ENDBRANCH   3  26
TORSDOF 5
ENDMDL
MODEL 8
REMARK VINA RESULT:    -6.477      6.333      9.554
REMARK INTER + INTRA:          -9.322
REMARK INTER:                  -8.119
REMARK INTRA:                  -1.203
REMARK UNBOUND:                -1.141
REMARK  Name = /home/qwerty/github/datacon2025hack/step_04_hit_selection/docking/ligands/lig_132.pdb
REMARK  6 active torsions:
REMARK  status: ('A' for Active; 'I' for Inactive)
REMARK    1  A    between atoms: C1_1  and  C2_2
REMARK    2  A    between atoms: C5_5  and  C6_6
REMARK    3  A    between atoms: N1_8  and  C7_9
REMARK    4  A    between atoms: C9_11  and  C10_12
REMARK    5  A    between atoms: C13_18  and  N2_19
REMARK    6  A    between atoms: C19_25  and  O2_26
REMARK                            x       y       z     vdW  Elec       q    Type
REMARK                         _______ _______ _______ _____ _____    ______ ____
ROOT
ATOM      1  C7  UNL     1      12.720  13.603  29.892  0.00  0.00    +0.055 A 
ATOM      2  C8  UNL     1      13.938  14.304  29.828  0.00  0.00    +0.037 A 
ATOM      3  C9  UNL     1      14.369  14.891  28.627  0.00  0.00    +0.057 A 
ATOM      4  C11 UNL     1      13.596  14.720  27.469  0.00  0.00    +0.014 A 
ATOM      5  C12 UNL     1      12.393  14.017  27.519  0.00  0.00    +0.025 A 
ATOM      6  C13 UNL     1      11.942  13.459  28.724  0.00  0.00    +0.051 A 
ENDROOT
BRANCH   6   7
ATOM      7  N2  UNL     1      10.678  12.773  28.758  0.00  0.00    -0.328 N 
ATOM      8  C14 UNL     1       9.442  13.494  29.081  0.00  0.00    +0.105 C 
ATOM      9  C15 UNL     1       8.443  13.345  27.929  0.00  0.00    +0.019 C 
ATOM     10  C16 UNL     1       8.247  11.868  27.562  0.00  0.00    +0.003 C 
ATOM     11  C17 UNL     1       9.587  11.198  27.228  0.00  0.00    +0.019 C 
ATOM     12  C18 UNL     1      10.579  11.358  28.385  0.00  0.00    +0.105 C 
ENDBRANCH   6   7
BRANCH   1  15
ATOM     13  C6  UNL     1      11.943  13.690  32.297  0.00  0.00    +0.253 C 
ATOM     14  O1  UNL     1      11.694  14.924  32.219  0.00  0.00    -0.270 OA
ATOM     15  N1  UNL     1      12.317  12.963  31.115  0.00  0.00    -0.280 N 
ATOM     16  H6  UNL     1      12.189  11.926  31.111  0.00  0.00    +0.155 HD
BRANCH  13  21
ATOM     17  C1  UNL     1      11.491  10.984  37.377  0.00  0.00    +0.066 C 
ATOM     18  C2  UNL     1      11.590  11.677  36.055  0.00  0.00    +0.042 A 
ATOM     19  C3  UNL     1      11.231  11.012  34.879  0.00  0.00    +0.024 A 
ATOM     20  C4  UNL     1      11.343  11.673  33.655  0.00  0.00    +0.020 A 
ATOM     21  C5  UNL     1      11.814  12.996  33.602  0.00  0.00    +0.098 A 
ATOM     22  C19 UNL     1      12.172  13.626  34.813  0.00  0.00    +0.225 A 
ATOM     23  N3  UNL     1      12.052  12.954  35.991  0.00  0.00    -0.218 NA
BRANCH  22  24
ATOM     24  O2  UNL     1      12.638  14.938  34.823  0.00  0.00    -0.492 OA
ATOM     25  H20 UNL     1      12.885  15.396  35.692  0.00  0.00    +0.294 HD
ENDBRANCH  22  24
ENDBRANCH  13  21
ENDBRANCH   1  15
BRANCH   3  26
ATOM     26  C10 UNL     1      15.699  15.601  28.561  0.00  0.00    +0.417 C 
ATOM     27  F1  UNL     1      15.849  16.460  29.636  0.00  0.00    -0.166 F 
ATOM     28  F2  UNL     1      16.740  14.688  28.587  0.00  0.00    -0.166 F 
ATOM     29  F3  UNL     1      15.767  16.329  27.388  0.00  0.00    -0.166 F 
ENDBRANCH   3  26
TORSDOF 5
ENDMDL
MODEL 9
REMARK VINA RESULT:    -6.460     12.645     14.508
REMARK INTER + INTRA:          -9.301
REMARK INTER:                  -7.994
REMARK INTRA:                  -1.307
REMARK UNBOUND:                -1.141
REMARK  Name = /home/qwerty/github/datacon2025hack/step_04_hit_selection/docking/ligands/lig_132.pdb
REMARK  6 active torsions:
REMARK  status: ('A' for Active; 'I' for Inactive)
REMARK    1  A    between atoms: C1_1  and  C2_2
REMARK    2  A    between atoms: C5_5  and  C6_6
REMARK    3  A    between atoms: N1_8  and  C7_9
REMARK    4  A    between atoms: C9_11  and  C10_12
REMARK    5  A    between atoms: C13_18  and  N2_19
REMARK    6  A    between atoms: C19_25  and  O2_26
REMARK                            x       y       z     vdW  Elec       q    Type
REMARK                         _______ _______ _______ _____ _____    ______ ____
ROOT
ATOM      1  C7  UNL     1      20.114   1.868  26.435  0.00  0.00    +0.055 A 
ATOM      2  C8  UNL     1      20.595   0.926  27.361  0.00  0.00    +0.037 A 
ATOM      3  C9  UNL     1      21.802   1.141  28.047  0.00  0.00    +0.057 A 
ATOM      4  C11 UNL     1      22.558   2.286  27.754  0.00  0.00    +0.014 A 
ATOM      5  C12 UNL     1      22.094   3.221  26.828  0.00  0.00    +0.025 A 
ATOM      6  C13 UNL     1      20.874   3.026  26.167  0.00  0.00    +0.051 A 
ENDROOT
BRANCH   6   7
ATOM      7  N2  UNL     1      20.399   4.024  25.247  0.00  0.00    -0.328 N 
ATOM      8  C14 UNL     1      19.473   5.072  25.690  0.00  0.00    +0.105 C 
ATOM      9  C15 UNL     1      20.089   6.450  25.426  0.00  0.00    +0.019 C 
ATOM     10  C16 UNL     1      20.548   6.574  23.966  0.00  0.00    +0.003 C 
ATOM     11  C17 UNL     1      21.521   5.447  23.595  0.00  0.00    +0.019 C 
ATOM     12  C18 UNL     1      20.896   4.076  23.868  0.00  0.00    +0.105 C 
ENDBRANCH   6   7
BRANCH   1  15
ATOM     13  C6  UNL     1      18.885   0.959  24.420  0.00  0.00    +0.253 C 
ATOM     14  O1  UNL     1      19.911   0.348  24.014  0.00  0.00    -0.270 OA
ATOM     15  N1  UNL     1      18.904   1.609  25.702  0.00  0.00    -0.280 N 
ATOM     16  H6  UNL     1      17.992   1.808  26.170  0.00  0.00    +0.155 HD
BRANCH  13  21
ATOM     17  C1  UNL     1      14.142   1.006  21.130  0.00  0.00    +0.066 C 
ATOM     18  C2  UNL     1      15.362   1.008  21.995  0.00  0.00    +0.042 A 
ATOM     19  C3  UNL     1      15.838   2.201  22.543  0.00  0.00    +0.024 A 
ATOM     20  C4  UNL     1      16.986   2.182  23.337  0.00  0.00    +0.020 A 
ATOM     21  C5  UNL     1      17.659   0.973  23.584  0.00  0.00    +0.098 A 
ATOM     22  C19 UNL     1      17.146  -0.207  23.005  0.00  0.00    +0.225 A 
ATOM     23  N3  UNL     1      16.025  -0.155  22.235  0.00  0.00    -0.218 NA
BRANCH  22  24
ATOM     24  O2  UNL     1      17.766  -1.435  23.221  0.00  0.00    -0.492 OA
ATOM     25  H20 UNL     1      18.646  -1.660  22.774  0.00  0.00    +0.294 HD
ENDBRANCH  22  24
ENDBRANCH  13  21
ENDBRANCH   1  15
BRANCH   3  26
ATOM     26  C10 UNL     1      22.330   0.101  29.004  0.00  0.00    +0.417 C 
ATOM     27  F1  UNL     1      21.428  -0.125  30.029  0.00  0.00    -0.166 F 
ATOM     28  F2  UNL     1      22.550  -1.098  28.348  0.00  0.00    -0.166 F 
ATOM     29  F3  UNL     1      23.524   0.545  29.543  0.00  0.00    -0.166 F 
ENDBRANCH   3  26
TORSDOF 5
ENDMDL
