REMARK  Name = /home/qwerty/github/datacon2025hack/step_04_hit_selection/docking/ligands/lig_174.pdb
REMARK  5 active torsions:
REMARK  status: ('A' for Active; 'I' for Inactive)
REMARK    1  A    between atoms: C1_1  and  C2_2
REMARK    2  A    between atoms: C5_5  and  C6_6
REMARK    3  A    between atoms: N1_8  and  C7_9
REMARK    4  A    between atoms: C10_12  and  N2_13
REMARK    5  A    between atoms: C18_24  and  N6_25
REMARK                            x       y       z     vdW  Elec       q    Type
REMARK                         _______ _______ _______ _____ _____    ______ ____
ROOT
ATOM      1  C7  UNL     1       1.070  -0.284   0.094  0.00  0.00    +0.045 A 
ATOM      2  C8  UNL     1       1.621   0.698  -0.759  0.00  0.00    +0.026 A 
ATOM      3  C9  UNL     1       3.019   0.804  -0.928  0.00  0.00    +0.030 A 
ATOM      4  C10 UNL     1       3.900  -0.054  -0.233  0.00  0.00    +0.073 A 
ATOM      5  C14 UNL     1       3.323  -1.014   0.610  0.00  0.00    +0.091 A 
ATOM      6  N4  UNL     1       3.924  -1.984   1.323  0.00  0.00    -0.275 N 
ATOM      7  N5  UNL     1       2.989  -2.694   1.943  0.00  0.00    -0.181 NA
ATOM      8  C15 UNL     1       1.777  -2.181   1.625  0.00  0.00    +0.144 A 
ATOM      9  C16 UNL     1       1.968  -1.116   0.769  0.00  0.00    +0.043 A 
ATOM     10  H12 UNL     1       4.943  -2.197   1.374  0.00  0.00    +0.189 HD
ENDROOT
BRANCH   4  11
ATOM     11  N2  UNL     1       5.323   0.077  -0.386  0.00  0.00    -0.304 N 
ATOM     12  C11 UNL     1       5.990   0.341  -1.523  0.00  0.00    +0.112 A 
ATOM     13  C12 UNL     1       7.327   0.446  -1.216  0.00  0.00    +0.130 A 
ATOM     14  N3  UNL     1       7.503   0.267   0.109  0.00  0.00    -0.244 NA
ATOM     15  C13 UNL     1       6.259   0.048   0.584  0.00  0.00    +0.204 A 
ENDBRANCH   4  11
BRANCH   1  18
ATOM     16  C6  UNL     1      -1.328  -0.098  -0.703  0.00  0.00    +0.248 C 
ATOM     17  O1  UNL     1      -0.996  -0.102  -1.920  0.00  0.00    -0.270 OA
ATOM     18  N1  UNL     1      -0.348  -0.405   0.303  0.00  0.00    -0.281 N 
ATOM     19  H6  UNL     1      -0.679  -0.828   1.199  0.00  0.00    +0.155 HD
BRANCH  16  24
ATOM     20  C1  UNL     1      -6.850   0.997   0.752  0.00  0.00    +0.045 C 
ATOM     21  C2  UNL     1      -5.428   0.708   0.353  0.00  0.00    -0.030 A 
ATOM     22  C3  UNL     1      -4.405   0.841   1.307  0.00  0.00    +0.006 A 
ATOM     23  C4  UNL     1      -3.077   0.580   0.968  0.00  0.00    +0.013 A 
ATOM     24  C5  UNL     1      -2.739   0.175  -0.333  0.00  0.00    +0.039 A 
ATOM     25  C17 UNL     1      -3.758   0.053  -1.293  0.00  0.00    +0.036 A 
ATOM     26  C18 UNL     1      -5.098   0.312  -0.963  0.00  0.00    +0.028 A 
BRANCH  26  27
ATOM     27  N6  UNL     1      -6.103   0.166  -1.976  0.00  0.00    -0.358 N 
ATOM     28  H15 UNL     1      -7.113   0.347  -1.789  0.00  0.00    +0.142 HD
ATOM     29  H16 UNL     1      -5.841  -0.128  -2.944  0.00  0.00    +0.142 HD
ENDBRANCH  26  27
ENDBRANCH  16  24
ENDBRANCH   1  18
TORSDOF 4
