MODEL 1
REMARK VINA RESULT:    -6.812      0.000      0.000
REMARK INTER + INTRA:         -10.517
REMARK INTER:                  -9.600
REMARK INTRA:                  -0.917
REMARK UNBOUND:                -0.917
REMARK  Name = /home/qwerty/github/datacon2025hack/step_04_hit_selection/docking/ligands/lig_782.pdb
REMARK  7 active torsions:
REMARK  status: ('A' for Active; 'I' for Inactive)
REMARK    1  A    between atoms: C1_2  and  C14_22
REMARK    2  A    between atoms: N1_3  and  C2_4
REMARK    3  A    between atoms: C4_6  and  N2_7
REMARK    4  A    between atoms: N2_7  and  C5_8
REMARK    5  A    between atoms: C5_8  and  C6_9
REMARK    6  A    between atoms: C11_15  and  C12_16
REMARK    7  A    between atoms: C16_24  and  C17_25
REMARK                            x       y       z     vdW  Elec       q    Type
REMARK                         _______ _______ _______ _____ _____    ______ ____
ROOT
ATOM      1  C2  UNL     1      20.964   2.180  32.979  0.00  0.00    +0.076 C 
ATOM      2  C3  UNL     1      21.687   3.390  33.564  0.00  0.00    +0.041 C 
ATOM      3  C4  UNL     1      20.334   4.042  33.872  0.00  0.00    +0.057 C 
ATOM      4  C13 UNL     1      19.614   2.825  33.296  0.00  0.00    +0.041 C 
ENDROOT
BRANCH   1   7
ATOM      5  O1  UNL     1      20.201  -0.077  31.429  0.00  0.00    -0.275 OA
ATOM      6  C1  UNL     1      20.769   0.872  30.823  0.00  0.00    +0.217 C 
ATOM      7  N1  UNL     1      21.209   2.031  31.543  0.00  0.00    -0.312 N 
ATOM      8  H1  UNL     1      21.684   2.794  31.009  0.00  0.00    +0.149 HD
BRANCH   6   9
ATOM      9  C14 UNL     1      21.033   0.756  29.353  0.00  0.00    +0.084 C 
ATOM     10  C15 UNL     1      22.372   0.107  29.009  0.00  0.00    +0.023 C 
ATOM     11  C16 UNL     1      22.190   1.610  28.841  0.00  0.00    +0.050 C 
BRANCH  11  12
ATOM     12  C17 UNL     1      22.077   2.098  27.420  0.00  0.00    +0.039 A 
ATOM     13  C18 UNL     1      21.082   1.838  26.495  0.00  0.00    +0.133 A 
ATOM     14  N7  UNL     1      21.371   2.474  25.342  0.00  0.00    -0.244 NA
ATOM     15  C19 UNL     1      22.537   3.107  25.591  0.00  0.00    +0.196 A 
ATOM     16  N8  UNL     1      22.988   2.897  26.842  0.00  0.00    -0.348 N 
ATOM     17  H21 UNL     1      23.861   3.278  27.269  0.00  0.00    +0.166 HD
ENDBRANCH  11  12
ENDBRANCH   6   9
ENDBRANCH   1   7
BRANCH   3  18
ATOM     18  N2  UNL     1      20.067   5.258  33.088  0.00  0.00    -0.309 NA
ATOM     19  H6  UNL     1      20.685   5.283  32.241  0.00  0.00    +0.123 HD
BRANCH  18  20
ATOM     20  C5  UNL     1      20.321   6.460  33.890  0.00  0.00    +0.117 C 
BRANCH  20  21
ATOM     21  C6  UNL     1      21.660   7.051  33.518  0.00  0.00    -0.020 A 
ATOM     22  C7  UNL     1      22.010   7.085  32.156  0.00  0.00    +0.044 A 
ATOM     23  C8  UNL     1      23.245   7.590  31.747  0.00  0.00    +0.124 A 
ATOM     24  F1  UNL     1      23.568   7.606  30.431  0.00  0.00    -0.205 F 
ATOM     25  C9  UNL     1      24.147   8.072  32.692  0.00  0.00    +0.039 A 
ATOM     26  C10 UNL     1      23.814   8.066  34.046  0.00  0.00    +0.015 A 
ATOM     27  C11 UNL     1      22.568   7.576  34.483  0.00  0.00    +0.027 A 
BRANCH  27  28
ATOM     28  C12 UNL     1      22.266   7.639  35.937  0.00  0.00    +0.205 A 
ATOM     29  N3  UNL     1      22.691   6.753  36.860  0.00  0.00    -0.108 NA
ATOM     30  N4  UNL     1      22.157   7.157  38.001  0.00  0.00    -0.049 NA
ATOM     31  N5  UNL     1      21.433   8.239  37.778  0.00  0.00    -0.176 N 
ATOM     32  N6  UNL     1      21.469   8.570  36.500  0.00  0.00    -0.133 NA
ATOM     33  H12 UNL     1      20.902   8.757  38.511  0.00  0.00    +0.214 HD
ENDBRANCH  27  28
ENDBRANCH  20  21
ENDBRANCH  18  20
ENDBRANCH   3  18
TORSDOF 7
ENDMDL
MODEL 2
REMARK VINA RESULT:    -6.747      5.546     11.634
REMARK INTER + INTRA:         -10.425
REMARK INTER:                  -9.623
REMARK INTRA:                  -0.802
REMARK UNBOUND:                -0.917
REMARK  Name = /home/qwerty/github/datacon2025hack/step_04_hit_selection/docking/ligands/lig_782.pdb
REMARK  7 active torsions:
REMARK  status: ('A' for Active; 'I' for Inactive)
REMARK    1  A    between atoms: C1_2  and  C14_22
REMARK    2  A    between atoms: N1_3  and  C2_4
REMARK    3  A    between atoms: C4_6  and  N2_7
REMARK    4  A    between atoms: N2_7  and  C5_8
REMARK    5  A    between atoms: C5_8  and  C6_9
REMARK    6  A    between atoms: C11_15  and  C12_16
REMARK    7  A    between atoms: C16_24  and  C17_25
REMARK                            x       y       z     vdW  Elec       q    Type
REMARK                         _______ _______ _______ _____ _____    ______ ____
ROOT
ATOM      1  C2  UNL     1      20.436   2.194  25.168  0.00  0.00    +0.076 C 
ATOM      2  C3  UNL     1      19.930   0.953  24.437  0.00  0.00    +0.041 C 
ATOM      3  C4  UNL     1      18.587   1.650  24.196  0.00  0.00    +0.057 C 
ATOM      4  C13 UNL     1      19.099   2.893  24.920  0.00  0.00    +0.041 C 
ENDROOT
BRANCH   1   7
ATOM      5  O1  UNL     1      22.820   2.907  26.540  0.00  0.00    -0.275 OA
ATOM      6  C1  UNL     1      21.914   2.346  27.215  0.00  0.00    +0.217 C 
ATOM      7  N1  UNL     1      20.694   1.931  26.586  0.00  0.00    -0.312 N 
ATOM      8  H1  UNL     1      19.969   1.461  27.174  0.00  0.00    +0.149 HD
BRANCH   6   9
ATOM      9  C14 UNL     1      22.143   2.065  28.669  0.00  0.00    +0.084 C 
ATOM     10  C15 UNL     1      22.896   0.766  28.942  0.00  0.00    +0.023 C 
ATOM     11  C16 UNL     1      21.399   0.847  29.209  0.00  0.00    +0.050 C 
BRANCH  11  12
ATOM     12  C17 UNL     1      21.000   0.903  30.661  0.00  0.00    +0.039 A 
ATOM     13  C18 UNL     1      21.244   1.902  31.585  0.00  0.00    +0.133 A 
ATOM     14  N7  UNL     1      20.710   1.550  32.772  0.00  0.00    -0.244 NA
ATOM     15  C19 UNL     1      20.151   0.343  32.543  0.00  0.00    +0.196 A 
ATOM     16  N8  UNL     1      20.311  -0.073  31.273  0.00  0.00    -0.348 N 
ATOM     17  H21 UNL     1      19.970  -0.968  30.856  0.00  0.00    +0.166 HD
ENDBRANCH  11  12
ENDBRANCH   6   9
ENDBRANCH   1   7
BRANCH   3  18
ATOM     18  N2  UNL     1      17.458   1.028  24.908  0.00  0.00    -0.309 NA
ATOM     19  H6  UNL     1      17.579  -0.013  24.933  0.00  0.00    +0.123 HD
BRANCH  18  20
ATOM     20  C5  UNL     1      16.189   1.338  24.241  0.00  0.00    +0.117 C 
BRANCH  20  21
ATOM     21  C6  UNL     1      16.239   0.878  22.803  0.00  0.00    -0.020 A 
ATOM     22  C7  UNL     1      16.181   1.858  21.796  0.00  0.00    +0.044 A 
ATOM     23  C8  UNL     1      16.192   1.499  20.447  0.00  0.00    +0.124 A 
ATOM     24  F1  UNL     1      16.126   2.458  19.491  0.00  0.00    -0.205 F 
ATOM     25  C9  UNL     1      16.265   0.157  20.086  0.00  0.00    +0.039 A 
ATOM     26  C10 UNL     1      16.343  -0.831  21.067  0.00  0.00    +0.015 A 
ATOM     27  C11 UNL     1      16.349  -0.494  22.434  0.00  0.00    +0.027 A 
BRANCH  27  28
ATOM     28  C12 UNL     1      16.476  -1.597  23.422  0.00  0.00    +0.205 A 
ATOM     29  N3  UNL     1      15.446  -2.212  24.039  0.00  0.00    -0.108 NA
ATOM     30  N4  UNL     1      16.006  -3.085  24.861  0.00  0.00    -0.049 NA
ATOM     31  N5  UNL     1      17.319  -2.998  24.752  0.00  0.00    -0.176 N 
ATOM     32  N6  UNL     1      17.655  -2.076  23.868  0.00  0.00    -0.133 NA
ATOM     33  H12 UNL     1      17.999  -3.575  25.294  0.00  0.00    +0.214 HD
ENDBRANCH  27  28
ENDBRANCH  20  21
ENDBRANCH  18  20
ENDBRANCH   3  18
TORSDOF 7
ENDMDL
MODEL 3
REMARK VINA RESULT:    -6.676     12.603     13.978
REMARK INTER + INTRA:         -10.325
REMARK INTER:                  -9.445
REMARK INTRA:                  -0.881
REMARK UNBOUND:                -0.917
REMARK  Name = /home/qwerty/github/datacon2025hack/step_04_hit_selection/docking/ligands/lig_782.pdb
REMARK  7 active torsions:
REMARK  status: ('A' for Active; 'I' for Inactive)
REMARK    1  A    between atoms: C1_2  and  C14_22
REMARK    2  A    between atoms: N1_3  and  C2_4
REMARK    3  A    between atoms: C4_6  and  N2_7
REMARK    4  A    between atoms: N2_7  and  C5_8
REMARK    5  A    between atoms: C5_8  and  C6_9
REMARK    6  A    between atoms: C11_15  and  C12_16
REMARK    7  A    between atoms: C16_24  and  C17_25
REMARK                            x       y       z     vdW  Elec       q    Type
REMARK                         _______ _______ _______ _____ _____    ______ ____
ROOT
ATOM      1  C2  UNL     1      12.464  13.805  31.146  0.00  0.00    +0.076 C 
ATOM      2  C3  UNL     1      11.915  14.906  32.049  0.00  0.00    +0.041 C 
ATOM      3  C4  UNL     1      12.404  14.132  33.278  0.00  0.00    +0.057 C 
ATOM      4  C13 UNL     1      12.960  13.038  32.372  0.00  0.00    +0.041 C 
ENDROOT
BRANCH   1   7
ATOM      5  O1  UNL     1      11.422  14.607  28.626  0.00  0.00    -0.275 OA
ATOM      6  C1  UNL     1      10.945  13.558  29.138  0.00  0.00    +0.217 C 
ATOM      7  N1  UNL     1      11.400  13.106  30.420  0.00  0.00    -0.312 N 
ATOM      8  H1  UNL     1      10.976  12.237  30.817  0.00  0.00    +0.149 HD
BRANCH   6   9
ATOM      9  C14 UNL     1       9.859  12.816  28.422  0.00  0.00    +0.084 C 
ATOM     10  C15 UNL     1       8.512  13.535  28.414  0.00  0.00    +0.023 C 
ATOM     11  C16 UNL     1       8.723  12.326  29.315  0.00  0.00    +0.050 C 
BRANCH  11  12
ATOM     12  C17 UNL     1       8.032  11.060  28.878  0.00  0.00    +0.039 A 
ATOM     13  C18 UNL     1       8.104  10.416  27.655  0.00  0.00    +0.133 A 
ATOM     14  N7  UNL     1       7.329   9.314  27.688  0.00  0.00    -0.244 NA
ATOM     15  C19 UNL     1       6.803   9.310  28.931  0.00  0.00    +0.196 A 
ATOM     16  N8  UNL     1       7.212  10.356  29.673  0.00  0.00    -0.348 N 
ATOM     17  H21 UNL     1       6.945  10.571  30.660  0.00  0.00    +0.166 HD
ENDBRANCH  11  12
ENDBRANCH   6   9
ENDBRANCH   1   7
BRANCH   3  18
ATOM     18  N2  UNL     1      11.319  13.633  34.138  0.00  0.00    -0.309 NA
ATOM     19  H6  UNL     1      10.392  13.962  33.773  0.00  0.00    +0.123 HD
BRANCH  18  20
ATOM     20  C5  UNL     1      11.481  14.115  35.513  0.00  0.00    +0.117 C 
BRANCH  20  21
ATOM     21  C6  UNL     1      12.833  13.703  36.045  0.00  0.00    -0.020 A 
ATOM     22  C7  UNL     1      13.834  14.688  36.131  0.00  0.00    +0.044 A 
ATOM     23  C8  UNL     1      15.115  14.368  36.584  0.00  0.00    +0.124 A 
ATOM     24  F1  UNL     1      16.069  15.329  36.652  0.00  0.00    -0.205 F 
ATOM     25  C9  UNL     1      15.413  13.062  36.963  0.00  0.00    +0.039 A 
ATOM     26  C10 UNL     1      14.431  12.074  36.905  0.00  0.00    +0.015 A 
ATOM     27  C11 UNL     1      13.127  12.374  36.466  0.00  0.00    +0.027 A 
BRANCH  27  28
ATOM     28  C12 UNL     1      12.122  11.279  36.469  0.00  0.00    +0.205 A 
ATOM     29  N3  UNL     1      11.501  10.795  37.565  0.00  0.00    -0.108 NA
ATOM     30  N4  UNL     1      10.737   9.809  37.123  0.00  0.00    -0.049 NA
ATOM     31  N5  UNL     1      10.894   9.695  35.817  0.00  0.00    -0.176 N 
ATOM     32  N6  UNL     1      11.755  10.591  35.369  0.00  0.00    -0.133 NA
ATOM     33  H12 UNL     1      10.407   8.991  35.220  0.00  0.00    +0.214 HD
ENDBRANCH  27  28
ENDBRANCH  20  21
ENDBRANCH  18  20
ENDBRANCH   3  18
TORSDOF 7
ENDMDL
MODEL 4
REMARK VINA RESULT:    -6.557     14.373     17.369
REMARK INTER + INTRA:         -10.158
REMARK INTER:                  -9.482
REMARK INTRA:                  -0.676
REMARK UNBOUND:                -0.917
REMARK  Name = /home/qwerty/github/datacon2025hack/step_04_hit_selection/docking/ligands/lig_782.pdb
REMARK  7 active torsions:
REMARK  status: ('A' for Active; 'I' for Inactive)
REMARK    1  A    between atoms: C1_2  and  C14_22
REMARK    2  A    between atoms: N1_3  and  C2_4
REMARK    3  A    between atoms: C4_6  and  N2_7
REMARK    4  A    between atoms: N2_7  and  C5_8
REMARK    5  A    between atoms: C5_8  and  C6_9
REMARK    6  A    between atoms: C11_15  and  C12_16
REMARK    7  A    between atoms: C16_24  and  C17_25
REMARK                            x       y       z     vdW  Elec       q    Type
REMARK                         _______ _______ _______ _____ _____    ______ ____
ROOT
ATOM      1  C2  UNL     1       8.136   9.269  26.133  0.00  0.00    +0.076 C 
ATOM      2  C3  UNL     1       7.335   9.660  24.893  0.00  0.00    +0.041 C 
ATOM      3  C4  UNL     1       8.340   8.907  24.014  0.00  0.00    +0.057 C 
ATOM      4  C13 UNL     1       9.132   8.509  25.256  0.00  0.00    +0.041 C 
ENDROOT
BRANCH   1   7
ATOM      5  O1  UNL     1       7.310  10.281  28.656  0.00  0.00    -0.275 OA
ATOM      6  C1  UNL     1       8.270  10.868  28.088  0.00  0.00    +0.217 C 
ATOM      7  N1  UNL     1       8.724  10.433  26.800  0.00  0.00    -0.312 N 
ATOM      8  H1  UNL     1       9.517  10.948  26.355  0.00  0.00    +0.149 HD
BRANCH   6   9
ATOM      9  C14 UNL     1       8.899  12.060  28.743  0.00  0.00    +0.084 C 
ATOM     10  C15 UNL     1       8.121  13.359  28.551  0.00  0.00    +0.023 C 
ATOM     11  C16 UNL     1       9.411  13.124  27.777  0.00  0.00    +0.050 C 
BRANCH  11  12
ATOM     12  C17 UNL     1      10.602  13.923  28.239  0.00  0.00    +0.039 A 
ATOM     13  C18 UNL     1      11.162  13.984  29.503  0.00  0.00    +0.133 A 
ATOM     14  N7  UNL     1      12.219  14.821  29.480  0.00  0.00    -0.244 NA
ATOM     15  C19 UNL     1      12.279  15.250  28.201  0.00  0.00    +0.196 A 
ATOM     16  N8  UNL     1      11.313  14.722  27.428  0.00  0.00    -0.348 N 
ATOM     17  H21 UNL     1      11.152  14.899  26.411  0.00  0.00    +0.166 HD
ENDBRANCH  11  12
ENDBRANCH   6   9
ENDBRANCH   1   7
BRANCH   3  18
ATOM     18  N2  UNL     1       9.121   9.780  23.122  0.00  0.00    -0.309 NA
ATOM     19  H6  UNL     1       8.961  10.786  23.373  0.00  0.00    +0.123 HD
BRANCH  18  20
ATOM     20  C5  UNL     1       8.731   9.576  21.724  0.00  0.00    +0.117 C 
BRANCH  20  21
ATOM     21  C6  UNL     1       9.284   8.263  21.222  0.00  0.00    -0.020 A 
ATOM     22  C7  UNL     1       8.389   7.191  21.060  0.00  0.00    +0.044 A 
ATOM     23  C8  UNL     1       8.839   5.942  20.630  0.00  0.00    +0.124 A 
ATOM     24  F1  UNL     1       7.963   4.917  20.488  0.00  0.00    -0.205 F 
ATOM     25  C9  UNL     1      10.189   5.748  20.351  0.00  0.00    +0.039 A 
ATOM     26  C10 UNL     1      11.092   6.802  20.485  0.00  0.00    +0.015 A 
ATOM     27  C11 UNL     1      10.660   8.076  20.903  0.00  0.00    +0.027 A 
BRANCH  27  28
ATOM     28  C12 UNL     1      11.672   9.162  20.984  0.00  0.00    +0.205 A 
ATOM     29  N3  UNL     1      11.799  10.175  20.104  0.00  0.00    -0.108 NA
ATOM     30  N4  UNL     1      12.842  10.871  20.525  0.00  0.00    -0.049 NA
ATOM     31  N5  UNL     1      13.331  10.300  21.610  0.00  0.00    -0.176 N 
ATOM     32  N6  UNL     1      12.633   9.225  21.928  0.00  0.00    -0.133 NA
ATOM     33  H12 UNL     1      14.159  10.648  22.142  0.00  0.00    +0.214 HD
ENDBRANCH  27  28
ENDBRANCH  20  21
ENDBRANCH  18  20
ENDBRANCH   3  18
TORSDOF 7
ENDMDL
MODEL 5
REMARK VINA RESULT:    -6.521      6.013     11.441
REMARK INTER + INTRA:         -10.107
REMARK INTER:                  -9.222
REMARK INTRA:                  -0.885
REMARK UNBOUND:                -0.917
REMARK  Name = /home/qwerty/github/datacon2025hack/step_04_hit_selection/docking/ligands/lig_782.pdb
REMARK  7 active torsions:
REMARK  status: ('A' for Active; 'I' for Inactive)
REMARK    1  A    between atoms: C1_2  and  C14_22
REMARK    2  A    between atoms: N1_3  and  C2_4
REMARK    3  A    between atoms: C4_6  and  N2_7
REMARK    4  A    between atoms: N2_7  and  C5_8
REMARK    5  A    between atoms: C5_8  and  C6_9
REMARK    6  A    between atoms: C11_15  and  C12_16
REMARK    7  A    between atoms: C16_24  and  C17_25
REMARK                            x       y       z     vdW  Elec       q    Type
REMARK                         _______ _______ _______ _____ _____    ______ ____
ROOT
ATOM      1  C2  UNL     1      19.587   1.862  25.237  0.00  0.00    +0.076 C 
ATOM      2  C3  UNL     1      19.893   0.590  24.451  0.00  0.00    +0.041 C 
ATOM      3  C4  UNL     1      18.391   0.341  24.280  0.00  0.00    +0.057 C 
ATOM      4  C13 UNL     1      18.088   1.619  25.058  0.00  0.00    +0.041 C 
ENDROOT
BRANCH   1   7
ATOM      5  O1  UNL     1      22.208   2.459  26.157  0.00  0.00    -0.275 OA
ATOM      6  C1  UNL     1      21.360   2.112  27.024  0.00  0.00    +0.217 C 
ATOM      7  N1  UNL     1      20.025   1.768  26.632  0.00  0.00    -0.312 N 
ATOM      8  H1  UNL     1      19.351   1.477  27.375  0.00  0.00    +0.149 HD
BRANCH   6   9
ATOM      9  C14 UNL     1      21.771   2.008  28.460  0.00  0.00    +0.084 C 
ATOM     10  C15 UNL     1      22.671   0.814  28.766  0.00  0.00    +0.023 C 
ATOM     11  C16 UNL     1      21.211   0.797  29.200  0.00  0.00    +0.050 C 
BRANCH  11  12
ATOM     12  C17 UNL     1      20.969   0.974  30.676  0.00  0.00    +0.039 A 
ATOM     13  C18 UNL     1      21.333   2.031  31.490  0.00  0.00    +0.133 A 
ATOM     14  N7  UNL     1      20.919   1.786  32.749  0.00  0.00    -0.244 NA
ATOM     15  C19 UNL     1      20.310   0.584  32.674  0.00  0.00    +0.196 A 
ATOM     16  N8  UNL     1      20.325   0.069  31.431  0.00  0.00    -0.348 N 
ATOM     17  H21 UNL     1      19.921  -0.843  31.121  0.00  0.00    +0.166 HD
ENDBRANCH  11  12
ENDBRANCH   6   9
ENDBRANCH   1   7
BRANCH   3  18
ATOM     18  N2  UNL     1      17.903  -0.857  24.983  0.00  0.00    -0.309 NA
ATOM     19  H6  UNL     1      18.709  -1.379  25.405  0.00  0.00    +0.123 HD
BRANCH  18  20
ATOM     20  C5  UNL     1      17.195  -1.749  24.059  0.00  0.00    +0.117 C 
BRANCH  20  21
ATOM     21  C6  UNL     1      16.056  -1.008  23.400  0.00  0.00    -0.020 A 
ATOM     22  C7  UNL     1      16.219  -0.608  22.061  0.00  0.00    +0.044 A 
ATOM     23  C8  UNL     1      15.219   0.108  21.402  0.00  0.00    +0.124 A 
ATOM     24  F1  UNL     1      15.397   0.493  20.115  0.00  0.00    -0.205 F 
ATOM     25  C9  UNL     1      14.040   0.430  22.069  0.00  0.00    +0.039 A 
ATOM     26  C10 UNL     1      13.848   0.026  23.390  0.00  0.00    +0.015 A 
ATOM     27  C11 UNL     1      14.836  -0.710  24.072  0.00  0.00    +0.027 A 
BRANCH  27  28
ATOM     28  C12 UNL     1      14.545  -1.141  25.465  0.00  0.00    +0.205 A 
ATOM     29  N3  UNL     1      13.800  -2.210  25.810  0.00  0.00    -0.108 NA
ATOM     30  N4  UNL     1      13.761  -2.193  27.132  0.00  0.00    -0.049 NA
ATOM     31  N5  UNL     1      14.446  -1.153  27.570  0.00  0.00    -0.176 N 
ATOM     32  N6  UNL     1      14.948  -0.465  26.560  0.00  0.00    -0.133 NA
ATOM     33  H12 UNL     1      14.570  -0.906  28.576  0.00  0.00    +0.214 HD
ENDBRANCH  27  28
ENDBRANCH  20  21
ENDBRANCH  18  20
ENDBRANCH   3  18
TORSDOF 7
ENDMDL
MODEL 6
REMARK VINA RESULT:    -6.521     14.426     17.585
REMARK INTER + INTRA:         -10.107
REMARK INTER:                  -9.384
REMARK INTRA:                  -0.723
REMARK UNBOUND:                -0.917
REMARK  Name = /home/qwerty/github/datacon2025hack/step_04_hit_selection/docking/ligands/lig_782.pdb
REMARK  7 active torsions:
REMARK  status: ('A' for Active; 'I' for Inactive)
REMARK    1  A    between atoms: C1_2  and  C14_22
REMARK    2  A    between atoms: N1_3  and  C2_4
REMARK    3  A    between atoms: C4_6  and  N2_7
REMARK    4  A    between atoms: N2_7  and  C5_8
REMARK    5  A    between atoms: C5_8  and  C6_9
REMARK    6  A    between atoms: C11_15  and  C12_16
REMARK    7  A    between atoms: C16_24  and  C17_25
REMARK                            x       y       z     vdW  Elec       q    Type
REMARK                         _______ _______ _______ _____ _____    ______ ____
ROOT
ATOM      1  C2  UNL     1       8.211   8.715  27.714  0.00  0.00    +0.076 C 
ATOM      2  C3  UNL     1       7.474   8.791  26.380  0.00  0.00    +0.041 C 
ATOM      3  C4  UNL     1       8.474   7.798  25.778  0.00  0.00    +0.057 C 
ATOM      4  C13 UNL     1       9.203   7.716  27.116  0.00  0.00    +0.041 C 
ENDROOT
BRANCH   1   7
ATOM      5  O1  UNL     1       7.216  10.488  29.700  0.00  0.00    -0.275 OA
ATOM      6  C1  UNL     1       8.280  10.822  29.111  0.00  0.00    +0.217 C 
ATOM      7  N1  UNL     1       8.827   9.993  28.078  0.00  0.00    -0.312 N 
ATOM      8  H1  UNL     1       9.706  10.306  27.606  0.00  0.00    +0.149 HD
BRANCH   6   9
ATOM      9  C14 UNL     1       8.940  12.121  29.460  0.00  0.00    +0.084 C 
ATOM     10  C15 UNL     1       8.131  13.356  29.071  0.00  0.00    +0.023 C 
ATOM     11  C16 UNL     1       9.361  12.967  28.262  0.00  0.00    +0.050 C 
BRANCH  11  12
ATOM     12  C17 UNL     1      10.573  13.841  28.458  0.00  0.00    +0.039 A 
ATOM     13  C18 UNL     1      11.329  14.022  29.602  0.00  0.00    +0.133 A 
ATOM     14  N7  UNL     1      12.327  14.890  29.341  0.00  0.00    -0.244 NA
ATOM     15  C19 UNL     1      12.156  15.218  28.043  0.00  0.00    +0.196 A 
ATOM     16  N8  UNL     1      11.101  14.597  27.484  0.00  0.00    -0.348 N 
ATOM     17  H21 UNL     1      10.767  14.688  26.498  0.00  0.00    +0.166 HD
ENDBRANCH  11  12
ENDBRANCH   6   9
ENDBRANCH   1   7
BRANCH   3  18
ATOM     18  N2  UNL     1       9.325   8.376  24.725  0.00  0.00    -0.309 NA
ATOM     19  H6  UNL     1       8.759   9.013  24.115  0.00  0.00    +0.123 HD
BRANCH  18  20
ATOM     20  C5  UNL     1       9.907   7.320  23.890  0.00  0.00    +0.117 C 
BRANCH  20  21
ATOM     21  C6  UNL     1       8.830   6.685  23.041  0.00  0.00    -0.020 A 
ATOM     22  C7  UNL     1       8.442   5.369  23.347  0.00  0.00    +0.044 A 
ATOM     23  C8  UNL     1       7.475   4.712  22.583  0.00  0.00    +0.124 A 
ATOM     24  F1  UNL     1       7.120   3.440  22.888  0.00  0.00    -0.205 F 
ATOM     25  C9  UNL     1       6.880   5.363  21.506  0.00  0.00    +0.039 A 
ATOM     26  C10 UNL     1       7.236   6.676  21.196  0.00  0.00    +0.015 A 
ATOM     27  C11 UNL     1       8.197   7.365  21.961  0.00  0.00    +0.027 A 
BRANCH  27  28
ATOM     28  C12 UNL     1       8.496   8.775  21.596  0.00  0.00    +0.205 A 
ATOM     29  N3  UNL     1       7.903   9.860  22.134  0.00  0.00    -0.108 NA
ATOM     30  N4  UNL     1       8.426  10.893  21.494  0.00  0.00    -0.049 NA
ATOM     31  N5  UNL     1       9.292  10.452  20.600  0.00  0.00    -0.176 N 
ATOM     32  N6  UNL     1       9.361   9.134  20.627  0.00  0.00    -0.133 NA
ATOM     33  H12 UNL     1       9.843  11.063  19.958  0.00  0.00    +0.214 HD
ENDBRANCH  27  28
ENDBRANCH  20  21
ENDBRANCH  18  20
ENDBRANCH   3  18
TORSDOF 7
ENDMDL
MODEL 7
REMARK VINA RESULT:    -6.483     14.123     17.254
REMARK INTER + INTRA:         -10.053
REMARK INTER:                  -9.204
REMARK INTRA:                  -0.849
REMARK UNBOUND:                -0.917
REMARK  Name = /home/qwerty/github/datacon2025hack/step_04_hit_selection/docking/ligands/lig_782.pdb
REMARK  7 active torsions:
REMARK  status: ('A' for Active; 'I' for Inactive)
REMARK    1  A    between atoms: C1_2  and  C14_22
REMARK    2  A    between atoms: N1_3  and  C2_4
REMARK    3  A    between atoms: C4_6  and  N2_7
REMARK    4  A    between atoms: N2_7  and  C5_8
REMARK    5  A    between atoms: C5_8  and  C6_9
REMARK    6  A    between atoms: C11_15  and  C12_16
REMARK    7  A    between atoms: C16_24  and  C17_25
REMARK                            x       y       z     vdW  Elec       q    Type
REMARK                         _______ _______ _______ _____ _____    ______ ____
ROOT
ATOM      1  C2  UNL     1       8.000   8.720  27.524  0.00  0.00    +0.076 C 
ATOM      2  C3  UNL     1       7.445   8.721  26.102  0.00  0.00    +0.041 C 
ATOM      3  C4  UNL     1       8.473   7.655  25.707  0.00  0.00    +0.057 C 
ATOM      4  C13 UNL     1       9.019   7.649  27.132  0.00  0.00    +0.041 C 
ENDROOT
BRANCH   1   7
ATOM      5  O1  UNL     1       7.168  10.383  29.673  0.00  0.00    -0.275 OA
ATOM      6  C1  UNL     1       8.157  10.773  28.994  0.00  0.00    +0.217 C 
ATOM      7  N1  UNL     1       8.616  10.002  27.876  0.00  0.00    -0.312 N 
ATOM      8  H1  UNL     1       9.433  10.359  27.331  0.00  0.00    +0.149 HD
BRANCH   6   9
ATOM      9  C14 UNL     1       8.814  12.076  29.328  0.00  0.00    +0.084 C 
ATOM     10  C15 UNL     1       8.040  13.305  28.855  0.00  0.00    +0.023 C 
ATOM     11  C16 UNL     1       9.304  12.873  28.122  0.00  0.00    +0.050 C 
BRANCH  11  12
ATOM     12  C17 UNL     1      10.515  13.741  28.347  0.00  0.00    +0.039 A 
ATOM     13  C18 UNL     1      11.264  13.896  29.500  0.00  0.00    +0.133 A 
ATOM     14  N7  UNL     1      12.264  14.769  29.266  0.00  0.00    -0.244 NA
ATOM     15  C19 UNL     1      12.101  15.127  27.975  0.00  0.00    +0.196 A 
ATOM     16  N8  UNL     1      11.050  14.520  27.394  0.00  0.00    -0.348 N 
ATOM     17  H21 UNL     1      10.723  14.633  26.409  0.00  0.00    +0.166 HD
ENDBRANCH  11  12
ENDBRANCH   6   9
ENDBRANCH   1   7
BRANCH   3  18
ATOM     18  N2  UNL     1       9.477   8.126  24.738  0.00  0.00    -0.309 NA
ATOM     19  H6  UNL     1       9.451   9.173  24.674  0.00  0.00    +0.123 HD
BRANCH  18  20
ATOM     20  C5  UNL     1       9.216   7.567  23.407  0.00  0.00    +0.117 C 
BRANCH  20  21
ATOM     21  C6  UNL     1       9.185   8.676  22.382  0.00  0.00    -0.020 A 
ATOM     22  C7  UNL     1       8.340   9.774  22.625  0.00  0.00    +0.044 A 
ATOM     23  C8  UNL     1       8.240  10.818  21.704  0.00  0.00    +0.124 A 
ATOM     24  F1  UNL     1       7.414  11.863  21.952  0.00  0.00    -0.205 F 
ATOM     25  C9  UNL     1       8.987  10.782  20.530  0.00  0.00    +0.039 A 
ATOM     26  C10 UNL     1       9.846   9.714  20.277  0.00  0.00    +0.015 A 
ATOM     27  C11 UNL     1       9.976   8.656  21.197  0.00  0.00    +0.027 A 
BRANCH  27  28
ATOM     28  C12 UNL     1      10.942   7.571  20.880  0.00  0.00    +0.205 A 
ATOM     29  N3  UNL     1      10.631   6.400  20.289  0.00  0.00    -0.108 NA
ATOM     30  N4  UNL     1      11.766   5.722  20.243  0.00  0.00    -0.049 NA
ATOM     31  N5  UNL     1      12.723   6.449  20.790  0.00  0.00    -0.176 N 
ATOM     32  N6  UNL     1      12.249   7.609  21.207  0.00  0.00    -0.133 NA
ATOM     33  H12 UNL     1      13.717   6.145  20.885  0.00  0.00    +0.214 HD
ENDBRANCH  27  28
ENDBRANCH  20  21
ENDBRANCH  18  20
ENDBRANCH   3  18
TORSDOF 7
ENDMDL
MODEL 8
REMARK VINA RESULT:    -6.436     13.801     17.143
REMARK INTER + INTRA:          -9.987
REMARK INTER:                  -9.105
REMARK INTRA:                  -0.882
REMARK UNBOUND:                -0.917
REMARK  Name = /home/qwerty/github/datacon2025hack/step_04_hit_selection/docking/ligands/lig_782.pdb
REMARK  7 active torsions:
REMARK  status: ('A' for Active; 'I' for Inactive)
REMARK    1  A    between atoms: C1_2  and  C14_22
REMARK    2  A    between atoms: N1_3  and  C2_4
REMARK    3  A    between atoms: C4_6  and  N2_7
REMARK    4  A    between atoms: N2_7  and  C5_8
REMARK    5  A    between atoms: C5_8  and  C6_9
REMARK    6  A    between atoms: C11_15  and  C12_16
REMARK    7  A    between atoms: C16_24  and  C17_25
REMARK                            x       y       z     vdW  Elec       q    Type
REMARK                         _______ _______ _______ _____ _____    ______ ____
ROOT
ATOM      1  C2  UNL     1      12.026  13.343  28.932  0.00  0.00    +0.076 C 
ATOM      2  C3  UNL     1      11.529  11.956  28.533  0.00  0.00    +0.041 C 
ATOM      3  C4  UNL     1      10.479  12.601  27.622  0.00  0.00    +0.057 C 
ATOM      4  C13 UNL     1      10.985  13.986  28.015  0.00  0.00    +0.041 C 
ENDROOT
BRANCH   1   7
ATOM      5  O1  UNL     1      13.358  15.364  30.421  0.00  0.00    -0.275 OA
ATOM      6  C1  UNL     1      12.490  14.680  31.028  0.00  0.00    +0.217 C 
ATOM      7  N1  UNL     1      11.797  13.623  30.351  0.00  0.00    -0.312 N 
ATOM      8  H1  UNL     1      11.090  13.072  30.889  0.00  0.00    +0.149 HD
BRANCH   6   9
ATOM      9  C14 UNL     1      12.227  14.942  32.479  0.00  0.00    +0.084 C 
ATOM     10  C15 UNL     1      13.195  14.237  33.426  0.00  0.00    +0.023 C 
ATOM     11  C16 UNL     1      11.769  13.724  33.276  0.00  0.00    +0.050 C 
BRANCH  11  12
ATOM     12  C17 UNL     1      10.853  13.998  34.441  0.00  0.00    +0.039 A 
ATOM     13  C18 UNL     1      10.781  13.341  35.656  0.00  0.00    +0.133 A 
ATOM     14  N7  UNL     1       9.822  13.910  36.413  0.00  0.00    -0.244 NA
ATOM     15  C19 UNL     1       9.331  14.903  35.641  0.00  0.00    +0.196 A 
ATOM     16  N8  UNL     1       9.937  14.980  34.442  0.00  0.00    -0.348 N 
ATOM     17  H21 UNL     1       9.735  15.661  33.677  0.00  0.00    +0.166 HD
ENDBRANCH  11  12
ENDBRANCH   6   9
ENDBRANCH   1   7
BRANCH   3  18
ATOM     18  N2  UNL     1       9.092  12.379  28.062  0.00  0.00    -0.309 NA
ATOM     19  H6  UNL     1       9.074  11.711  28.870  0.00  0.00    +0.123 HD
BRANCH  18  20
ATOM     20  C5  UNL     1       8.284  11.821  26.973  0.00  0.00    +0.117 C 
BRANCH  20  21
ATOM     21  C6  UNL     1       7.935  10.383  27.277  0.00  0.00    -0.020 A 
ATOM     22  C7  UNL     1       7.718  10.029  28.620  0.00  0.00    +0.044 A 
ATOM     23  C8  UNL     1       7.423   8.712  28.974  0.00  0.00    +0.124 A 
ATOM     24  F1  UNL     1       7.225   8.388  30.275  0.00  0.00    -0.205 F 
ATOM     25  C9  UNL     1       7.336   7.730  27.990  0.00  0.00    +0.039 A 
ATOM     26  C10 UNL     1       7.528   8.062  26.650  0.00  0.00    +0.015 A 
ATOM     27  C11 UNL     1       7.812   9.387  26.266  0.00  0.00    +0.027 A 
BRANCH  27  28
ATOM     28  C12 UNL     1       7.964   9.674  24.815  0.00  0.00    +0.205 A 
ATOM     29  N3  UNL     1       9.111   9.564  24.115  0.00  0.00    -0.108 NA
ATOM     30  N4  UNL     1       8.809   9.959  22.889  0.00  0.00    -0.049 NA
ATOM     31  N5  UNL     1       7.535  10.301  22.849  0.00  0.00    -0.176 N 
ATOM     32  N6  UNL     1       6.971  10.145  24.033  0.00  0.00    -0.133 NA
ATOM     33  H12 UNL     1       7.042  10.653  21.999  0.00  0.00    +0.214 HD
ENDBRANCH  27  28
ENDBRANCH  20  21
ENDBRANCH  18  20
ENDBRANCH   3  18
TORSDOF 7
ENDMDL
MODEL 9
REMARK VINA RESULT:    -6.403      3.312      8.483
REMARK INTER + INTRA:          -9.940
REMARK INTER:                  -8.844
REMARK INTRA:                  -1.096
REMARK UNBOUND:                -0.917
REMARK  Name = /home/qwerty/github/datacon2025hack/step_04_hit_selection/docking/ligands/lig_782.pdb
REMARK  7 active torsions:
REMARK  status: ('A' for Active; 'I' for Inactive)
REMARK    1  A    between atoms: C1_2  and  C14_22
REMARK    2  A    between atoms: N1_3  and  C2_4
REMARK    3  A    between atoms: C4_6  and  N2_7
REMARK    4  A    between atoms: N2_7  and  C5_8
REMARK    5  A    between atoms: C5_8  and  C6_9
REMARK    6  A    between atoms: C11_15  and  C12_16
REMARK    7  A    between atoms: C16_24  and  C17_25
REMARK                            x       y       z     vdW  Elec       q    Type
REMARK                         _______ _______ _______ _____ _____    ______ ____
ROOT
ATOM      1  C2  UNL     1      21.818   7.733  31.359  0.00  0.00    +0.076 C 
ATOM      2  C3  UNL     1      22.381   6.324  31.192  0.00  0.00    +0.041 C 
ATOM      3  C4  UNL     1      21.183   5.957  30.309  0.00  0.00    +0.057 C 
ATOM      4  C13 UNL     1      20.629   7.370  30.469  0.00  0.00    +0.041 C 
ENDROOT
BRANCH   1   7
ATOM      5  O1  UNL     1      23.524   8.915  33.301  0.00  0.00    -0.275 OA
ATOM      6  C1  UNL     1      22.347   8.639  33.661  0.00  0.00    +0.217 C 
ATOM      7  N1  UNL     1      21.437   8.014  32.746  0.00  0.00    -0.312 N 
ATOM      8  H1  UNL     1      20.473   7.792  33.081  0.00  0.00    +0.149 HD
BRANCH   6   9
ATOM      9  C14 UNL     1      21.922   8.916  35.070  0.00  0.00    +0.084 C 
ATOM     10  C15 UNL     1      22.244   7.792  36.052  0.00  0.00    +0.023 C 
ATOM     11  C16 UNL     1      20.808   8.012  35.592  0.00  0.00    +0.050 C 
BRANCH  11  12
ATOM     12  C17 UNL     1      19.884   8.620  36.615  0.00  0.00    +0.039 A 
ATOM     13  C18 UNL     1      19.065   7.979  37.527  0.00  0.00    +0.133 A 
ATOM     14  N7  UNL     1      18.405   8.901  38.256  0.00  0.00    -0.244 NA
ATOM     15  C19 UNL     1      18.838  10.084  37.771  0.00  0.00    +0.196 A 
ATOM     16  N8  UNL     1      19.733   9.944  36.777  0.00  0.00    -0.348 N 
ATOM     17  H21 UNL     1      20.210  10.706  36.246  0.00  0.00    +0.166 HD
ENDBRANCH  11  12
ENDBRANCH   6   9
ENDBRANCH   1   7
BRANCH   3  18
ATOM     18  N2  UNL     1      20.291   4.948  30.904  0.00  0.00    -0.309 NA
ATOM     19  H6  UNL     1      20.794   4.429  31.664  0.00  0.00    +0.123 HD
BRANCH  18  20
ATOM     20  C5  UNL     1      19.848   3.985  29.891  0.00  0.00    +0.117 C 
BRANCH  20  21
ATOM     21  C6  UNL     1      21.009   3.118  29.463  0.00  0.00    -0.020 A 
ATOM     22  C7  UNL     1      21.435   3.203  28.125  0.00  0.00    +0.044 A 
ATOM     23  C8  UNL     1      22.482   2.408  27.656  0.00  0.00    +0.124 A 
ATOM     24  F1  UNL     1      22.873   2.497  26.362  0.00  0.00    -0.205 F 
ATOM     25  C9  UNL     1      23.120   1.519  28.518  0.00  0.00    +0.039 A 
ATOM     26  C10 UNL     1      22.727   1.432  29.853  0.00  0.00    +0.015 A 
ATOM     27  C11 UNL     1      21.684   2.235  30.354  0.00  0.00    +0.027 A 
BRANCH  27  28
ATOM     28  C12 UNL     1      21.347   2.118  31.797  0.00  0.00    +0.205 A 
ATOM     29  N3  UNL     1      21.773   2.952  32.767  0.00  0.00    -0.108 NA
ATOM     30  N4  UNL     1      21.283   2.455  33.891  0.00  0.00    -0.049 NA
ATOM     31  N5  UNL     1      20.596   1.363  33.616  0.00  0.00    -0.176 N 
ATOM     32  N6  UNL     1      20.615   1.113  32.319  0.00  0.00    -0.133 NA
ATOM     33  H12 UNL     1      20.108   0.775  34.326  0.00  0.00    +0.214 HD
ENDBRANCH  27  28
ENDBRANCH  20  21
ENDBRANCH  18  20
ENDBRANCH   3  18
TORSDOF 7
ENDMDL
