MODEL 1
REMARK VINA RESULT:    -6.592      0.000      0.000
REMARK INTER + INTRA:          -7.539
REMARK INTER:                  -7.363
REMARK INTRA:                  -0.177
REMARK UNBOUND:                -0.177
REMARK  Name = /home/qwerty/github/datacon2025hack/step_04_hit_selection/docking/ligands/lig_301.pdb
REMARK  2 active torsions:
REMARK  status: ('A' for Active; 'I' for Inactive)
REMARK    1  A    between atoms: C1_2  and  C8_12
REMARK    2  A    between atoms: C11_15  and  C12_16
REMARK                            x       y       z     vdW  Elec       q    Type
REMARK                         _______ _______ _______ _____ _____    ______ ____
ROOT
ATOM      1  C8  UNL     1      21.416   4.084  29.905  0.00  0.00    +0.046 A 
ATOM      2  C9  UNL     1      21.330   5.076  28.918  0.00  0.00    +0.014 A 
ATOM      3  C10 UNL     1      21.418   4.751  27.565  0.00  0.00    +0.015 A 
ATOM      4  C11 UNL     1      21.597   3.420  27.155  0.00  0.00    +0.081 A 
ATOM      5  C13 UNL     1      21.721   2.413  28.137  0.00  0.00    +0.083 A 
ATOM      6  N3  UNL     1      21.932   1.119  27.762  0.00  0.00    -0.254 NA
ATOM      7  C14 UNL     1      22.085   0.118  28.665  0.00  0.00    +0.111 A 
ATOM      8  C15 UNL     1      22.045   0.395  30.028  0.00  0.00    +0.020 A 
ATOM      9  C16 UNL     1      21.832   1.704  30.456  0.00  0.00    +0.012 A 
ATOM     10  C17 UNL     1      21.641   2.739  29.517  0.00  0.00    +0.013 A 
ENDROOT
BRANCH   1  12
ATOM     11  O1  UNL     1      20.113   4.367  31.859  0.00  0.00    -0.270 OA
ATOM     12  C1  UNL     1      21.244   4.493  31.316  0.00  0.00    +0.250 C 
ATOM     13  N1  UNL     1      22.370   4.957  32.079  0.00  0.00    -0.261 N 
ATOM     14  C2  UNL     1      22.268   5.511  33.396  0.00  0.00    +0.165 A 
ATOM     15  N2  UNL     1      21.088   5.709  34.043  0.00  0.00    -0.229 NA
ATOM     16  C3  UNL     1      21.334   6.258  35.255  0.00  0.00    +0.054 A 
ATOM     17  C4  UNL     1      22.618   6.490  35.563  0.00  0.00    +0.014 A 
ATOM     18  S1  UNL     1      23.618   6.018  34.305  0.00  0.00    -0.057 S 
ATOM     19  C5  UNL     1      22.813   7.106  36.885  0.00  0.00    +0.045 C 
ATOM     20  C6  UNL     1      21.357   7.227  37.408  0.00  0.00    +0.011 C 
ATOM     21  C7  UNL     1      20.401   6.673  36.315  0.00  0.00    +0.056 C 
ATOM     22  H1  UNL     1      23.322   4.887  31.654  0.00  0.00    +0.157 HD
ENDBRANCH   1  12
BRANCH   4  23
ATOM     23  C12 UNL     1      21.688   3.072  25.684  0.00  0.00    +0.419 C 
ATOM     24  F1  UNL     1      20.992   1.914  25.384  0.00  0.00    -0.166 F 
ATOM     25  F2  UNL     1      23.013   2.886  25.332  0.00  0.00    -0.166 F 
ATOM     26  F3  UNL     1      21.162   4.108  24.933  0.00  0.00    -0.166 F 
ENDBRANCH   4  23
TORSDOF 2
ENDMDL
MODEL 2
REMARK VINA RESULT:    -6.392      5.728      9.678
REMARK INTER + INTRA:          -7.316
REMARK INTER:                  -7.116
REMARK INTRA:                  -0.200
REMARK UNBOUND:                -0.177
REMARK  Name = /home/qwerty/github/datacon2025hack/step_04_hit_selection/docking/ligands/lig_301.pdb
REMARK  2 active torsions:
REMARK  status: ('A' for Active; 'I' for Inactive)
REMARK    1  A    between atoms: C1_2  and  C8_12
REMARK    2  A    between atoms: C11_15  and  C12_16
REMARK                            x       y       z     vdW  Elec       q    Type
REMARK                         _______ _______ _______ _____ _____    ______ ____
ROOT
ATOM      1  C8  UNL     1      19.137   1.420  28.208  0.00  0.00    +0.046 A 
ATOM      2  C9  UNL     1      18.111   1.334  29.160  0.00  0.00    +0.014 A 
ATOM      3  C10 UNL     1      18.401   1.245  30.520  0.00  0.00    +0.015 A 
ATOM      4  C11 UNL     1      19.730   1.238  30.974  0.00  0.00    +0.081 A 
ATOM      5  C13 UNL     1      20.776   1.288  30.027  0.00  0.00    +0.083 A 
ATOM      6  N3  UNL     1      22.073   1.245  30.444  0.00  0.00    -0.254 NA
ATOM      7  C14 UNL     1      23.115   1.263  29.574  0.00  0.00    +0.111 A 
ATOM      8  C15 UNL     1      22.880   1.311  28.203  0.00  0.00    +0.020 A 
ATOM      9  C16 UNL     1      21.568   1.356  27.734  0.00  0.00    +0.012 A 
ATOM     10  C17 UNL     1      20.486   1.369  28.639  0.00  0.00    +0.013 A 
ENDROOT
BRANCH   1  12
ATOM     11  O1  UNL     1      18.878   2.713  26.243  0.00  0.00    -0.270 OA
ATOM     12  C1  UNL     1      18.754   1.582  26.788  0.00  0.00    +0.250 C 
ATOM     13  N1  UNL     1      18.318   0.448  26.021  0.00  0.00    -0.261 N 
ATOM     14  C2  UNL     1      17.789   0.539  24.692  0.00  0.00    +0.165 A 
ATOM     15  N2  UNL     1      17.590   1.714  24.037  0.00  0.00    -0.229 NA
ATOM     16  C3  UNL     1      17.069   1.457  22.816  0.00  0.00    +0.054 A 
ATOM     17  C4  UNL     1      16.859   0.169  22.508  0.00  0.00    +0.014 A 
ATOM     18  S1  UNL     1      17.316  -0.821  23.779  0.00  0.00    -0.057 S 
ATOM     19  C5  UNL     1      16.271  -0.037  21.175  0.00  0.00    +0.045 C 
ATOM     20  C6  UNL     1      16.143   1.416  20.643  0.00  0.00    +0.011 C 
ATOM     21  C7  UNL     1      16.664   2.382  21.744  0.00  0.00    +0.056 C 
ATOM     22  H1  UNL     1      18.391  -0.502  26.451  0.00  0.00    +0.157 HD
ENDBRANCH   1  12
BRANCH   4  23
ATOM     23  C12 UNL     1      20.038   1.145  32.454  0.00  0.00    +0.419 C 
ATOM     24  F1  UNL     1      20.966   2.095  32.847  0.00  0.00    -0.166 F 
ATOM     25  F2  UNL     1      20.550  -0.107  32.744  0.00  0.00    -0.166 F 
ATOM     26  F3  UNL     1      18.877   1.339  33.179  0.00  0.00    -0.166 F 
ENDBRANCH   4  23
TORSDOF 2
ENDMDL
MODEL 3
REMARK VINA RESULT:    -6.381     11.443     13.788
REMARK INTER + INTRA:          -7.303
REMARK INTER:                  -7.017
REMARK INTRA:                  -0.287
REMARK UNBOUND:                -0.177
REMARK  Name = /home/qwerty/github/datacon2025hack/step_04_hit_selection/docking/ligands/lig_301.pdb
REMARK  2 active torsions:
REMARK  status: ('A' for Active; 'I' for Inactive)
REMARK    1  A    between atoms: C1_2  and  C8_12
REMARK    2  A    between atoms: C11_15  and  C12_16
REMARK                            x       y       z     vdW  Elec       q    Type
REMARK                         _______ _______ _______ _____ _____    ______ ____
ROOT
ATOM      1  C8  UNL     1      12.863   0.873  22.934  0.00  0.00    +0.046 A 
ATOM      2  C9  UNL     1      12.920   0.257  24.192  0.00  0.00    +0.014 A 
ATOM      3  C10 UNL     1      14.035  -0.486  24.578  0.00  0.00    +0.015 A 
ATOM      4  C11 UNL     1      15.131  -0.640  23.713  0.00  0.00    +0.081 A 
ATOM      5  C13 UNL     1      15.076  -0.056  22.429  0.00  0.00    +0.083 A 
ATOM      6  N3  UNL     1      16.113  -0.223  21.561  0.00  0.00    -0.254 NA
ATOM      7  C14 UNL     1      16.100   0.293  20.305  0.00  0.00    +0.111 A 
ATOM      8  C15 UNL     1      14.994   1.009  19.857  0.00  0.00    +0.020 A 
ATOM      9  C16 UNL     1      13.910   1.204  20.713  0.00  0.00    +0.012 A 
ATOM     10  C17 UNL     1      13.939   0.694  22.028  0.00  0.00    +0.013 A 
ENDROOT
BRANCH   1  12
ATOM     11  O1  UNL     1      10.642   1.148  22.169  0.00  0.00    -0.270 OA
ATOM     12  C1  UNL     1      11.680   1.703  22.621  0.00  0.00    +0.250 C 
ATOM     13  N1  UNL     1      11.691   3.114  22.897  0.00  0.00    -0.261 N 
ATOM     14  C2  UNL     1      10.653   4.014  22.490  0.00  0.00    +0.165 A 
ATOM     15  N2  UNL     1       9.576   3.640  21.749  0.00  0.00    -0.229 NA
ATOM     16  C3  UNL     1       8.796   4.722  21.524  0.00  0.00    +0.054 A 
ATOM     17  C4  UNL     1       9.215   5.886  22.041  0.00  0.00    +0.014 A 
ATOM     18  S1  UNL     1      10.659   5.678  22.863  0.00  0.00    -0.057 S 
ATOM     19  C5  UNL     1       8.333   7.025  21.740  0.00  0.00    +0.045 C 
ATOM     20  C6  UNL     1       7.207   6.357  20.906  0.00  0.00    +0.011 C 
ATOM     21  C7  UNL     1       7.538   4.845  20.768  0.00  0.00    +0.056 C 
ATOM     22  H1  UNL     1      12.498   3.511  23.428  0.00  0.00    +0.157 HD
ENDBRANCH   1  12
BRANCH   4  23
ATOM     23  C12 UNL     1      16.341  -1.445  24.139  0.00  0.00    +0.419 C 
ATOM     24  F1  UNL     1      16.600  -2.487  23.264  0.00  0.00    -0.166 F 
ATOM     25  F2  UNL     1      16.124  -1.979  25.396  0.00  0.00    -0.166 F 
ATOM     26  F3  UNL     1      17.451  -0.621  24.182  0.00  0.00    -0.166 F 
ENDBRANCH   4  23
TORSDOF 2
ENDMDL
MODEL 4
REMARK VINA RESULT:    -6.218      5.150      9.037
REMARK INTER + INTRA:          -7.122
REMARK INTER:                  -6.867
REMARK INTRA:                  -0.254
REMARK UNBOUND:                -0.177
REMARK  Name = /home/qwerty/github/datacon2025hack/step_04_hit_selection/docking/ligands/lig_301.pdb
REMARK  2 active torsions:
REMARK  status: ('A' for Active; 'I' for Inactive)
REMARK    1  A    between atoms: C1_2  and  C8_12
REMARK    2  A    between atoms: C11_15  and  C12_16
REMARK                            x       y       z     vdW  Elec       q    Type
REMARK                         _______ _______ _______ _____ _____    ______ ____
ROOT
ATOM      1  C8  UNL     1      21.968   3.455  26.880  0.00  0.00    +0.046 A 
ATOM      2  C9  UNL     1      22.557   2.191  27.025  0.00  0.00    +0.014 A 
ATOM      3  C10 UNL     1      22.272   1.389  28.130  0.00  0.00    +0.015 A 
ATOM      4  C11 UNL     1      21.387   1.828  29.128  0.00  0.00    +0.081 A 
ATOM      5  C13 UNL     1      20.812   3.112  29.016  0.00  0.00    +0.083 A 
ATOM      6  N3  UNL     1      19.979   3.572  29.993  0.00  0.00    -0.254 NA
ATOM      7  C14 UNL     1      19.422   4.809  29.948  0.00  0.00    +0.111 A 
ATOM      8  C15 UNL     1      19.705   5.664  28.887  0.00  0.00    +0.020 A 
ATOM      9  C16 UNL     1      20.553   5.234  27.867  0.00  0.00    +0.012 A 
ATOM     10  C17 UNL     1      21.106   3.937  27.898  0.00  0.00    +0.013 A 
ENDROOT
BRANCH   1  12
ATOM     11  O1  UNL     1      23.264   4.986  25.626  0.00  0.00    -0.270 OA
ATOM     12  C1  UNL     1      22.262   4.220  25.650  0.00  0.00    +0.250 C 
ATOM     13  N1  UNL     1      21.458   4.037  24.472  0.00  0.00    -0.261 N 
ATOM     14  C2  UNL     1      21.576   4.842  23.292  0.00  0.00    +0.165 A 
ATOM     15  N2  UNL     1      22.423   5.900  23.181  0.00  0.00    -0.229 NA
ATOM     16  C3  UNL     1      22.283   6.451  21.954  0.00  0.00    +0.054 A 
ATOM     17  C4  UNL     1      21.386   5.883  21.135  0.00  0.00    +0.014 A 
ATOM     18  S1  UNL     1      20.644   4.584  21.888  0.00  0.00    -0.057 S 
ATOM     19  C5  UNL     1      21.269   6.545  19.826  0.00  0.00    +0.045 C 
ATOM     20  C6  UNL     1      22.309   7.692  19.944  0.00  0.00    +0.011 C 
ATOM     21  C7  UNL     1      22.955   7.617  21.356  0.00  0.00    +0.056 C 
ATOM     22  H1  UNL     1      20.745   3.273  24.470  0.00  0.00    +0.157 HD
ENDBRANCH   1  12
BRANCH   4  23
ATOM     23  C12 UNL     1      21.079   0.950  30.323  0.00  0.00    +0.419 C 
ATOM     24  F1  UNL     1      19.718   0.867  30.564  0.00  0.00    -0.166 F 
ATOM     25  F2  UNL     1      21.687   1.471  31.451  0.00  0.00    -0.166 F 
ATOM     26  F3  UNL     1      21.563  -0.325  30.096  0.00  0.00    -0.166 F 
ENDBRANCH   4  23
TORSDOF 2
ENDMDL
MODEL 5
REMARK VINA RESULT:    -6.187     14.243     16.409
REMARK INTER + INTRA:          -7.086
REMARK INTER:                  -6.955
REMARK INTRA:                  -0.131
REMARK UNBOUND:                -0.177
REMARK  Name = /home/qwerty/github/datacon2025hack/step_04_hit_selection/docking/ligands/lig_301.pdb
REMARK  2 active torsions:
REMARK  status: ('A' for Active; 'I' for Inactive)
REMARK    1  A    between atoms: C1_2  and  C8_12
REMARK    2  A    between atoms: C11_15  and  C12_16
REMARK                            x       y       z     vdW  Elec       q    Type
REMARK                         _______ _______ _______ _____ _____    ______ ____
ROOT
ATOM      1  C8  UNL     1      10.356  11.051  26.805  0.00  0.00    +0.046 A 
ATOM      2  C9  UNL     1      11.643  11.433  26.405  0.00  0.00    +0.014 A 
ATOM      3  C10 UNL     1      12.275  12.536  26.978  0.00  0.00    +0.015 A 
ATOM      4  C11 UNL     1      11.636  13.295  27.972  0.00  0.00    +0.081 A 
ATOM      5  C13 UNL     1      10.325  12.945  28.363  0.00  0.00    +0.083 A 
ATOM      6  N3  UNL     1       9.672  13.690  29.299  0.00  0.00    -0.254 NA
ATOM      7  C14 UNL     1       8.402  13.414  29.690  0.00  0.00    +0.111 A 
ATOM      8  C15 UNL     1       7.713  12.348  29.120  0.00  0.00    +0.020 A 
ATOM      9  C16 UNL     1       8.342  11.560  28.157  0.00  0.00    +0.012 A 
ATOM     10  C17 UNL     1       9.673  11.828  27.775  0.00  0.00    +0.013 A 
ENDROOT
BRANCH   1  12
ATOM     11  O1  UNL     1       9.587   8.817  26.931  0.00  0.00    -0.270 OA
ATOM     12  C1  UNL     1       9.776   9.830  26.204  0.00  0.00    +0.250 C 
ATOM     13  N1  UNL     1       9.365   9.825  24.827  0.00  0.00    -0.261 N 
ATOM     14  C2  UNL     1       8.937   8.650  24.126  0.00  0.00    +0.165 A 
ATOM     15  N2  UNL     1       8.926   7.406  24.674  0.00  0.00    -0.229 NA
ATOM     16  C3  UNL     1       8.483   6.520  23.752  0.00  0.00    +0.054 A 
ATOM     17  C4  UNL     1       8.163   7.013  22.547  0.00  0.00    +0.014 A 
ATOM     18  S1  UNL     1       8.412   8.668  22.504  0.00  0.00    -0.057 S 
ATOM     19  C5  UNL     1       7.710   5.994  21.587  0.00  0.00    +0.045 C 
ATOM     20  C6  UNL     1       7.786   4.692  22.430  0.00  0.00    +0.011 C 
ATOM     21  C7  UNL     1       8.308   5.061  23.847  0.00  0.00    +0.056 C 
ATOM     22  H1  UNL     1       9.376  10.727  24.301  0.00  0.00    +0.157 HD
ENDBRANCH   1  12
BRANCH   4  23
ATOM     23  C12 UNL     1      12.328  14.489  28.594  0.00  0.00    +0.419 C 
ATOM     24  F1  UNL     1      12.231  14.480  29.975  0.00  0.00    -0.166 F 
ATOM     25  F2  UNL     1      11.752  15.656  28.127  0.00  0.00    -0.166 F 
ATOM     26  F3  UNL     1      13.668  14.477  28.249  0.00  0.00    -0.166 F 
ENDBRANCH   4  23
TORSDOF 2
ENDMDL
MODEL 6
REMARK VINA RESULT:    -6.168      6.707      8.628
REMARK INTER + INTRA:          -7.066
REMARK INTER:                  -7.419
REMARK INTRA:                   0.353
REMARK UNBOUND:                -0.177
REMARK  Name = /home/qwerty/github/datacon2025hack/step_04_hit_selection/docking/ligands/lig_301.pdb
REMARK  2 active torsions:
REMARK  status: ('A' for Active; 'I' for Inactive)
REMARK    1  A    between atoms: C1_2  and  C8_12
REMARK    2  A    between atoms: C11_15  and  C12_16
REMARK                            x       y       z     vdW  Elec       q    Type
REMARK                         _______ _______ _______ _____ _____    ______ ____
ROOT
ATOM      1  C8  UNL     1      20.543   9.083  34.789  0.00  0.00    +0.046 A 
ATOM      2  C9  UNL     1      20.938   9.606  33.550  0.00  0.00    +0.014 A 
ATOM      3  C10 UNL     1      22.183   9.297  33.005  0.00  0.00    +0.015 A 
ATOM      4  C11 UNL     1      23.077   8.455  33.685  0.00  0.00    +0.081 A 
ATOM      5  C13 UNL     1      22.710   7.948  34.951  0.00  0.00    +0.083 A 
ATOM      6  N3  UNL     1      23.578   7.158  35.644  0.00  0.00    -0.254 NA
ATOM      7  C14 UNL     1      23.286   6.667  36.876  0.00  0.00    +0.111 A 
ATOM      8  C15 UNL     1      22.072   6.978  37.482  0.00  0.00    +0.020 A 
ATOM      9  C16 UNL     1      21.156   7.783  36.807  0.00  0.00    +0.012 A 
ATOM     10  C17 UNL     1      21.446   8.267  35.515  0.00  0.00    +0.013 A 
ENDROOT
BRANCH   1  12
ATOM     11  O1  UNL     1      18.346   8.462  35.410  0.00  0.00    -0.270 OA
ATOM     12  C1  UNL     1      19.181   9.397  35.272  0.00  0.00    +0.250 C 
ATOM     13  N1  UNL     1      18.837  10.741  35.651  0.00  0.00    -0.261 N 
ATOM     14  C2  UNL     1      17.508  11.161  35.984  0.00  0.00    +0.165 A 
ATOM     15  N2  UNL     1      16.421  10.346  35.924  0.00  0.00    -0.229 NA
ATOM     16  C3  UNL     1      15.322  11.047  36.286  0.00  0.00    +0.054 A 
ATOM     17  C4  UNL     1      15.507  12.334  36.611  0.00  0.00    +0.014 A 
ATOM     18  S1  UNL     1      17.124  12.748  36.472  0.00  0.00    -0.057 S 
ATOM     19  C5  UNL     1      14.270  13.043  36.974  0.00  0.00    +0.045 C 
ATOM     20  C6  UNL     1      13.199  11.927  36.830  0.00  0.00    +0.011 C 
ATOM     21  C7  UNL     1      13.913  10.627  36.366  0.00  0.00    +0.056 C 
ATOM     22  H1  UNL     1      19.597  11.457  35.689  0.00  0.00    +0.157 HD
ENDBRANCH   1  12
BRANCH   4  23
ATOM     23  C12 UNL     1      24.427   8.120  33.086  0.00  0.00    +0.419 C 
ATOM     24  F1  UNL     1      25.116   7.195  33.853  0.00  0.00    -0.166 F 
ATOM     25  F2  UNL     1      25.194   9.267  32.999  0.00  0.00    -0.166 F 
ATOM     26  F3  UNL     1      24.252   7.596  31.819  0.00  0.00    -0.166 F 
ENDBRANCH   4  23
TORSDOF 2
ENDMDL
MODEL 7
REMARK VINA RESULT:    -6.154      7.581     10.011
REMARK INTER + INTRA:          -7.050
REMARK INTER:                  -6.842
REMARK INTRA:                  -0.209
REMARK UNBOUND:                -0.177
REMARK  Name = /home/qwerty/github/datacon2025hack/step_04_hit_selection/docking/ligands/lig_301.pdb
REMARK  2 active torsions:
REMARK  status: ('A' for Active; 'I' for Inactive)
REMARK    1  A    between atoms: C1_2  and  C8_12
REMARK    2  A    between atoms: C11_15  and  C12_16
REMARK                            x       y       z     vdW  Elec       q    Type
REMARK                         _______ _______ _______ _____ _____    ______ ____
ROOT
ATOM      1  C8  UNL     1      19.991   9.940  36.020  0.00  0.00    +0.046 A 
ATOM      2  C9  UNL     1      21.248  10.102  35.421  0.00  0.00    +0.014 A 
ATOM      3  C10 UNL     1      22.153   9.044  35.355  0.00  0.00    +0.015 A 
ATOM      4  C11 UNL     1      21.830   7.786  35.891  0.00  0.00    +0.081 A 
ATOM      5  C13 UNL     1      20.583   7.615  36.529  0.00  0.00    +0.083 A 
ATOM      6  N3  UNL     1      20.264   6.413  37.087  0.00  0.00    -0.254 NA
ATOM      7  C14 UNL     1      19.091   6.203  37.736  0.00  0.00    +0.111 A 
ATOM      8  C15 UNL     1      18.169   7.238  37.864  0.00  0.00    +0.020 A 
ATOM      9  C16 UNL     1      18.455   8.483  37.308  0.00  0.00    +0.012 A 
ATOM     10  C17 UNL     1      19.660   8.692  36.607  0.00  0.00    +0.013 A 
ENDROOT
BRANCH   1  12
ATOM     11  O1  UNL     1      19.329  12.120  36.657  0.00  0.00    -0.270 OA
ATOM     12  C1  UNL     1      19.055  11.085  35.991  0.00  0.00    +0.250 C 
ATOM     13  N1  UNL     1      17.886  11.045  35.155  0.00  0.00    -0.261 N 
ATOM     14  C2  UNL     1      16.854  12.039  35.179  0.00  0.00    +0.165 A 
ATOM     15  N2  UNL     1      16.843  13.096  36.034  0.00  0.00    -0.229 NA
ATOM     16  C3  UNL     1      15.732  13.834  35.811  0.00  0.00    +0.054 A 
ATOM     17  C4  UNL     1      14.904  13.403  34.848  0.00  0.00    +0.014 A 
ATOM     18  S1  UNL     1      15.495  11.999  34.151  0.00  0.00    -0.057 S 
ATOM     19  C5  UNL     1      13.706  14.239  34.673  0.00  0.00    +0.045 C 
ATOM     20  C6  UNL     1      13.922  15.349  35.736  0.00  0.00    +0.011 C 
ATOM     21  C7  UNL     1      15.255  15.056  36.480  0.00  0.00    +0.056 C 
ATOM     22  H1  UNL     1      17.778  10.248  34.488  0.00  0.00    +0.157 HD
ENDBRANCH   1  12
BRANCH   4  23
ATOM     23  C12 UNL     1      22.817   6.640  35.813  0.00  0.00    +0.419 C 
ATOM     24  F1  UNL     1      22.284   5.546  35.152  0.00  0.00    -0.166 F 
ATOM     25  F2  UNL     1      23.171   6.245  37.090  0.00  0.00    -0.166 F 
ATOM     26  F3  UNL     1      23.950   7.052  35.136  0.00  0.00    -0.166 F 
ENDBRANCH   4  23
TORSDOF 2
ENDMDL
MODEL 8
REMARK VINA RESULT:    -6.153     12.945     15.570
REMARK INTER + INTRA:          -7.049
REMARK INTER:                  -6.851
REMARK INTRA:                  -0.198
REMARK UNBOUND:                -0.177
REMARK  Name = /home/qwerty/github/datacon2025hack/step_04_hit_selection/docking/ligands/lig_301.pdb
REMARK  2 active torsions:
REMARK  status: ('A' for Active; 'I' for Inactive)
REMARK    1  A    between atoms: C1_2  and  C8_12
REMARK    2  A    between atoms: C11_15  and  C12_16
REMARK                            x       y       z     vdW  Elec       q    Type
REMARK                         _______ _______ _______ _____ _____    ______ ____
ROOT
ATOM      1  C8  UNL     1      11.483   6.329  20.849  0.00  0.00    +0.046 A 
ATOM      2  C9  UNL     1      12.001   7.620  21.026  0.00  0.00    +0.014 A 
ATOM      3  C10 UNL     1      11.166   8.690  21.341  0.00  0.00    +0.015 A 
ATOM      4  C11 UNL     1       9.781   8.504  21.488  0.00  0.00    +0.081 A 
ATOM      5  C13 UNL     1       9.239   7.218  21.278  0.00  0.00    +0.083 A 
ATOM      6  N3  UNL     1       7.893   7.023  21.379  0.00  0.00    -0.254 NA
ATOM      7  C14 UNL     1       7.317   5.814  21.161  0.00  0.00    +0.111 A 
ATOM      8  C15 UNL     1       8.102   4.721  20.805  0.00  0.00    +0.020 A 
ATOM      9  C16 UNL     1       9.482   4.876  20.689  0.00  0.00    +0.012 A 
ATOM     10  C17 UNL     1      10.084   6.125  20.947  0.00  0.00    +0.013 A 
ENDROOT
BRANCH   1  12
ATOM     11  O1  UNL     1      12.712   4.927  19.392  0.00  0.00    -0.270 OA
ATOM     12  C1  UNL     1      12.436   5.229  20.585  0.00  0.00    +0.250 C 
ATOM     13  N1  UNL     1      13.095   4.563  21.675  0.00  0.00    -0.261 N 
ATOM     14  C2  UNL     1      13.912   3.396  21.521  0.00  0.00    +0.165 A 
ATOM     15  N2  UNL     1      14.106   2.761  20.334  0.00  0.00    -0.229 NA
ATOM     16  C3  UNL     1      14.913   1.693  20.530  0.00  0.00    +0.054 A 
ATOM     17  C4  UNL     1      15.336   1.478  21.784  0.00  0.00    +0.014 A 
ATOM     18  S1  UNL     1      14.721   2.643  22.819  0.00  0.00    -0.057 S 
ATOM     19  C5  UNL     1      16.190   0.289  21.930  0.00  0.00    +0.045 C 
ATOM     20  C6  UNL     1      16.258  -0.247  20.475  0.00  0.00    +0.011 C 
ATOM     21  C7  UNL     1      15.402   0.686  19.574  0.00  0.00    +0.056 C 
ATOM     22  H1  UNL     1      12.976   4.949  22.639  0.00  0.00    +0.157 HD
ENDBRANCH   1  12
BRANCH   4  23
ATOM     23  C12 UNL     1       8.880   9.670  21.834  0.00  0.00    +0.419 C 
ATOM     24  F1  UNL     1       7.925   9.322  22.775  0.00  0.00    -0.166 F 
ATOM     25  F2  UNL     1       8.228  10.108  20.696  0.00  0.00    -0.166 F 
ATOM     26  F3  UNL     1       9.642  10.706  22.345  0.00  0.00    -0.166 F 
ENDBRANCH   4  23
TORSDOF 2
ENDMDL
MODEL 9
REMARK VINA RESULT:    -6.084      1.983      3.252
REMARK INTER + INTRA:          -6.972
REMARK INTER:                  -6.761
REMARK INTRA:                  -0.211
REMARK UNBOUND:                -0.177
REMARK  Name = /home/qwerty/github/datacon2025hack/step_04_hit_selection/docking/ligands/lig_301.pdb
REMARK  2 active torsions:
REMARK  status: ('A' for Active; 'I' for Inactive)
REMARK    1  A    between atoms: C1_2  and  C8_12
REMARK    2  A    between atoms: C11_15  and  C12_16
REMARK                            x       y       z     vdW  Elec       q    Type
REMARK                         _______ _______ _______ _____ _____    ______ ____
ROOT
ATOM      1  C8  UNL     1      20.621   2.919  31.796  0.00  0.00    +0.046 A 
ATOM      2  C9  UNL     1      20.743   1.546  32.055  0.00  0.00    +0.014 A 
ATOM      3  C10 UNL     1      21.228   0.674  31.082  0.00  0.00    +0.015 A 
ATOM      4  C11 UNL     1      21.606   1.147  29.814  0.00  0.00    +0.081 A 
ATOM      5  C13 UNL     1      21.457   2.521  29.526  0.00  0.00    +0.083 A 
ATOM      6  N3  UNL     1      21.784   2.995  28.290  0.00  0.00    -0.254 NA
ATOM      7  C14 UNL     1      21.634   4.301  27.951  0.00  0.00    +0.111 A 
ATOM      8  C15 UNL     1      21.116   5.206  28.873  0.00  0.00    +0.020 A 
ATOM      9  C16 UNL     1      20.769   4.763  30.148  0.00  0.00    +0.012 A 
ATOM     10  C17 UNL     1      20.954   3.413  30.510  0.00  0.00    +0.013 A 
ENDROOT
BRANCH   1  12
ATOM     11  O1  UNL     1      18.954   3.764  33.246  0.00  0.00    -0.270 OA
ATOM     12  C1  UNL     1      20.165   3.794  32.897  0.00  0.00    +0.250 C 
ATOM     13  N1  UNL     1      21.108   4.614  33.609  0.00  0.00    -0.261 N 
ATOM     14  C2  UNL     1      20.734   5.598  34.582  0.00  0.00    +0.165 A 
ATOM     15  N2  UNL     1      19.446   5.900  34.895  0.00  0.00    -0.229 NA
ATOM     16  C3  UNL     1      19.435   6.874  35.834  0.00  0.00    +0.054 A 
ATOM     17  C4  UNL     1      20.627   7.328  36.246  0.00  0.00    +0.014 A 
ATOM     18  S1  UNL     1      21.867   6.532  35.449  0.00  0.00    -0.057 S 
ATOM     19  C5  UNL     1      20.543   8.401  37.250  0.00  0.00    +0.045 C 
ATOM     20  C6  UNL     1      19.009   8.559  37.433  0.00  0.00    +0.011 C 
ATOM     21  C7  UNL     1      18.301   7.553  36.483  0.00  0.00    +0.056 C 
ATOM     22  H1  UNL     1      22.125   4.488  33.411  0.00  0.00    +0.157 HD
ENDBRANCH   1  12
BRANCH   4  23
ATOM     23  C12 UNL     1      22.136   0.195  28.763  0.00  0.00    +0.419 C 
ATOM     24  F1  UNL     1      22.123  -1.118  29.203  0.00  0.00    -0.166 F 
ATOM     25  F2  UNL     1      23.439   0.532  28.445  0.00  0.00    -0.166 F 
ATOM     26  F3  UNL     1      21.355   0.284  27.625  0.00  0.00    -0.166 F 
ENDBRANCH   4  23
TORSDOF 2
ENDMDL
