REMARK  Name = /home/qwerty/github/datacon2025hack/step_04_hit_selection/docking/ligands/lig_416.pdb
REMARK  5 active torsions:
REMARK  status: ('A' for Active; 'I' for Inactive)
REMARK    1  A    between atoms: C1_1  and  O1_2
REMARK    2  A    between atoms: O1_2  and  C2_3
REMARK    3  A    between atoms: C9_10  and  C10_11
REMARK    4  A    between atoms: N1_13  and  C11_14
REMARK    5  A    between atoms: C13_16  and  C14_17
REMARK                            x       y       z     vdW  Elec       q    Type
REMARK                         _______ _______ _______ _____ _____    ______ ____
ROOT
ATOM      1  C10 UNL     1      -0.458  -0.140  -0.911  0.00  0.00    +0.260 C 
ATOM      2  O2  UNL     1      -0.540  -1.330  -0.500  0.00  0.00    -0.271 OA
ATOM      3  N1  UNL     1       0.813   0.522  -0.978  0.00  0.00    -0.251 N 
ATOM      4  H10 UNL     1       0.842   1.522  -1.280  0.00  0.00    +0.158 HD
ENDROOT
BRANCH   1  12
ATOM      5  C2  UNL     1      -5.928   0.308   0.822  0.00  0.00    +0.121 A 
ATOM      6  C3  UNL     1      -6.085  -0.645  -0.218  0.00  0.00    +0.049 A 
ATOM      7  C4  UNL     1      -5.036  -0.895  -1.118  0.00  0.00    +0.049 A 
ATOM      8  C5  UNL     1      -3.849  -0.185  -0.962  0.00  0.00    +0.125 A 
ATOM      9  C6  UNL     1      -3.688   0.733   0.034  0.00  0.00    +0.002 A 
ATOM     10  C7  UNL     1      -4.710   1.003   0.944  0.00  0.00    +0.053 A 
ATOM     11  C8  UNL     1      -2.326   1.327  -0.037  0.00  0.00    +0.093 C 
ATOM     12  C9  UNL     1      -1.710   0.609  -1.272  0.00  0.00    +0.263 C 
ATOM     13  O4  UNL     1      -2.716  -0.292  -1.739  0.00  0.00    -0.479 OA
BRANCH   5  15
ATOM     14  C1  UNL     1      -8.227  -0.036   1.739  0.00  0.00    +0.277 C 
ATOM     15  O1  UNL     1      -6.948   0.589   1.743  0.00  0.00    -0.495 OA
ENDBRANCH   5  15
ENDBRANCH   1  12
BRANCH   3  16
ATOM     16  C11 UNL     1       2.050  -0.121  -0.648  0.00  0.00    +0.225 A 
ATOM     17  C12 UNL     1       3.292   0.471  -0.685  0.00  0.00    +0.097 A 
ATOM     18  C13 UNL     1       4.142  -0.548  -0.287  0.00  0.00    +0.115 A 
ATOM     19  N2  UNL     1       3.418  -1.661  -0.036  0.00  0.00    -0.076 NA
ATOM     20  O3  UNL     1       2.171  -1.368  -0.263  0.00  0.00    -0.339 OA
BRANCH  18  21
ATOM     21  C14 UNL     1       5.617  -0.477  -0.144  0.00  0.00    +0.004 A 
ATOM     22  C15 UNL     1       6.321   0.714  -0.411  0.00  0.00    +0.013 A 
ATOM     23  C16 UNL     1       7.712   0.761  -0.270  0.00  0.00    +0.039 A 
ATOM     24  C17 UNL     1       8.415  -0.375   0.137  0.00  0.00    +0.123 A 
ATOM     25  F1  UNL     1       9.763  -0.326   0.273  0.00  0.00    -0.205 F 
ATOM     26  C18 UNL     1       7.729  -1.561   0.405  0.00  0.00    +0.039 A 
ATOM     27  C19 UNL     1       6.338  -1.614   0.266  0.00  0.00    +0.013 A 
ENDBRANCH  18  21
ENDBRANCH   3  16
TORSDOF 4
