MODEL 1
REMARK VINA RESULT:    -5.591      0.000      0.000
REMARK INTER + INTRA:          -7.208
REMARK INTER:                  -6.572
REMARK INTRA:                  -0.636
REMARK UNBOUND:                -0.636
REMARK  Name = /home/qwerty/github/datacon2025hack/step_04_hit_selection/docking/ligands/lig_124.pdb
REMARK  6 active torsions:
REMARK  status: ('A' for Active; 'I' for Inactive)
REMARK    1  A    between atoms: C1_1  and  C2_2
REMARK    2  A    between atoms: C3_3  and  N1_4
REMARK    3  A    between atoms: C4_5  and  C5_7
REMARK    4  A    between atoms: C8_10  and  C9_11
REMARK    5  A    between atoms: C8_10  and  C10_12
REMARK    6  A    between atoms: C15_18  and  C16_20
REMARK                            x       y       z     vdW  Elec       q    Type
REMARK                         _______ _______ _______ _____ _____    ______ ____
ROOT
ATOM      1  N1  UNL     1       8.040  10.709  25.996  0.00  0.00    -0.310 N 
ATOM      2  C4  UNL     1       8.046  10.247  27.355  0.00  0.00    +0.216 C 
ATOM      3  O1  UNL     1       8.014   9.010  27.597  0.00  0.00    -0.276 OA
ATOM      4  H6  UNL     1       7.981  11.737  25.820  0.00  0.00    +0.149 HD
ENDROOT
BRANCH   1   7
ATOM      5  C1  UNL     1      10.521  10.364  24.665  0.00  0.00    +0.030 C 
ATOM      6  C2  UNL     1       9.420   9.319  24.412  0.00  0.00    +0.093 C 
ATOM      7  C3  UNL     1       8.020   9.774  24.864  0.00  0.00    +0.095 C 
ATOM      8  C13 UNL     1       7.384  10.381  23.613  0.00  0.00    +0.043 C 
ATOM      9  C14 UNL     1       8.035   9.644  22.450  0.00  0.00    +0.110 C 
ATOM     10  N2  UNL     1       9.279   9.097  22.977  0.00  0.00    -0.292 N 
ATOM     11  C15 UNL     1      10.204   8.305  22.207  0.00  0.00    +0.282 C 
ATOM     12  O2  UNL     1      11.178   7.749  22.782  0.00  0.00    -0.269 OA
BRANCH  11  13
ATOM     13  C16 UNL     1      10.040   8.120  20.726  0.00  0.00    +0.426 C 
ATOM     14  F1  UNL     1      11.252   7.791  20.151  0.00  0.00    -0.199 F 
ATOM     15  F2  UNL     1       9.116   7.123  20.473  0.00  0.00    -0.199 F 
ENDBRANCH  11  13
ENDBRANCH   1   7
BRANCH   2  16
ATOM     16  C5  UNL     1       8.036  11.253  28.486  0.00  0.00    +0.075 C 
ATOM     17  C6  UNL     1       8.988  10.829  29.617  0.00  0.00    +0.013 C 
ATOM     18  C7  UNL     1      10.461  11.071  29.262  0.00  0.00    +0.007 C 
ATOM     19  C8  UNL     1      10.754  12.542  28.859  0.00  0.00    -0.035 C 
ATOM     20  C9  UNL     1      12.207  12.630  28.346  0.00  0.00    +0.011 C 
ATOM     21  C10 UNL     1      10.622  13.485  30.077  0.00  0.00    +0.011 C 
ATOM     22  C11 UNL     1       9.796  12.983  27.720  0.00  0.00    +0.007 C 
ATOM     23  C12 UNL     1       8.312  12.702  28.022  0.00  0.00    +0.013 C 
ENDBRANCH   2  16
TORSDOF 3
ENDMDL
MODEL 2
REMARK VINA RESULT:    -5.568      7.022     10.001
REMARK INTER + INTRA:          -7.181
REMARK INTER:                  -6.601
REMARK INTRA:                  -0.580
REMARK UNBOUND:                -0.636
REMARK  Name = /home/qwerty/github/datacon2025hack/step_04_hit_selection/docking/ligands/lig_124.pdb
REMARK  6 active torsions:
REMARK  status: ('A' for Active; 'I' for Inactive)
REMARK    1  A    between atoms: C1_1  and  C2_2
REMARK    2  A    between atoms: C3_3  and  N1_4
REMARK    3  A    between atoms: C4_5  and  C5_7
REMARK    4  A    between atoms: C8_10  and  C9_11
REMARK    5  A    between atoms: C8_10  and  C10_12
REMARK    6  A    between atoms: C15_18  and  C16_20
REMARK                            x       y       z     vdW  Elec       q    Type
REMARK                         _______ _______ _______ _____ _____    ______ ____
ROOT
ATOM      1  N1  UNL     1      10.618  13.797  31.278  0.00  0.00    -0.310 N 
ATOM      2  C4  UNL     1      11.158  13.893  29.952  0.00  0.00    +0.216 C 
ATOM      3  O1  UNL     1      12.377  14.169  29.790  0.00  0.00    -0.276 OA
ATOM      4  H6  UNL     1       9.589  13.651  31.387  0.00  0.00    +0.149 HD
ENDROOT
BRANCH   1   7
ATOM      5  C1  UNL     1      11.341  11.423  32.653  0.00  0.00    +0.030 C 
ATOM      6  C2  UNL     1      12.138  12.703  32.962  0.00  0.00    +0.093 C 
ATOM      7  C3  UNL     1      11.456  13.991  32.468  0.00  0.00    +0.095 C 
ATOM      8  C13 UNL     1      10.657  14.496  33.671  0.00  0.00    +0.043 C 
ATOM      9  C14 UNL     1      11.428  13.995  34.886  0.00  0.00    +0.110 C 
ATOM     10  N2  UNL     1      12.234  12.879  34.407  0.00  0.00    -0.292 N 
ATOM     11  C15 UNL     1      13.136  12.120  35.236  0.00  0.00    +0.282 C 
ATOM     12  O2  UNL     1      13.905  11.272  34.708  0.00  0.00    -0.269 OA
BRANCH  11  13
ATOM     13  C16 UNL     1      13.189  12.312  36.724  0.00  0.00    +0.426 C 
ATOM     14  F1  UNL     1      13.392  11.099  37.353  0.00  0.00    -0.199 F 
ATOM     15  F2  UNL     1      14.209  13.185  37.053  0.00  0.00    -0.199 F 
ENDBRANCH  11  13
ENDBRANCH   1   7
BRANCH   2  16
ATOM     16  C5  UNL     1      10.245  13.713  28.758  0.00  0.00    +0.075 C 
ATOM     17  C6  UNL     1      10.790  12.644  27.796  0.00  0.00    +0.013 C 
ATOM     18  C7  UNL     1      10.571  11.219  28.322  0.00  0.00    +0.007 C 
ATOM     19  C8  UNL     1       9.084  10.915  28.650  0.00  0.00    -0.035 C 
ATOM     20  C9  UNL     1       9.007   9.537  29.341  0.00  0.00    +0.011 C 
ATOM     21  C10 UNL     1       8.237  10.848  27.359  0.00  0.00    +0.011 C 
ATOM     22  C11 UNL     1       8.521  11.990  29.618  0.00  0.00    +0.007 C 
ATOM     23  C12 UNL     1       8.774  13.435  29.146  0.00  0.00    +0.013 C 
ENDBRANCH   2  16
TORSDOF 3
ENDMDL
MODEL 3
REMARK VINA RESULT:    -5.409      4.125      7.338
REMARK INTER + INTRA:          -6.994
REMARK INTER:                  -6.420
REMARK INTRA:                  -0.574
REMARK UNBOUND:                -0.636
REMARK  Name = /home/qwerty/github/datacon2025hack/step_04_hit_selection/docking/ligands/lig_124.pdb
REMARK  6 active torsions:
REMARK  status: ('A' for Active; 'I' for Inactive)
REMARK    1  A    between atoms: C1_1  and  C2_2
REMARK    2  A    between atoms: C3_3  and  N1_4
REMARK    3  A    between atoms: C4_5  and  C5_7
REMARK    4  A    between atoms: C8_10  and  C9_11
REMARK    5  A    between atoms: C8_10  and  C10_12
REMARK    6  A    between atoms: C15_18  and  C16_20
REMARK                            x       y       z     vdW  Elec       q    Type
REMARK                         _______ _______ _______ _____ _____    ______ ____
ROOT
ATOM      1  N1  UNL     1       8.343   9.263  25.312  0.00  0.00    -0.310 N 
ATOM      2  C4  UNL     1       7.968   9.406  23.933  0.00  0.00    +0.216 C 
ATOM      3  O1  UNL     1       7.254  10.381  23.576  0.00  0.00    -0.276 OA
ATOM      4  H6  UNL     1       8.863   8.403  25.600  0.00  0.00    +0.149 HD
ENDROOT
BRANCH   1   7
ATOM      5  C1  UNL     1      10.419  10.933  26.289  0.00  0.00    +0.030 C 
ATOM      6  C2  UNL     1       8.965  11.363  26.555  0.00  0.00    +0.093 C 
ATOM      7  C3  UNL     1       7.935  10.242  26.328  0.00  0.00    +0.095 C 
ATOM      8  C13 UNL     1       7.737   9.608  27.705  0.00  0.00    +0.043 C 
ATOM      9  C14 UNL     1       8.012  10.735  28.693  0.00  0.00    +0.110 C 
ATOM     10  N2  UNL     1       8.810  11.712  27.963  0.00  0.00    -0.292 N 
ATOM     11  C15 UNL     1       9.279  12.954  28.524  0.00  0.00    +0.282 C 
ATOM     12  O2  UNL     1       9.833  13.806  27.778  0.00  0.00    -0.269 OA
BRANCH  11  13
ATOM     13  C16 UNL     1       9.124  13.266  29.984  0.00  0.00    +0.426 C 
ATOM     14  F1  UNL     1      10.237  13.942  30.446  0.00  0.00    -0.199 F 
ATOM     15  F2  UNL     1       7.993  14.036  30.187  0.00  0.00    -0.199 F 
ENDBRANCH  11  13
ENDBRANCH   1   7
BRANCH   2  16
ATOM     16  C5  UNL     1       8.390   8.352  22.932  0.00  0.00    +0.075 C 
ATOM     17  C6  UNL     1       8.291   8.882  21.491  0.00  0.00    +0.013 C 
ATOM     18  C7  UNL     1       9.440   9.839  21.142  0.00  0.00    +0.007 C 
ATOM     19  C8  UNL     1      10.842   9.211  21.371  0.00  0.00    -0.035 C 
ATOM     20  C9  UNL     1      11.908  10.309  21.171  0.00  0.00    +0.011 C 
ATOM     21  C10 UNL     1      11.118   8.087  20.347  0.00  0.00    +0.011 C 
ATOM     22  C11 UNL     1      10.952   8.669  22.821  0.00  0.00    +0.007 C 
ATOM     23  C12 UNL     1       9.783   7.749  23.224  0.00  0.00    +0.013 C 
ENDBRANCH   2  16
TORSDOF 3
ENDMDL
MODEL 4
REMARK VINA RESULT:    -5.306     13.347     15.273
REMARK INTER + INTRA:          -6.873
REMARK INTER:                  -6.336
REMARK INTRA:                  -0.538
REMARK UNBOUND:                -0.636
REMARK  Name = /home/qwerty/github/datacon2025hack/step_04_hit_selection/docking/ligands/lig_124.pdb
REMARK  6 active torsions:
REMARK  status: ('A' for Active; 'I' for Inactive)
REMARK    1  A    between atoms: C1_1  and  C2_2
REMARK    2  A    between atoms: C3_3  and  N1_4
REMARK    3  A    between atoms: C4_5  and  C5_7
REMARK    4  A    between atoms: C8_10  and  C9_11
REMARK    5  A    between atoms: C8_10  and  C10_12
REMARK    6  A    between atoms: C15_18  and  C16_20
REMARK                            x       y       z     vdW  Elec       q    Type
REMARK                         _______ _______ _______ _____ _____    ______ ____
ROOT
ATOM      1  N1  UNL     1      18.552   9.477  36.788  0.00  0.00    -0.310 N 
ATOM      2  C4  UNL     1      18.668   8.130  36.305  0.00  0.00    +0.216 C 
ATOM      3  O1  UNL     1      17.772   7.654  35.556  0.00  0.00    -0.276 OA
ATOM      4  H6  UNL     1      19.260   9.823  37.474  0.00  0.00    +0.149 HD
ENDROOT
BRANCH   1   7
ATOM      5  C1  UNL     1      19.180  12.220  36.423  0.00  0.00    +0.030 C 
ATOM      6  C2  UNL     1      17.842  11.708  35.860  0.00  0.00    +0.093 C 
ATOM      7  C3  UNL     1      17.420  10.335  36.415  0.00  0.00    +0.095 C 
ATOM      8  C13 UNL     1      16.512  10.657  37.603  0.00  0.00    +0.043 C 
ATOM      9  C14 UNL     1      15.884  12.001  37.259  0.00  0.00    +0.110 C 
ATOM     10  N2  UNL     1      16.766  12.605  36.269  0.00  0.00    -0.292 N 
ATOM     11  C15 UNL     1      16.533  13.887  35.654  0.00  0.00    +0.282 C 
ATOM     12  O2  UNL     1      17.266  14.265  34.700  0.00  0.00    -0.269 OA
BRANCH  11  13
ATOM     13  C16 UNL     1      15.431  14.795  36.119  0.00  0.00    +0.426 C 
ATOM     14  F1  UNL     1      15.857  16.109  36.098  0.00  0.00    -0.199 F 
ATOM     15  F2  UNL     1      14.323  14.650  35.306  0.00  0.00    -0.199 F 
ENDBRANCH  11  13
ENDBRANCH   1   7
BRANCH   2  16
ATOM     16  C5  UNL     1      19.839   7.278  36.743  0.00  0.00    +0.075 C 
ATOM     17  C6  UNL     1      20.246   6.283  35.643  0.00  0.00    +0.013 C 
ATOM     18  C7  UNL     1      21.019   6.960  34.502  0.00  0.00    +0.007 C 
ATOM     19  C8  UNL     1      22.272   7.735  34.994  0.00  0.00    -0.035 C 
ATOM     20  C9  UNL     1      22.859   8.523  33.804  0.00  0.00    +0.011 C 
ATOM     21  C10 UNL     1      23.359   6.761  35.503  0.00  0.00    +0.011 C 
ATOM     22  C11 UNL     1      21.873   8.739  36.108  0.00  0.00    +0.007 C 
ATOM     23  C12 UNL     1      21.047   8.103  37.243  0.00  0.00    +0.013 C 
ENDBRANCH   2  16
TORSDOF 3
ENDMDL
MODEL 5
REMARK VINA RESULT:    -5.252     14.807     16.889
REMARK INTER + INTRA:          -6.810
REMARK INTER:                  -6.331
REMARK INTRA:                  -0.478
REMARK UNBOUND:                -0.636
REMARK  Name = /home/qwerty/github/datacon2025hack/step_04_hit_selection/docking/ligands/lig_124.pdb
REMARK  6 active torsions:
REMARK  status: ('A' for Active; 'I' for Inactive)
REMARK    1  A    between atoms: C1_1  and  C2_2
REMARK    2  A    between atoms: C3_3  and  N1_4
REMARK    3  A    between atoms: C4_5  and  C5_7
REMARK    4  A    between atoms: C8_10  and  C9_11
REMARK    5  A    between atoms: C8_10  and  C10_12
REMARK    6  A    between atoms: C15_18  and  C16_20
REMARK                            x       y       z     vdW  Elec       q    Type
REMARK                         _______ _______ _______ _____ _____    ______ ____
ROOT
ATOM      1  N1  UNL     1      20.688   3.893  32.361  0.00  0.00    -0.310 N 
ATOM      2  C4  UNL     1      20.213   2.556  32.147  0.00  0.00    +0.216 C 
ATOM      3  O1  UNL     1      20.233   1.724  33.094  0.00  0.00    -0.276 OA
ATOM      4  H6  UNL     1      20.742   4.540  31.542  0.00  0.00    +0.149 HD
ENDROOT
BRANCH   1   7
ATOM      5  C1  UNL     1      19.209   5.991  33.571  0.00  0.00    +0.030 C 
ATOM      6  C2  UNL     1      20.169   5.182  34.462  0.00  0.00    +0.093 C 
ATOM      7  C3  UNL     1      21.183   4.336  33.671  0.00  0.00    +0.095 C 
ATOM      8  C13 UNL     1      22.427   5.218  33.560  0.00  0.00    +0.043 C 
ATOM      9  C14 UNL     1      22.385   6.104  34.799  0.00  0.00    +0.110 C 
ATOM     10  N2  UNL     1      20.997   6.097  35.241  0.00  0.00    -0.292 N 
ATOM     11  C15 UNL     1      20.515   6.801  36.403  0.00  0.00    +0.282 C 
ATOM     12  O2  UNL     1      19.331   6.619  36.797  0.00  0.00    -0.269 OA
BRANCH  11  13
ATOM     13  C16 UNL     1      21.389   7.754  37.164  0.00  0.00    +0.426 C 
ATOM     14  F1  UNL     1      20.680   8.896  37.486  0.00  0.00    -0.199 F 
ATOM     15  F2  UNL     1      21.853   7.152  38.319  0.00  0.00    -0.199 F 
ENDBRANCH  11  13
ENDBRANCH   1   7
BRANCH   2  16
ATOM     16  C5  UNL     1      19.741   2.142  30.770  0.00  0.00    +0.075 C 
ATOM     17  C6  UNL     1      20.377   3.018  29.677  0.00  0.00    +0.013 C 
ATOM     18  C7  UNL     1      21.843   2.646  29.412  0.00  0.00    +0.007 C 
ATOM     19  C8  UNL     1      22.033   1.147  29.054  0.00  0.00    -0.035 C 
ATOM     20  C9  UNL     1      23.546   0.845  28.994  0.00  0.00    +0.011 C 
ATOM     21  C10 UNL     1      21.428   0.828  27.667  0.00  0.00    +0.011 C 
ATOM     22  C11 UNL     1      21.390   0.253  30.148  0.00  0.00    +0.007 C 
ATOM     23  C12 UNL     1      19.935   0.637  30.479  0.00  0.00    +0.013 C 
ENDBRANCH   2  16
TORSDOF 3
ENDMDL
MODEL 6
REMARK VINA RESULT:    -5.208      4.342      7.769
REMARK INTER + INTRA:          -6.757
REMARK INTER:                  -6.262
REMARK INTRA:                  -0.495
REMARK UNBOUND:                -0.636
REMARK  Name = /home/qwerty/github/datacon2025hack/step_04_hit_selection/docking/ligands/lig_124.pdb
REMARK  6 active torsions:
REMARK  status: ('A' for Active; 'I' for Inactive)
REMARK    1  A    between atoms: C1_1  and  C2_2
REMARK    2  A    between atoms: C3_3  and  N1_4
REMARK    3  A    between atoms: C4_5  and  C5_7
REMARK    4  A    between atoms: C8_10  and  C9_11
REMARK    5  A    between atoms: C8_10  and  C10_12
REMARK    6  A    between atoms: C15_18  and  C16_20
REMARK                            x       y       z     vdW  Elec       q    Type
REMARK                         _______ _______ _______ _____ _____    ______ ____
ROOT
ATOM      1  N1  UNL     1       9.113   9.012  24.814  0.00  0.00    -0.310 N 
ATOM      2  C4  UNL     1       8.663   8.783  23.470  0.00  0.00    +0.216 C 
ATOM      3  O1  UNL     1       7.610   9.341  23.058  0.00  0.00    -0.276 OA
ATOM      4  H6  UNL     1       9.939   8.474  25.161  0.00  0.00    +0.149 HD
ENDROOT
BRANCH   1   7
ATOM      5  C1  UNL     1      10.734  10.817  26.283  0.00  0.00    +0.030 C 
ATOM      6  C2  UNL     1       9.224  11.103  26.213  0.00  0.00    +0.093 C 
ATOM      7  C3  UNL     1       8.389   9.904  25.728  0.00  0.00    +0.095 C 
ATOM      8  C13 UNL     1       7.942   9.195  27.008  0.00  0.00    +0.043 C 
ATOM      9  C14 UNL     1       7.872  10.297  28.057  0.00  0.00    +0.110 C 
ATOM     10  N2  UNL     1       8.716  11.373  27.555  0.00  0.00    -0.292 N 
ATOM     11  C15 UNL     1       8.919  12.627  28.236  0.00  0.00    +0.282 C 
ATOM     12  O2  UNL     1       9.544  13.557  27.659  0.00  0.00    -0.269 OA
BRANCH  11  13
ATOM     13  C16 UNL     1       8.404  12.859  29.627  0.00  0.00    +0.426 C 
ATOM     14  F1  UNL     1       9.211  13.766  30.287  0.00  0.00    -0.199 F 
ATOM     15  F2  UNL     1       7.108  13.337  29.578  0.00  0.00    -0.199 F 
ENDBRANCH  11  13
ENDBRANCH   1   7
BRANCH   2  16
ATOM     16  C5  UNL     1       9.430   7.831  22.577  0.00  0.00    +0.075 C 
ATOM     17  C6  UNL     1      10.044   6.679  23.390  0.00  0.00    +0.013 C 
ATOM     18  C7  UNL     1       8.999   5.633  23.801  0.00  0.00    +0.007 C 
ATOM     19  C8  UNL     1       8.211   5.056  22.593  0.00  0.00    -0.035 C 
ATOM     20  C9  UNL     1       7.072   4.165  23.132  0.00  0.00    +0.011 C 
ATOM     21  C10 UNL     1       9.124   4.178  21.707  0.00  0.00    +0.011 C 
ATOM     22  C11 UNL     1       7.590   6.210  21.763  0.00  0.00    +0.007 C 
ATOM     23  C12 UNL     1       8.602   7.308  21.381  0.00  0.00    +0.013 C 
ENDBRANCH   2  16
TORSDOF 3
ENDMDL
MODEL 7
REMARK VINA RESULT:    -5.130     11.331     13.697
REMARK INTER + INTRA:          -6.666
REMARK INTER:                  -6.162
REMARK INTRA:                  -0.504
REMARK UNBOUND:                -0.636
REMARK  Name = /home/qwerty/github/datacon2025hack/step_04_hit_selection/docking/ligands/lig_124.pdb
REMARK  6 active torsions:
REMARK  status: ('A' for Active; 'I' for Inactive)
REMARK    1  A    between atoms: C1_1  and  C2_2
REMARK    2  A    between atoms: C3_3  and  N1_4
REMARK    3  A    between atoms: C4_5  and  C5_7
REMARK    4  A    between atoms: C8_10  and  C9_11
REMARK    5  A    between atoms: C8_10  and  C10_12
REMARK    6  A    between atoms: C15_18  and  C16_20
REMARK                            x       y       z     vdW  Elec       q    Type
REMARK                         _______ _______ _______ _____ _____    ______ ____
ROOT
ATOM      1  N1  UNL     1      16.570  12.723  35.834  0.00  0.00    -0.310 N 
ATOM      2  C4  UNL     1      15.650  13.308  34.900  0.00  0.00    +0.216 C 
ATOM      3  O1  UNL     1      15.850  13.182  33.662  0.00  0.00    -0.276 OA
ATOM      4  H6  UNL     1      16.433  12.911  36.853  0.00  0.00    +0.149 HD
ENDROOT
BRANCH   1   7
ATOM      5  C1  UNL     1      17.258  10.505  37.465  0.00  0.00    +0.030 C 
ATOM      6  C2  UNL     1      17.858  10.569  36.049  0.00  0.00    +0.093 C 
ATOM      7  C3  UNL     1      17.739  11.955  35.388  0.00  0.00    +0.095 C 
ATOM      8  C13 UNL     1      19.059  12.656  35.709  0.00  0.00    +0.043 C 
ATOM      9  C14 UNL     1      20.075  11.528  35.843  0.00  0.00    +0.110 C 
ATOM     10  N2  UNL     1      19.296  10.328  36.117  0.00  0.00    -0.292 N 
ATOM     11  C15 UNL     1      19.867   9.017  36.298  0.00  0.00    +0.282 C 
ATOM     12  O2  UNL     1      19.110   8.012  36.382  0.00  0.00    -0.269 OA
BRANCH  11  13
ATOM     13  C16 UNL     1      21.351   8.811  36.389  0.00  0.00    +0.426 C 
ATOM     14  F1  UNL     1      21.627   7.621  37.035  0.00  0.00    -0.199 F 
ATOM     15  F2  UNL     1      21.906   8.795  35.123  0.00  0.00    -0.199 F 
ENDBRANCH  11  13
ENDBRANCH   1   7
BRANCH   2  16
ATOM     16  C5  UNL     1      14.477  14.115  35.413  0.00  0.00    +0.075 C 
ATOM     17  C6  UNL     1      13.396  14.277  34.331  0.00  0.00    +0.013 C 
ATOM     18  C7  UNL     1      12.574  12.996  34.133  0.00  0.00    +0.007 C 
ATOM     19  C8  UNL     1      11.924  12.483  35.447  0.00  0.00    -0.035 C 
ATOM     20  C9  UNL     1      11.285  11.104  35.172  0.00  0.00    +0.011 C 
ATOM     21  C10 UNL     1      10.805  13.440  35.920  0.00  0.00    +0.011 C 
ATOM     22  C11 UNL     1      13.005  12.321  36.548  0.00  0.00    +0.007 C 
ATOM     23  C12 UNL     1      13.887  13.571  36.734  0.00  0.00    +0.013 C 
ENDBRANCH   2  16
TORSDOF 3
ENDMDL
MODEL 8
REMARK VINA RESULT:    -5.092     12.403     13.607
REMARK INTER + INTRA:          -6.621
REMARK INTER:                  -5.976
REMARK INTRA:                  -0.644
REMARK UNBOUND:                -0.636
REMARK  Name = /home/qwerty/github/datacon2025hack/step_04_hit_selection/docking/ligands/lig_124.pdb
REMARK  6 active torsions:
REMARK  status: ('A' for Active; 'I' for Inactive)
REMARK    1  A    between atoms: C1_1  and  C2_2
REMARK    2  A    between atoms: C3_3  and  N1_4
REMARK    3  A    between atoms: C4_5  and  C5_7
REMARK    4  A    between atoms: C8_10  and  C9_11
REMARK    5  A    between atoms: C8_10  and  C10_12
REMARK    6  A    between atoms: C15_18  and  C16_20
REMARK                            x       y       z     vdW  Elec       q    Type
REMARK                         _______ _______ _______ _____ _____    ______ ____
ROOT
ATOM      1  N1  UNL     1      19.363   2.792  26.290  0.00  0.00    -0.310 N 
ATOM      2  C4  UNL     1      19.246   2.719  27.719  0.00  0.00    +0.216 C 
ATOM      3  O1  UNL     1      18.156   2.361  28.242  0.00  0.00    -0.276 OA
ATOM      4  H6  UNL     1      20.246   3.172  25.881  0.00  0.00    +0.149 HD
ENDROOT
BRANCH   1   7
ATOM      5  C1  UNL     1      19.639   0.325  24.916  0.00  0.00    +0.030 C 
ATOM      6  C2  UNL     1      18.237   0.958  24.981  0.00  0.00    +0.093 C 
ATOM      7  C3  UNL     1      18.245   2.438  25.406  0.00  0.00    +0.095 C 
ATOM      8  C13 UNL     1      18.265   3.221  24.093  0.00  0.00    +0.043 C 
ATOM      9  C14 UNL     1      17.562   2.315  23.090  0.00  0.00    +0.110 C 
ATOM     10  N2  UNL     1      17.646   0.971  23.647  0.00  0.00    -0.292 N 
ATOM     11  C15 UNL     1      17.086  -0.200  23.021  0.00  0.00    +0.282 C 
ATOM     12  O2  UNL     1      17.075  -1.296  23.644  0.00  0.00    -0.269 OA
BRANCH  11  13
ATOM     13  C16 UNL     1      16.510  -0.152  21.636  0.00  0.00    +0.426 C 
ATOM     14  F1  UNL     1      16.476  -1.422  21.092  0.00  0.00    -0.199 F 
ATOM     15  F2  UNL     1      15.232   0.375  21.672  0.00  0.00    -0.199 F 
ENDBRANCH  11  13
ENDBRANCH   1   7
BRANCH   2  16
ATOM     16  C5  UNL     1      20.419   3.124  28.586  0.00  0.00    +0.075 C 
ATOM     17  C6  UNL     1      20.425   2.348  29.913  0.00  0.00    +0.013 C 
ATOM     18  C7  UNL     1      20.906   0.900  29.740  0.00  0.00    +0.007 C 
ATOM     19  C8  UNL     1      22.305   0.801  29.073  0.00  0.00    -0.035 C 
ATOM     20  C9  UNL     1      22.604  -0.684  28.779  0.00  0.00    +0.011 C 
ATOM     21  C10 UNL     1      23.407   1.330  30.019  0.00  0.00    +0.011 C 
ATOM     22  C11 UNL     1      22.312   1.585  27.733  0.00  0.00    +0.007 C 
ATOM     23  C12 UNL     1      21.781   3.026  27.861  0.00  0.00    +0.013 C 
ENDBRANCH   2  16
TORSDOF 3
ENDMDL
MODEL 9
REMARK VINA RESULT:    -5.070     10.926     13.515
REMARK INTER + INTRA:          -6.595
REMARK INTER:                  -6.119
REMARK INTRA:                  -0.476
REMARK UNBOUND:                -0.636
REMARK  Name = /home/qwerty/github/datacon2025hack/step_04_hit_selection/docking/ligands/lig_124.pdb
REMARK  6 active torsions:
REMARK  status: ('A' for Active; 'I' for Inactive)
REMARK    1  A    between atoms: C1_1  and  C2_2
REMARK    2  A    between atoms: C3_3  and  N1_4
REMARK    3  A    between atoms: C4_5  and  C5_7
REMARK    4  A    between atoms: C8_10  and  C9_11
REMARK    5  A    between atoms: C8_10  and  C10_12
REMARK    6  A    between atoms: C15_18  and  C16_20
REMARK                            x       y       z     vdW  Elec       q    Type
REMARK                         _______ _______ _______ _____ _____    ______ ____
ROOT
ATOM      1  N1  UNL     1      15.550  10.953  36.396  0.00  0.00    -0.310 N 
ATOM      2  C4  UNL     1      14.169  10.565  36.437  0.00  0.00    +0.216 C 
ATOM      3  O1  UNL     1      13.815   9.454  35.958  0.00  0.00    -0.276 OA
ATOM      4  H6  UNL     1      15.809  11.912  36.721  0.00  0.00    +0.149 HD
ENDROOT
BRANCH   1   7
ATOM      5  C1  UNL     1      17.456   9.960  38.250  0.00  0.00    +0.030 C 
ATOM      6  C2  UNL     1      17.352   9.261  36.882  0.00  0.00    +0.093 C 
ATOM      7  C3  UNL     1      16.581  10.075  35.827  0.00  0.00    +0.095 C 
ATOM      8  C13 UNL     1      17.658  10.852  35.069  0.00  0.00    +0.043 C 
ATOM      9  C14 UNL     1      18.905   9.981  35.166  0.00  0.00    +0.110 C 
ATOM     10  N2  UNL     1      18.686   9.107  36.311  0.00  0.00    -0.292 N 
ATOM     11  C15 UNL     1      19.621   8.103  36.752  0.00  0.00    +0.282 C 
ATOM     12  O2  UNL     1      19.286   7.292  37.658  0.00  0.00    -0.269 OA
BRANCH  11  13
ATOM     13  C16 UNL     1      20.995   7.991  36.157  0.00  0.00    +0.426 C 
ATOM     14  F1  UNL     1      21.736   9.118  36.460  0.00  0.00    -0.199 F 
ATOM     15  F2  UNL     1      21.633   6.867  36.647  0.00  0.00    -0.199 F 
ENDBRANCH  11  13
ENDBRANCH   1   7
BRANCH   2  16
ATOM     16  C5  UNL     1      13.142  11.520  37.008  0.00  0.00    +0.075 C 
ATOM     17  C6  UNL     1      13.472  12.976  36.641  0.00  0.00    +0.013 C 
ATOM     18  C7  UNL     1      13.129  13.302  35.180  0.00  0.00    +0.007 C 
ATOM     19  C8  UNL     1      11.650  12.996  34.822  0.00  0.00    -0.035 C 
ATOM     20  C9  UNL     1      11.467  13.179  33.300  0.00  0.00    +0.011 C 
ATOM     21  C10 UNL     1      10.693  13.977  35.538  0.00  0.00    +0.011 C 
ATOM     22  C11 UNL     1      11.304  11.529  35.192  0.00  0.00    +0.007 C 
ATOM     23  C12 UNL     1      11.687  11.152  36.636  0.00  0.00    +0.013 C 
ENDBRANCH   2  16
TORSDOF 3
ENDMDL
