MODEL 1
REMARK VINA RESULT:    -7.374      0.000      0.000
REMARK INTER + INTRA:         -10.269
REMARK INTER:                  -9.529
REMARK INTRA:                  -0.740
REMARK UNBOUND:                -0.740
REMARK  Name = /home/qwerty/github/datacon2025hack/step_04_hit_selection/docking/ligands/lig_423.pdb
REMARK  6 active torsions:
REMARK  status: ('A' for Active; 'I' for Inactive)
REMARK    1  A    between atoms: C1_1  and  N1_2
REMARK    2  A    between atoms: C4_6  and  C5_7
REMARK    3  A    between atoms: C5_7  and  N3_8
REMARK    4  A    between atoms: C5_7  and  C18_26
REMARK    5  A    between atoms: N4_11  and  C7_12
REMARK    6  A    between atoms: C11_16  and  C12_17
REMARK                            x       y       z     vdW  Elec       q    Type
REMARK                         _______ _______ _______ _____ _____    ______ ____
ROOT
ATOM      1  N3  UNL     1      17.394   1.539  23.658  0.00  0.00    -0.285 N 
ATOM      2  C6  UNL     1      18.723   1.496  24.201  0.00  0.00    +0.305 C 
ATOM      3  O1  UNL     1      19.438   0.465  24.047  0.00  0.00    -0.252 OA
ATOM      4  N4  UNL     1      19.251   2.643  24.883  0.00  0.00    -0.269 N 
ATOM      5  H7  UNL     1      16.936   2.476  23.602  0.00  0.00    +0.151 HD
ATOM      6  H8  UNL     1      18.814   3.572  24.694  0.00  0.00    +0.156 HD
ENDROOT
BRANCH   4   7
ATOM      7  C7  UNL     1      20.394   2.584  25.752  0.00  0.00    +0.035 A 
ATOM      8  C8  UNL     1      21.512   3.380  25.473  0.00  0.00    +0.023 A 
ATOM      9  C9  UNL     1      22.628   3.344  26.311  0.00  0.00    +0.003 A 
ATOM     10  C10 UNL     1      22.627   2.537  27.452  0.00  0.00    +0.013 A 
ATOM     11  C11 UNL     1      21.499   1.763  27.771  0.00  0.00    +0.039 A 
ATOM     12  C17 UNL     1      20.389   1.783  26.909  0.00  0.00    +0.036 A 
BRANCH  11  13
ATOM     13  C12 UNL     1      21.479   0.919  28.989  0.00  0.00    +0.247 C 
ATOM     14  O2  UNL     1      22.168  -0.138  29.020  0.00  0.00    -0.270 OA
ATOM     15  N5  UNL     1      20.667   1.262  30.125  0.00  0.00    -0.293 N 
ATOM     16  C13 UNL     1      19.334   1.851  29.959  0.00  0.00    +0.136 C 
ATOM     17  C14 UNL     1      18.394   1.283  31.026  0.00  0.00    +0.179 C 
ATOM     18  O3  UNL     1      18.951   1.433  32.322  0.00  0.00    -0.377 OA
ATOM     19  C15 UNL     1      20.121   0.648  32.434  0.00  0.00    +0.179 C 
ATOM     20  C16 UNL     1      21.209   1.154  31.481  0.00  0.00    +0.136 C 
ENDBRANCH  11  13
ENDBRANCH   4   7
BRANCH   1  21
ATOM     21  C5  UNL     1      16.808   0.400  22.940  0.00  0.00    +0.171 C 
BRANCH  21  22
ATOM     22  C18 UNL     1      16.000  -0.516  23.843  0.00  0.00    -0.020 A 
ATOM     23  C19 UNL     1      16.355  -1.879  23.929  0.00  0.00    +0.009 A 
ATOM     24  C20 UNL     1      15.656  -2.738  24.780  0.00  0.00    +0.038 A 
ATOM     25  C21 UNL     1      14.582  -2.256  25.539  0.00  0.00    +0.123 A 
ATOM     26  F1  UNL     1      13.910  -3.084  26.377  0.00  0.00    -0.205 F 
ATOM     27  C22 UNL     1      14.201  -0.914  25.440  0.00  0.00    +0.038 A 
ATOM     28  C23 UNL     1      14.907  -0.046  24.601  0.00  0.00    +0.009 A 
ENDBRANCH  21  22
BRANCH  21  34
ATOM     29  C1  UNL     1      16.576  -1.017  20.048  0.00  0.00    +0.150 C 
ATOM     30  N1  UNL     1      15.963   0.228  20.509  0.00  0.00    -0.336 N 
ATOM     31  C2  UNL     1      15.111   0.971  19.776  0.00  0.00    +0.106 A 
ATOM     32  C3  UNL     1      14.661   2.013  20.553  0.00  0.00    +0.130 A 
ATOM     33  N2  UNL     1      15.214   1.927  21.780  0.00  0.00    -0.238 NA
ATOM     34  C4  UNL     1      15.985   0.816  21.737  0.00  0.00    +0.134 A 
ENDBRANCH  21  34
ENDBRANCH   1  21
TORSDOF 5
ENDMDL
MODEL 2
REMARK VINA RESULT:    -7.359      3.400      9.073
REMARK INTER + INTRA:         -10.250
REMARK INTER:                  -9.332
REMARK INTRA:                  -0.917
REMARK UNBOUND:                -0.740
REMARK  Name = /home/qwerty/github/datacon2025hack/step_04_hit_selection/docking/ligands/lig_423.pdb
REMARK  6 active torsions:
REMARK  status: ('A' for Active; 'I' for Inactive)
REMARK    1  A    between atoms: C1_1  and  N1_2
REMARK    2  A    between atoms: C4_6  and  C5_7
REMARK    3  A    between atoms: C5_7  and  N3_8
REMARK    4  A    between atoms: C5_7  and  C18_26
REMARK    5  A    between atoms: N4_11  and  C7_12
REMARK    6  A    between atoms: C11_16  and  C12_17
REMARK                            x       y       z     vdW  Elec       q    Type
REMARK                         _______ _______ _______ _____ _____    ______ ____
ROOT
ATOM      1  N3  UNL     1      20.645   0.382  26.170  0.00  0.00    -0.285 N 
ATOM      2  C6  UNL     1      19.359   0.540  25.550  0.00  0.00    +0.305 C 
ATOM      3  O1  UNL     1      18.591   1.477  25.911  0.00  0.00    -0.252 OA
ATOM      4  N4  UNL     1      18.966  -0.345  24.490  0.00  0.00    -0.269 N 
ATOM      5  H7  UNL     1      21.329  -0.242  25.688  0.00  0.00    +0.151 HD
ATOM      6  H8  UNL     1      19.716  -0.857  23.974  0.00  0.00    +0.156 HD
ENDROOT
BRANCH   4   7
ATOM      7  C7  UNL     1      17.604  -0.502  24.061  0.00  0.00    +0.035 A 
ATOM      8  C8  UNL     1      16.743  -1.331  24.794  0.00  0.00    +0.023 A 
ATOM      9  C9  UNL     1      15.414  -1.489  24.399  0.00  0.00    +0.003 A 
ATOM     10  C10 UNL     1      14.922  -0.800  23.288  0.00  0.00    +0.013 A 
ATOM     11  C11 UNL     1      15.759   0.067  22.565  0.00  0.00    +0.039 A 
ATOM     12  C17 UNL     1      17.103   0.203  22.951  0.00  0.00    +0.036 A 
BRANCH  11  13
ATOM     13  C12 UNL     1      15.243   0.819  21.397  0.00  0.00    +0.247 C 
ATOM     14  O2  UNL     1      15.600   0.478  20.234  0.00  0.00    -0.270 OA
ATOM     15  N5  UNL     1      14.368   1.950  21.559  0.00  0.00    -0.293 N 
ATOM     16  C13 UNL     1      14.543   2.895  22.667  0.00  0.00    +0.136 C 
ATOM     17  C14 UNL     1      14.247   4.314  22.172  0.00  0.00    +0.179 C 
ATOM     18  O3  UNL     1      12.980   4.373  21.536  0.00  0.00    -0.377 OA
ATOM     19  C15 UNL     1      12.997   3.589  20.360  0.00  0.00    +0.179 C 
ATOM     20  C16 UNL     1      13.196   2.108  20.697  0.00  0.00    +0.136 C 
ENDBRANCH  11  13
ENDBRANCH   4   7
BRANCH   1  21
ATOM     21  C5  UNL     1      21.104   1.267  27.249  0.00  0.00    +0.171 C 
BRANCH  21  22
ATOM     22  C18 UNL     1      22.283   0.698  28.018  0.00  0.00    -0.020 A 
ATOM     23  C19 UNL     1      22.354  -0.696  28.231  0.00  0.00    +0.009 A 
ATOM     24  C20 UNL     1      23.445  -1.253  28.901  0.00  0.00    +0.038 A 
ATOM     25  C21 UNL     1      24.469  -0.429  29.386  0.00  0.00    +0.123 A 
ATOM     26  F1  UNL     1      25.537  -0.969  30.025  0.00  0.00    -0.205 F 
ATOM     27  C22 UNL     1      24.397   0.956  29.208  0.00  0.00    +0.038 A 
ATOM     28  C23 UNL     1      23.313   1.518  28.525  0.00  0.00    +0.009 A 
ENDBRANCH  21  22
BRANCH  21  34
ATOM     29  C1  UNL     1      20.116   4.086  28.472  0.00  0.00    +0.150 C 
ATOM     30  N1  UNL     1      20.922   3.839  27.278  0.00  0.00    -0.336 N 
ATOM     31  C2  UNL     1      21.457   4.808  26.510  0.00  0.00    +0.106 A 
ATOM     32  C3  UNL     1      22.226   4.218  25.535  0.00  0.00    +0.130 A 
ATOM     33  N2  UNL     1      22.193   2.878  25.690  0.00  0.00    -0.238 NA
ATOM     34  C4  UNL     1      21.411   2.672  26.774  0.00  0.00    +0.134 A 
ENDBRANCH  21  34
ENDBRANCH   1  21
TORSDOF 5
ENDMDL
MODEL 3
REMARK VINA RESULT:    -7.350     11.797     13.725
REMARK INTER + INTRA:         -10.238
REMARK INTER:                  -9.622
REMARK INTRA:                  -0.616
REMARK UNBOUND:                -0.740
REMARK  Name = /home/qwerty/github/datacon2025hack/step_04_hit_selection/docking/ligands/lig_423.pdb
REMARK  6 active torsions:
REMARK  status: ('A' for Active; 'I' for Inactive)
REMARK    1  A    between atoms: C1_1  and  N1_2
REMARK    2  A    between atoms: C4_6  and  C5_7
REMARK    3  A    between atoms: C5_7  and  N3_8
REMARK    4  A    between atoms: C5_7  and  C18_26
REMARK    5  A    between atoms: N4_11  and  C7_12
REMARK    6  A    between atoms: C11_16  and  C12_17
REMARK                            x       y       z     vdW  Elec       q    Type
REMARK                         _______ _______ _______ _____ _____    ______ ____
ROOT
ATOM      1  N3  UNL     1       8.918   7.597  23.967  0.00  0.00    -0.285 N 
ATOM      2  C6  UNL     1       8.277   8.474  24.907  0.00  0.00    +0.305 C 
ATOM      3  O1  UNL     1       7.541   9.417  24.496  0.00  0.00    -0.252 OA
ATOM      4  N4  UNL     1       8.441   8.251  26.315  0.00  0.00    -0.269 N 
ATOM      5  H7  UNL     1       9.313   6.707  24.344  0.00  0.00    +0.151 HD
ATOM      6  H8  UNL     1       8.734   7.300  26.632  0.00  0.00    +0.156 HD
ENDROOT
BRANCH   4   7
ATOM      7  C7  UNL     1       8.153   9.248  27.309  0.00  0.00    +0.035 A 
ATOM      8  C8  UNL     1       7.389   8.901  28.431  0.00  0.00    +0.023 A 
ATOM      9  C9  UNL     1       7.106   9.854  29.411  0.00  0.00    +0.003 A 
ATOM     10  C10 UNL     1       7.608  11.152  29.298  0.00  0.00    +0.013 A 
ATOM     11  C11 UNL     1       8.411  11.508  28.201  0.00  0.00    +0.039 A 
ATOM     12  C17 UNL     1       8.670  10.553  27.203  0.00  0.00    +0.036 A 
BRANCH  11  13
ATOM     13  C12 UNL     1       8.966  12.877  28.081  0.00  0.00    +0.247 C 
ATOM     14  O2  UNL     1       8.184  13.845  27.867  0.00  0.00    -0.270 OA
ATOM     15  N5  UNL     1      10.380  13.123  28.171  0.00  0.00    -0.293 N 
ATOM     16  C13 UNL     1      11.355  12.187  27.600  0.00  0.00    +0.136 C 
ATOM     17  C14 UNL     1      12.516  12.975  26.988  0.00  0.00    +0.179 C 
ATOM     18  O3  UNL     1      13.054  13.892  27.927  0.00  0.00    -0.377 OA
ATOM     19  C15 UNL     1      12.090  14.877  28.242  0.00  0.00    +0.179 C 
ATOM     20  C16 UNL     1      10.886  14.252  28.953  0.00  0.00    +0.136 C 
ENDBRANCH  11  13
ENDBRANCH   4   7
BRANCH   1  21
ATOM     21  C5  UNL     1       8.773   7.770  22.516  0.00  0.00    +0.171 C 
BRANCH  21  22
ATOM     22  C18 UNL     1       9.845   8.665  21.918  0.00  0.00    -0.020 A 
ATOM     23  C19 UNL     1       9.773   8.998  20.548  0.00  0.00    +0.009 A 
ATOM     24  C20 UNL     1      10.722   9.849  19.978  0.00  0.00    +0.038 A 
ATOM     25  C21 UNL     1      11.766  10.362  20.759  0.00  0.00    +0.123 A 
ATOM     26  F1  UNL     1      12.682  11.201  20.211  0.00  0.00    -0.205 F 
ATOM     27  C22 UNL     1      11.866  10.016  22.110  0.00  0.00    +0.038 A 
ATOM     28  C23 UNL     1      10.910   9.176  22.689  0.00  0.00    +0.009 A 
ENDBRANCH  21  22
BRANCH  21  34
ATOM     29  C1  UNL     1       6.339   6.550  20.781  0.00  0.00    +0.150 C 
ATOM     30  N1  UNL     1       7.632   5.945  21.096  0.00  0.00    -0.336 N 
ATOM     31  C2  UNL     1       8.045   4.752  20.626  0.00  0.00    +0.106 A 
ATOM     32  C3  UNL     1       9.338   4.542  21.045  0.00  0.00    +0.130 A 
ATOM     33  N2  UNL     1       9.751   5.603  21.768  0.00  0.00    -0.238 NA
ATOM     34  C4  UNL     1       8.702   6.456  21.765  0.00  0.00    +0.134 A 
ENDBRANCH  21  34
ENDBRANCH   1  21
TORSDOF 5
ENDMDL
MODEL 4
REMARK VINA RESULT:    -7.269      6.875     10.530
REMARK INTER + INTRA:         -10.133
REMARK INTER:                  -9.070
REMARK INTRA:                  -1.064
REMARK UNBOUND:                -0.740
REMARK  Name = /home/qwerty/github/datacon2025hack/step_04_hit_selection/docking/ligands/lig_423.pdb
REMARK  6 active torsions:
REMARK  status: ('A' for Active; 'I' for Inactive)
REMARK    1  A    between atoms: C1_1  and  N1_2
REMARK    2  A    between atoms: C4_6  and  C5_7
REMARK    3  A    between atoms: C5_7  and  N3_8
REMARK    4  A    between atoms: C5_7  and  C18_26
REMARK    5  A    between atoms: N4_11  and  C7_12
REMARK    6  A    between atoms: C11_16  and  C12_17
REMARK                            x       y       z     vdW  Elec       q    Type
REMARK                         _______ _______ _______ _____ _____    ______ ____
ROOT
ATOM      1  N3  UNL     1      10.802   6.492  20.868  0.00  0.00    -0.285 N 
ATOM      2  C6  UNL     1      11.867   5.533  20.942  0.00  0.00    +0.305 C 
ATOM      3  O1  UNL     1      12.125   4.952  22.035  0.00  0.00    -0.252 OA
ATOM      4  N4  UNL     1      12.613   5.204  19.760  0.00  0.00    -0.269 N 
ATOM      5  H7  UNL     1      10.475   6.764  19.914  0.00  0.00    +0.151 HD
ATOM      6  H8  UNL     1      12.176   5.402  18.832  0.00  0.00    +0.156 HD
ENDROOT
BRANCH   4   7
ATOM      7  C7  UNL     1      13.892   4.551  19.793  0.00  0.00    +0.035 A 
ATOM      8  C8  UNL     1      15.060   5.321  19.709  0.00  0.00    +0.023 A 
ATOM      9  C9  UNL     1      16.312   4.706  19.748  0.00  0.00    +0.003 A 
ATOM     10  C10 UNL     1      16.413   3.321  19.904  0.00  0.00    +0.013 A 
ATOM     11  C11 UNL     1      15.254   2.537  20.032  0.00  0.00    +0.039 A 
ATOM     12  C17 UNL     1      13.995   3.158  19.964  0.00  0.00    +0.036 A 
BRANCH  11  13
ATOM     13  C12 UNL     1      15.350   1.070  20.218  0.00  0.00    +0.247 C 
ATOM     14  O2  UNL     1      15.062   0.304  19.256  0.00  0.00    -0.270 OA
ATOM     15  N5  UNL     1      15.733   0.497  21.481  0.00  0.00    -0.293 N 
ATOM     16  C13 UNL     1      15.295   1.087  22.749  0.00  0.00    +0.136 C 
ATOM     17  C14 UNL     1      14.984  -0.031  23.747  0.00  0.00    +0.179 C 
ATOM     18  O3  UNL     1      16.077  -0.929  23.857  0.00  0.00    -0.377 OA
ATOM     19  C15 UNL     1      16.271  -1.600  22.629  0.00  0.00    +0.179 C 
ATOM     20  C16 UNL     1      16.683  -0.616  21.530  0.00  0.00    +0.136 C 
ENDBRANCH  11  13
ENDBRANCH   4   7
BRANCH   1  21
ATOM     21  C5  UNL     1       9.998   6.857  22.042  0.00  0.00    +0.171 C 
BRANCH  21  22
ATOM     22  C18 UNL     1       9.405   8.251  21.943  0.00  0.00    -0.020 A 
ATOM     23  C19 UNL     1       9.722   9.052  20.824  0.00  0.00    +0.009 A 
ATOM     24  C20 UNL     1       9.162  10.324  20.685  0.00  0.00    +0.038 A 
ATOM     25  C21 UNL     1       8.296  10.823  21.667  0.00  0.00    +0.123 A 
ATOM     26  F1  UNL     1       7.740  12.052  21.527  0.00  0.00    -0.205 F 
ATOM     27  C22 UNL     1       7.997  10.052  22.794  0.00  0.00    +0.038 A 
ATOM     28  C23 UNL     1       8.544   8.772  22.931  0.00  0.00    +0.009 A 
ENDBRANCH  21  22
BRANCH  21  34
ATOM     29  C1  UNL     1       9.648   5.012  24.668  0.00  0.00    +0.150 C 
ATOM     30  N1  UNL     1       8.837   5.036  23.451  0.00  0.00    -0.336 N 
ATOM     31  C2  UNL     1       7.725   4.298  23.267  0.00  0.00    +0.106 A 
ATOM     32  C3  UNL     1       7.170   4.641  22.056  0.00  0.00    +0.130 A 
ATOM     33  N2  UNL     1       7.919   5.603  21.478  0.00  0.00    -0.238 NA
ATOM     34  C4  UNL     1       8.916   5.844  22.359  0.00  0.00    +0.134 A 
ENDBRANCH  21  34
ENDBRANCH   1  21
TORSDOF 5
ENDMDL
MODEL 5
REMARK VINA RESULT:    -7.215      5.955      9.257
REMARK INTER + INTRA:         -10.064
REMARK INTER:                  -9.467
REMARK INTRA:                  -0.598
REMARK UNBOUND:                -0.740
REMARK  Name = /home/qwerty/github/datacon2025hack/step_04_hit_selection/docking/ligands/lig_423.pdb
REMARK  6 active torsions:
REMARK  status: ('A' for Active; 'I' for Inactive)
REMARK    1  A    between atoms: C1_1  and  N1_2
REMARK    2  A    between atoms: C4_6  and  C5_7
REMARK    3  A    between atoms: C5_7  and  N3_8
REMARK    4  A    between atoms: C5_7  and  C18_26
REMARK    5  A    between atoms: N4_11  and  C7_12
REMARK    6  A    between atoms: C11_16  and  C12_17
REMARK                            x       y       z     vdW  Elec       q    Type
REMARK                         _______ _______ _______ _____ _____    ______ ____
ROOT
ATOM      1  N3  UNL     1      21.234   2.624  30.774  0.00  0.00    -0.285 N 
ATOM      2  C6  UNL     1      21.432   3.797  31.579  0.00  0.00    +0.305 C 
ATOM      3  O1  UNL     1      22.127   4.759  31.141  0.00  0.00    -0.252 OA
ATOM      4  N4  UNL     1      20.805   3.891  32.866  0.00  0.00    -0.269 N 
ATOM      5  H7  UNL     1      20.475   1.971  31.069  0.00  0.00    +0.151 HD
ATOM      6  H8  UNL     1      19.976   3.284  33.055  0.00  0.00    +0.156 HD
ENDROOT
BRANCH   4   7
ATOM      7  C7  UNL     1      21.215   4.829  33.875  0.00  0.00    +0.035 A 
ATOM      8  C8  UNL     1      22.573   5.150  34.005  0.00  0.00    +0.023 A 
ATOM      9  C9  UNL     1      22.990   6.065  34.972  0.00  0.00    +0.003 A 
ATOM     10  C10 UNL     1      22.054   6.693  35.799  0.00  0.00    +0.013 A 
ATOM     11  C11 UNL     1      20.684   6.415  35.655  0.00  0.00    +0.039 A 
ATOM     12  C17 UNL     1      20.272   5.473  34.698  0.00  0.00    +0.036 A 
BRANCH  11  13
ATOM     13  C12 UNL     1      19.681   7.090  36.513  0.00  0.00    +0.247 C 
ATOM     14  O2  UNL     1      19.082   6.425  37.404  0.00  0.00    -0.270 OA
ATOM     15  N5  UNL     1      19.352   8.479  36.331  0.00  0.00    -0.293 N 
ATOM     16  C13 UNL     1      19.281   9.076  34.994  0.00  0.00    +0.136 C 
ATOM     17  C14 UNL     1      18.125  10.079  34.949  0.00  0.00    +0.179 C 
ATOM     18  O3  UNL     1      18.226  11.014  36.011  0.00  0.00    -0.377 OA
ATOM     19  C15 UNL     1      18.065  10.351  37.249  0.00  0.00    +0.179 C 
ATOM     20  C16 UNL     1      19.210   9.362  37.490  0.00  0.00    +0.136 C 
ENDBRANCH  11  13
ENDBRANCH   4   7
BRANCH   1  21
ATOM     21  C5  UNL     1      21.841   2.480  29.444  0.00  0.00    +0.171 C 
BRANCH  21  22
ATOM     22  C18 UNL     1      22.622   1.187  29.288  0.00  0.00    -0.020 A 
ATOM     23  C19 UNL     1      21.917  -0.016  29.066  0.00  0.00    +0.009 A 
ATOM     24  C20 UNL     1      22.609  -1.214  28.879  0.00  0.00    +0.038 A 
ATOM     25  C21 UNL     1      24.008  -1.235  28.933  0.00  0.00    +0.123 A 
ATOM     26  F1  UNL     1      24.683  -2.396  28.739  0.00  0.00    -0.205 F 
ATOM     27  C22 UNL     1      24.718  -0.056  29.183  0.00  0.00    +0.038 A 
ATOM     28  C23 UNL     1      24.031   1.150  29.355  0.00  0.00    +0.009 A 
ENDBRANCH  21  22
BRANCH  21  34
ATOM     29  C1  UNL     1      22.386   2.995  26.304  0.00  0.00    +0.150 C 
ATOM     30  N1  UNL     1      21.108   2.915  27.011  0.00  0.00    -0.336 N 
ATOM     31  C2  UNL     1      19.904   2.982  26.409  0.00  0.00    +0.106 A 
ATOM     32  C3  UNL     1      18.931   2.778  27.359  0.00  0.00    +0.130 A 
ATOM     33  N2  UNL     1      19.513   2.570  28.558  0.00  0.00    -0.238 NA
ATOM     34  C4  UNL     1      20.842   2.634  28.315  0.00  0.00    +0.134 A 
ENDBRANCH  21  34
ENDBRANCH   1  21
TORSDOF 5
ENDMDL
MODEL 6
REMARK VINA RESULT:    -7.198      6.134     12.045
REMARK INTER + INTRA:         -10.043
REMARK INTER:                  -9.092
REMARK INTRA:                  -0.950
REMARK UNBOUND:                -0.740
REMARK  Name = /home/qwerty/github/datacon2025hack/step_04_hit_selection/docking/ligands/lig_423.pdb
REMARK  6 active torsions:
REMARK  status: ('A' for Active; 'I' for Inactive)
REMARK    1  A    between atoms: C1_1  and  N1_2
REMARK    2  A    between atoms: C4_6  and  C5_7
REMARK    3  A    between atoms: C5_7  and  N3_8
REMARK    4  A    between atoms: C5_7  and  C18_26
REMARK    5  A    between atoms: N4_11  and  C7_12
REMARK    6  A    between atoms: C11_16  and  C12_17
REMARK                            x       y       z     vdW  Elec       q    Type
REMARK                         _______ _______ _______ _____ _____    ______ ____
ROOT
ATOM      1  N3  UNL     1      21.230   5.217  33.380  0.00  0.00    -0.285 N 
ATOM      2  C6  UNL     1      21.648   4.120  32.554  0.00  0.00    +0.305 C 
ATOM      3  O1  UNL     1      22.822   3.659  32.655  0.00  0.00    -0.252 OA
ATOM      4  N4  UNL     1      20.717   3.520  31.641  0.00  0.00    -0.269 N 
ATOM      5  H7  UNL     1      20.204   5.406  33.433  0.00  0.00    +0.151 HD
ATOM      6  H8  UNL     1      19.697   3.658  31.818  0.00  0.00    +0.156 HD
ENDROOT
BRANCH   4   7
ATOM      7  C7  UNL     1      21.119   2.684  30.544  0.00  0.00    +0.035 A 
ATOM      8  C8  UNL     1      21.334   1.317  30.764  0.00  0.00    +0.023 A 
ATOM      9  C9  UNL     1      21.715   0.486  29.709  0.00  0.00    +0.003 A 
ATOM     10  C10 UNL     1      21.855   1.004  28.419  0.00  0.00    +0.013 A 
ATOM     11  C11 UNL     1      21.603   2.364  28.171  0.00  0.00    +0.039 A 
ATOM     12  C17 UNL     1      21.246   3.201  29.241  0.00  0.00    +0.036 A 
BRANCH  11  13
ATOM     13  C12 UNL     1      21.729   2.920  26.803  0.00  0.00    +0.247 C 
ATOM     14  O2  UNL     1      22.797   3.505  26.469  0.00  0.00    -0.270 OA
ATOM     15  N5  UNL     1      20.648   2.836  25.857  0.00  0.00    -0.293 N 
ATOM     16  C13 UNL     1      19.252   2.984  26.280  0.00  0.00    +0.136 C 
ATOM     17  C14 UNL     1      18.479   3.761  25.211  0.00  0.00    +0.179 C 
ATOM     18  O3  UNL     1      18.652   3.169  23.933  0.00  0.00    -0.377 OA
ATOM     19  C15 UNL     1      20.003   3.277  23.534  0.00  0.00    +0.179 C 
ATOM     20  C16 UNL     1      20.911   2.467  24.465  0.00  0.00    +0.136 C 
ENDBRANCH  11  13
ENDBRANCH   4   7
BRANCH   1  21
ATOM     21  C5  UNL     1      22.137   5.859  34.341  0.00  0.00    +0.171 C 
BRANCH  21  22
ATOM     22  C18 UNL     1      22.995   6.942  33.710  0.00  0.00    -0.020 A 
ATOM     23  C19 UNL     1      22.398   8.172  33.360  0.00  0.00    +0.009 A 
ATOM     24  C20 UNL     1      23.169   9.201  32.814  0.00  0.00    +0.038 A 
ATOM     25  C21 UNL     1      24.538   9.011  32.590  0.00  0.00    +0.123 A 
ATOM     26  F1  UNL     1      25.292  10.013  32.073  0.00  0.00    -0.205 F 
ATOM     27  C22 UNL     1      25.137   7.787  32.906  0.00  0.00    +0.038 A 
ATOM     28  C23 UNL     1      24.372   6.759  33.466  0.00  0.00    +0.009 A 
ENDBRANCH  21  22
BRANCH  21  34
ATOM     29  C1  UNL     1      23.360   6.675  37.215  0.00  0.00    +0.150 C 
ATOM     30  N1  UNL     1      21.963   6.670  36.783  0.00  0.00    -0.336 N 
ATOM     31  C2  UNL     1      20.934   7.092  37.542  0.00  0.00    +0.106 A 
ATOM     32  C3  UNL     1      19.784   7.034  36.789  0.00  0.00    +0.130 A 
ATOM     33  N2  UNL     1      20.083   6.590  35.551  0.00  0.00    -0.238 NA
ATOM     34  C4  UNL     1      21.422   6.397  35.564  0.00  0.00    +0.134 A 
ENDBRANCH  21  34
ENDBRANCH   1  21
TORSDOF 5
ENDMDL
MODEL 7
REMARK VINA RESULT:    -7.039      6.530     10.005
REMARK INTER + INTRA:          -9.836
REMARK INTER:                  -9.010
REMARK INTRA:                  -0.826
REMARK UNBOUND:                -0.740
REMARK  Name = /home/qwerty/github/datacon2025hack/step_04_hit_selection/docking/ligands/lig_423.pdb
REMARK  6 active torsions:
REMARK  status: ('A' for Active; 'I' for Inactive)
REMARK    1  A    between atoms: C1_1  and  N1_2
REMARK    2  A    between atoms: C4_6  and  C5_7
REMARK    3  A    between atoms: C5_7  and  N3_8
REMARK    4  A    between atoms: C5_7  and  C18_26
REMARK    5  A    between atoms: N4_11  and  C7_12
REMARK    6  A    between atoms: C11_16  and  C12_17
REMARK                            x       y       z     vdW  Elec       q    Type
REMARK                         _______ _______ _______ _____ _____    ______ ____
ROOT
ATOM      1  N3  UNL     1      21.858   4.292  31.439  0.00  0.00    -0.285 N 
ATOM      2  C6  UNL     1      22.109   4.557  32.828  0.00  0.00    +0.305 C 
ATOM      3  O1  UNL     1      22.289   3.601  33.635  0.00  0.00    -0.252 OA
ATOM      4  N4  UNL     1      22.195   5.913  33.290  0.00  0.00    -0.269 N 
ATOM      5  H7  UNL     1      21.951   5.096  30.780  0.00  0.00    +0.151 HD
ATOM      6  H8  UNL     1      22.401   6.660  32.589  0.00  0.00    +0.156 HD
ENDROOT
BRANCH   4   7
ATOM      7  C7  UNL     1      22.084   6.282  34.675  0.00  0.00    +0.035 A 
ATOM      8  C8  UNL     1      23.237   6.328  35.469  0.00  0.00    +0.023 A 
ATOM      9  C9  UNL     1      23.151   6.692  36.814  0.00  0.00    +0.003 A 
ATOM     10  C10 UNL     1      21.919   7.044  37.371  0.00  0.00    +0.013 A 
ATOM     11  C11 UNL     1      20.758   7.044  36.580  0.00  0.00    +0.039 A 
ATOM     12  C17 UNL     1      20.846   6.650  35.234  0.00  0.00    +0.036 A 
BRANCH  11  13
ATOM     13  C12 UNL     1      19.449   7.434  37.155  0.00  0.00    +0.247 C 
ATOM     14  O2  UNL     1      18.746   6.563  37.740  0.00  0.00    -0.270 OA
ATOM     15  N5  UNL     1      18.947   8.777  37.035  0.00  0.00    -0.293 N 
ATOM     16  C13 UNL     1      19.159   9.562  35.815  0.00  0.00    +0.136 C 
ATOM     17  C14 UNL     1      17.907  10.395  35.526  0.00  0.00    +0.179 C 
ATOM     18  O3  UNL     1      17.533  11.156  36.663  0.00  0.00    -0.377 OA
ATOM     19  C15 UNL     1      17.143  10.291  37.711  0.00  0.00    +0.179 C 
ATOM     20  C16 UNL     1      18.326   9.440  38.183  0.00  0.00    +0.136 C 
ENDBRANCH  11  13
ENDBRANCH   4   7
BRANCH   1  21
ATOM     21  C5  UNL     1      21.773   2.925  30.910  0.00  0.00    +0.171 C 
BRANCH  21  22
ATOM     22  C18 UNL     1      20.558   2.169  31.418  0.00  0.00    -0.020 A 
ATOM     23  C19 UNL     1      20.729   0.866  31.934  0.00  0.00    +0.009 A 
ATOM     24  C20 UNL     1      19.638   0.160  32.445  0.00  0.00    +0.038 A 
ATOM     25  C21 UNL     1      18.360   0.733  32.430  0.00  0.00    +0.123 A 
ATOM     26  F1  UNL     1      17.301   0.055  32.938  0.00  0.00    -0.205 F 
ATOM     27  C22 UNL     1      18.172   2.011  31.895  0.00  0.00    +0.038 A 
ATOM     28  C23 UNL     1      19.264   2.728  31.395  0.00  0.00    +0.009 A 
ENDBRANCH  21  22
BRANCH  21  34
ATOM     29  C1  UNL     1      23.001   0.622  29.009  0.00  0.00    +0.150 C 
ATOM     30  N1  UNL     1      22.420   1.910  28.629  0.00  0.00    -0.336 N 
ATOM     31  C2  UNL     1      22.241   2.314  27.357  0.00  0.00    +0.106 A 
ATOM     32  C3  UNL     1      21.587   3.524  27.372  0.00  0.00    +0.130 A 
ATOM     33  N2  UNL     1      21.339   3.882  28.649  0.00  0.00    -0.238 NA
ATOM     34  C4  UNL     1      21.835   2.869  29.397  0.00  0.00    +0.134 A 
ENDBRANCH  21  34
ENDBRANCH   1  21
TORSDOF 5
ENDMDL
MODEL 8
REMARK VINA RESULT:    -7.009     13.686     16.896
REMARK INTER + INTRA:          -9.798
REMARK INTER:                  -8.893
REMARK INTRA:                  -0.905
REMARK UNBOUND:                -0.740
REMARK  Name = /home/qwerty/github/datacon2025hack/step_04_hit_selection/docking/ligands/lig_423.pdb
REMARK  6 active torsions:
REMARK  status: ('A' for Active; 'I' for Inactive)
REMARK    1  A    between atoms: C1_1  and  N1_2
REMARK    2  A    between atoms: C4_6  and  C5_7
REMARK    3  A    between atoms: C5_7  and  N3_8
REMARK    4  A    between atoms: C5_7  and  C18_26
REMARK    5  A    between atoms: N4_11  and  C7_12
REMARK    6  A    between atoms: C11_16  and  C12_17
REMARK                            x       y       z     vdW  Elec       q    Type
REMARK                         _______ _______ _______ _____ _____    ______ ____
ROOT
ATOM      1  N3  UNL     1      12.983  13.210  33.297  0.00  0.00    -0.285 N 
ATOM      2  C6  UNL     1      12.030  13.529  32.272  0.00  0.00    +0.305 C 
ATOM      3  O1  UNL     1      10.927  14.069  32.576  0.00  0.00    -0.252 OA
ATOM      4  N4  UNL     1      12.349  13.270  30.897  0.00  0.00    -0.269 N 
ATOM      5  H7  UNL     1      13.956  12.990  32.987  0.00  0.00    +0.151 HD
ATOM      6  H8  UNL     1      13.355  13.170  30.636  0.00  0.00    +0.156 HD
ENDROOT
BRANCH   4   7
ATOM      7  C7  UNL     1      11.359  13.214  29.856  0.00  0.00    +0.035 A 
ATOM      8  C8  UNL     1      11.365  14.189  28.849  0.00  0.00    +0.023 A 
ATOM      9  C9  UNL     1      10.417  14.147  27.825  0.00  0.00    +0.003 A 
ATOM     10  C10 UNL     1       9.476  13.116  27.778  0.00  0.00    +0.013 A 
ATOM     11  C11 UNL     1       9.481  12.106  28.755  0.00  0.00    +0.039 A 
ATOM     12  C17 UNL     1      10.420  12.168  29.799  0.00  0.00    +0.036 A 
BRANCH  11  13
ATOM     13  C12 UNL     1       8.500  10.997  28.704  0.00  0.00    +0.247 C 
ATOM     14  O2  UNL     1       7.501  11.019  29.475  0.00  0.00    -0.270 OA
ATOM     15  N5  UNL     1       8.678   9.879  27.815  0.00  0.00    -0.293 N 
ATOM     16  C13 UNL     1      10.008   9.322  27.549  0.00  0.00    +0.136 C 
ATOM     17  C14 UNL     1       9.905   7.798  27.440  0.00  0.00    +0.179 C 
ATOM     18  O3  UNL     1       8.907   7.425  26.503  0.00  0.00    -0.377 OA
ATOM     19  C15 UNL     1       7.636   7.829  26.970  0.00  0.00    +0.179 C 
ATOM     20  C16 UNL     1       7.545   9.356  27.050  0.00  0.00    +0.136 C 
ENDBRANCH  11  13
ENDBRANCH   4   7
BRANCH   1  21
ATOM     21  C5  UNL     1      12.715  13.465  34.719  0.00  0.00    +0.171 C 
BRANCH  21  22
ATOM     22  C18 UNL     1      12.181  12.245  35.448  0.00  0.00    -0.020 A 
ATOM     23  C19 UNL     1      12.098  11.016  34.757  0.00  0.00    +0.009 A 
ATOM     24  C20 UNL     1      11.648   9.868  35.411  0.00  0.00    +0.038 A 
ATOM     25  C21 UNL     1      11.254   9.931  36.754  0.00  0.00    +0.123 A 
ATOM     26  F1  UNL     1      10.830   8.814  37.396  0.00  0.00    -0.205 F 
ATOM     27  C22 UNL     1      11.303  11.148  37.442  0.00  0.00    +0.038 A 
ATOM     28  C23 UNL     1      11.767  12.298  36.795  0.00  0.00    +0.009 A 
ENDBRANCH  21  22
BRANCH  21  34
ATOM     29  C1  UNL     1      15.593  12.119  35.290  0.00  0.00    +0.150 C 
ATOM     30  N1  UNL     1      15.085  13.417  35.733  0.00  0.00    -0.336 N 
ATOM     31  C2  UNL     1      15.809  14.318  36.425  0.00  0.00    +0.106 A 
ATOM     32  C3  UNL     1      15.051  15.453  36.588  0.00  0.00    +0.130 A 
ATOM     33  N2  UNL     1      13.854  15.282  35.990  0.00  0.00    -0.238 NA
ATOM     34  C4  UNL     1      13.908  14.040  35.455  0.00  0.00    +0.134 A 
ENDBRANCH  21  34
ENDBRANCH   1  21
TORSDOF 5
ENDMDL
MODEL 9
REMARK VINA RESULT:    -6.752      3.251      9.356
REMARK INTER + INTRA:          -9.465
REMARK INTER:                  -8.502
REMARK INTRA:                  -0.963
REMARK UNBOUND:                -0.740
REMARK  Name = /home/qwerty/github/datacon2025hack/step_04_hit_selection/docking/ligands/lig_423.pdb
REMARK  6 active torsions:
REMARK  status: ('A' for Active; 'I' for Inactive)
REMARK    1  A    between atoms: C1_1  and  N1_2
REMARK    2  A    between atoms: C4_6  and  C5_7
REMARK    3  A    between atoms: C5_7  and  N3_8
REMARK    4  A    between atoms: C5_7  and  C18_26
REMARK    5  A    between atoms: N4_11  and  C7_12
REMARK    6  A    between atoms: C11_16  and  C12_17
REMARK                            x       y       z     vdW  Elec       q    Type
REMARK                         _______ _______ _______ _____ _____    ______ ____
ROOT
ATOM      1  N3  UNL     1      19.462   1.549  27.266  0.00  0.00    -0.285 N 
ATOM      2  C6  UNL     1      18.970   0.643  26.266  0.00  0.00    +0.305 C 
ATOM      3  O1  UNL     1      19.764   0.135  25.424  0.00  0.00    -0.252 OA
ATOM      4  N4  UNL     1      17.580   0.286  26.251  0.00  0.00    -0.269 N 
ATOM      5  H7  UNL     1      18.829   1.755  28.071  0.00  0.00    +0.151 HD
ATOM      6  H8  UNL     1      17.030   0.415  27.129  0.00  0.00    +0.156 HD
ENDROOT
BRANCH   4   7
ATOM      7  C7  UNL     1      16.932  -0.306  25.113  0.00  0.00    +0.035 A 
ATOM      8  C8  UNL     1      17.118  -1.670  24.848  0.00  0.00    +0.023 A 
ATOM      9  C9  UNL     1      16.490  -2.265  23.753  0.00  0.00    +0.003 A 
ATOM     10  C10 UNL     1      15.646  -1.514  22.930  0.00  0.00    +0.013 A 
ATOM     11  C11 UNL     1      15.415  -0.156  23.205  0.00  0.00    +0.039 A 
ATOM     12  C17 UNL     1      16.071   0.445  24.293  0.00  0.00    +0.036 A 
BRANCH  11  13
ATOM     13  C12 UNL     1      14.507   0.646  22.351  0.00  0.00    +0.247 C 
ATOM     14  O2  UNL     1      13.308   0.275  22.204  0.00  0.00    -0.270 OA
ATOM     15  N5  UNL     1      14.969   1.819  21.659  0.00  0.00    -0.293 N 
ATOM     16  C13 UNL     1      16.313   1.879  21.074  0.00  0.00    +0.136 C 
ATOM     17  C14 UNL     1      16.253   2.638  19.746  0.00  0.00    +0.179 C 
ATOM     18  O3  UNL     1      15.621   3.897  19.911  0.00  0.00    -0.377 OA
ATOM     19  C15 UNL     1      14.266   3.711  20.269  0.00  0.00    +0.179 C 
ATOM     20  C16 UNL     1      14.153   3.035  21.639  0.00  0.00    +0.136 C 
ENDBRANCH  11  13
ENDBRANCH   4   7
BRANCH   1  21
ATOM     21  C5  UNL     1      20.876   1.939  27.337  0.00  0.00    +0.171 C 
BRANCH  21  22
ATOM     22  C18 UNL     1      21.216   3.097  26.415  0.00  0.00    -0.020 A 
ATOM     23  C19 UNL     1      22.572   3.370  26.129  0.00  0.00    +0.009 A 
ATOM     24  C20 UNL     1      22.915   4.403  25.255  0.00  0.00    +0.038 A 
ATOM     25  C21 UNL     1      21.915   5.191  24.671  0.00  0.00    +0.123 A 
ATOM     26  F1  UNL     1      22.245   6.187  23.810  0.00  0.00    -0.205 F 
ATOM     27  C22 UNL     1      20.570   4.951  24.969  0.00  0.00    +0.038 A 
ATOM     28  C23 UNL     1      20.221   3.908  25.832  0.00  0.00    +0.009 A 
ENDBRANCH  21  22
BRANCH  21  34
ATOM     29  C1  UNL     1      23.052   0.364  29.129  0.00  0.00    +0.150 C 
ATOM     30  N1  UNL     1      22.216   1.507  29.497  0.00  0.00    -0.336 N 
ATOM     31  C2  UNL     1      22.285   2.145  30.681  0.00  0.00    +0.106 A 
ATOM     32  C3  UNL     1      21.429   3.221  30.647  0.00  0.00    +0.130 A 
ATOM     33  N2  UNL     1      20.827   3.275  29.441  0.00  0.00    -0.238 NA
ATOM     34  C4  UNL     1      21.342   2.233  28.748  0.00  0.00    +0.134 A 
ENDBRANCH  21  34
ENDBRANCH   1  21
TORSDOF 5
ENDMDL
