REMARK  Name = /home/qwerty/github/datacon2025hack/step_04_hit_selection/docking/ligands/lig_164.pdb
REMARK  2 active torsions:
REMARK  status: ('A' for Active; 'I' for Inactive)
REMARK    1  A    between atoms: C1_2  and  C22_24
REMARK    2  A    between atoms: N1_3  and  C2_4
REMARK                            x       y       z     vdW  Elec       q    Type
REMARK                         _______ _______ _______ _____ _____    ______ ____
ROOT
ATOM      1  C2  UNL     1       0.662   1.400   1.406  0.00  0.00    +0.038 A 
ATOM      2  C3  UNL     1       0.571   2.274   2.502  0.00  0.00    +0.023 A 
ATOM      3  C4  UNL     1      -0.674   2.593   3.067  0.00  0.00    +0.002 A 
ATOM      4  C5  UNL     1      -1.853   2.053   2.542  0.00  0.00    +0.005 A 
ATOM      5  C6  UNL     1      -1.780   1.200   1.440  0.00  0.00    -0.030 A 
ATOM      6  C7  UNL     1      -0.524   0.882   0.853  0.00  0.00    -0.010 A 
ATOM      7  C8  UNL     1      -0.635   0.010  -0.404  0.00  0.00    +0.081 C 
ATOM      8  C9  UNL     1      -1.601   0.768  -1.313  0.00  0.00    -0.031 A 
ATOM      9  C10 UNL     1      -1.335   1.158  -2.627  0.00  0.00    +0.005 A 
ATOM     10  C11 UNL     1      -2.319   1.854  -3.344  0.00  0.00    +0.000 A 
ATOM     11  C12 UNL     1      -3.556   2.157  -2.749  0.00  0.00    +0.000 A 
ATOM     12  C13 UNL     1      -3.826   1.768  -1.430  0.00  0.00    +0.005 A 
ATOM     13  C14 UNL     1      -2.850   1.075  -0.713  0.00  0.00    -0.032 A 
ATOM     14  C15 UNL     1      -2.987   0.591   0.728  0.00  0.00    +0.080 C 
ATOM     15  C16 UNL     1      -2.675  -0.902   0.659  0.00  0.00    -0.032 A 
ATOM     16  C17 UNL     1      -3.500  -1.923   1.133  0.00  0.00    +0.005 A 
ATOM     17  C18 UNL     1      -3.080  -3.255   1.006  0.00  0.00    +0.000 A 
ATOM     18  C19 UNL     1      -1.844  -3.560   0.410  0.00  0.00    +0.000 A 
ATOM     19  C20 UNL     1      -1.012  -2.537  -0.068  0.00  0.00    +0.005 A 
ATOM     20  C21 UNL     1      -1.428  -1.211   0.056  0.00  0.00    -0.031 A 
ENDROOT
BRANCH   1  23
ATOM     21  O1  UNL     1       1.797  -1.199   1.370  0.00  0.00    -0.270 OA
ATOM     22  C1  UNL     1       2.407  -0.283   0.752  0.00  0.00    +0.248 C 
ATOM     23  N1  UNL     1       1.950   1.074   0.868  0.00  0.00    -0.281 N 
ATOM     24  H1  UNL     1       2.650   1.844   0.775  0.00  0.00    +0.155 HD
BRANCH  22  25
ATOM     25  C22 UNL     1       3.593  -0.621  -0.070  0.00  0.00    +0.037 A 
ATOM     26  C23 UNL     1       4.257  -1.848   0.116  0.00  0.00    +0.014 A 
ATOM     27  C24 UNL     1       5.370  -2.178  -0.664  0.00  0.00    +0.016 A 
ATOM     28  C25 UNL     1       5.828  -1.291  -1.643  0.00  0.00    +0.018 A 
ATOM     29 BR1  UNL     1       7.346  -1.745  -2.708  0.00  0.00    -0.050 Br
ATOM     30  C26 UNL     1       5.170  -0.075  -1.844  0.00  0.00    +0.016 A 
ATOM     31  C27 UNL     1       4.057   0.259  -1.065  0.00  0.00    +0.014 A 
ENDBRANCH  22  25
ENDBRANCH   1  23
TORSDOF 2
