MODEL 1
REMARK VINA RESULT:    -6.652      0.000      0.000
REMARK INTER + INTRA:          -9.625
REMARK INTER:                  -8.986
REMARK INTRA:                  -0.639
REMARK UNBOUND:                -0.639
REMARK  Name = /home/qwerty/github/datacon2025hack/step_04_hit_selection/docking/ligands/lig_548.pdb
REMARK  6 active torsions:
REMARK  status: ('A' for Active; 'I' for Inactive)
REMARK    1  A    between atoms: N1_3  and  C2_4
REMARK    2  A    between atoms: C5_7  and  C6_8
REMARK    3  A    between atoms: C6_8  and  N2_9
REMARK    4  A    between atoms: N3_17  and  C13_18
REMARK    5  A    between atoms: C16_21  and  O3_22
REMARK    6  A    between atoms: O3_22  and  C17_23
REMARK                            x       y       z     vdW  Elec       q    Type
REMARK                         _______ _______ _______ _____ _____    ______ ____
ROOT
ATOM      1  O1  UNL     1      17.293  10.612  35.899  0.00  0.00    -0.252 OA
ATOM      2  C1  UNL     1      17.837  11.345  36.770  0.00  0.00    +0.308 C 
ATOM      3  N1  UNL     1      19.061  10.935  37.400  0.00  0.00    -0.269 N 
ATOM      4  N3  UNL     1      17.239  12.596  37.140  0.00  0.00    -0.269 N 
ATOM      5  H1  UNL     1      19.332  11.419  38.286  0.00  0.00    +0.156 HD
ATOM      6  H16 UNL     1      17.837  13.284  37.649  0.00  0.00    +0.156 HD
ENDROOT
BRANCH   3   7
ATOM      7  C2  UNL     1      19.863   9.825  36.963  0.00  0.00    +0.035 A 
ATOM      8  C3  UNL     1      19.658   8.562  37.537  0.00  0.00    +0.023 A 
ATOM      9  C4  UNL     1      20.440   7.470  37.147  0.00  0.00    +0.007 A 
ATOM     10  C5  UNL     1      21.457   7.630  36.195  0.00  0.00    -0.033 A 
ATOM     11  C11 UNL     1      21.673   8.897  35.628  0.00  0.00    +0.007 A 
ATOM     12  C12 UNL     1      20.890   9.987  36.016  0.00  0.00    +0.023 A 
BRANCH  10  13
ATOM     13  C6  UNL     1      22.305   6.448  35.772  0.00  0.00    +0.119 C 
BRANCH  13  14
ATOM     14  N2  UNL     1      22.918   6.591  34.433  0.00  0.00    -0.294 NA
ATOM     15  C7  UNL     1      22.205   5.852  33.375  0.00  0.00    +0.113 C 
ATOM     16  C8  UNL     1      22.887   6.087  32.011  0.00  0.00    +0.175 C 
ATOM     17  O2  UNL     1      23.935   7.034  32.108  0.00  0.00    -0.377 OA
ATOM     18  C9  UNL     1      24.929   6.560  32.999  0.00  0.00    +0.175 C 
ATOM     19  C10 UNL     1      24.357   6.282  34.405  0.00  0.00    +0.113 C 
ENDBRANCH  13  14
ENDBRANCH  10  13
ENDBRANCH   3   7
BRANCH   4  20
ATOM     20  C13 UNL     1      15.918  13.009  36.746  0.00  0.00    +0.035 A 
ATOM     21  C14 UNL     1      15.759  14.193  36.013  0.00  0.00    +0.027 A 
ATOM     22  C15 UNL     1      14.485  14.628  35.636  0.00  0.00    +0.047 A 
ATOM     23  C16 UNL     1      13.348  13.897  35.998  0.00  0.00    +0.127 A 
ATOM     24  C18 UNL     1      13.502  12.720  36.755  0.00  0.00    +0.047 A 
ATOM     25  C19 UNL     1      14.777  12.285  37.131  0.00  0.00    +0.027 A 
BRANCH  23  26
ATOM     26  O3  UNL     1      12.093  14.377  35.593  0.00  0.00    -0.434 OA
BRANCH  26  27
ATOM     27  C17 UNL     1      10.849  13.750  35.894  0.00  0.00    +0.541 C 
ATOM     28  F1  UNL     1      10.565  12.785  34.944  0.00  0.00    -0.166 F 
ATOM     29  F2  UNL     1       9.848  14.702  35.879  0.00  0.00    -0.166 F 
ENDBRANCH  26  27
ENDBRANCH  23  26
ENDBRANCH   4  20
TORSDOF 6
ENDMDL
MODEL 2
REMARK VINA RESULT:    -6.576     15.175     16.751
REMARK INTER + INTRA:          -9.521
REMARK INTER:                  -8.855
REMARK INTRA:                  -0.667
REMARK UNBOUND:                -0.639
REMARK  Name = /home/qwerty/github/datacon2025hack/step_04_hit_selection/docking/ligands/lig_548.pdb
REMARK  6 active torsions:
REMARK  status: ('A' for Active; 'I' for Inactive)
REMARK    1  A    between atoms: N1_3  and  C2_4
REMARK    2  A    between atoms: C5_7  and  C6_8
REMARK    3  A    between atoms: C6_8  and  N2_9
REMARK    4  A    between atoms: N3_17  and  C13_18
REMARK    5  A    between atoms: C16_21  and  O3_22
REMARK    6  A    between atoms: O3_22  and  C17_23
REMARK                            x       y       z     vdW  Elec       q    Type
REMARK                         _______ _______ _______ _____ _____    ______ ____
ROOT
ATOM      1  O1  UNL     1      12.132   4.488  21.689  0.00  0.00    -0.252 OA
ATOM      2  C1  UNL     1      11.515   3.866  20.782  0.00  0.00    +0.308 C 
ATOM      3  N1  UNL     1      12.087   2.688  20.192  0.00  0.00    -0.269 N 
ATOM      4  N3  UNL     1      10.234   4.329  20.329  0.00  0.00    -0.269 N 
ATOM      5  H1  UNL     1      11.689   2.363  19.282  0.00  0.00    +0.156 HD
ATOM      6  H16 UNL     1       9.644   3.659  19.786  0.00  0.00    +0.156 HD
ENDROOT
BRANCH   3   7
ATOM      7  C2  UNL     1      13.245   2.008  20.705  0.00  0.00    +0.035 A 
ATOM      8  C3  UNL     1      14.506   2.293  20.162  0.00  0.00    +0.023 A 
ATOM      9  C4  UNL     1      15.645   1.629  20.626  0.00  0.00    +0.007 A 
ATOM     10  C5  UNL     1      15.539   0.651  21.626  0.00  0.00    -0.033 A 
ATOM     11  C11 UNL     1      14.275   0.355  22.162  0.00  0.00    +0.007 A 
ATOM     12  C12 UNL     1      13.137   1.019  21.699  0.00  0.00    +0.023 A 
BRANCH  10  13
ATOM     13  C6  UNL     1      16.773  -0.069  22.130  0.00  0.00    +0.119 C 
BRANCH  13  14
ATOM     14  N2  UNL     1      16.576  -0.783  23.410  0.00  0.00    -0.294 NA
ATOM     15  C7  UNL     1      17.138  -0.075  24.574  0.00  0.00    +0.113 C 
ATOM     16  C8  UNL     1      16.855  -0.868  25.867  0.00  0.00    +0.175 C 
ATOM     17  O2  UNL     1      16.037  -1.996  25.618  0.00  0.00    -0.377 OA
ATOM     18  C9  UNL     1      16.691  -2.875  24.719  0.00  0.00    +0.175 C 
ATOM     19  C10 UNL     1      17.031  -2.184  23.382  0.00  0.00    +0.113 C 
ENDBRANCH  13  14
ENDBRANCH  10  13
ENDBRANCH   3   7
BRANCH   4  20
ATOM     20  C13 UNL     1       9.663   5.601  20.681  0.00  0.00    +0.035 A 
ATOM     21  C14 UNL     1       8.462   5.639  21.403  0.00  0.00    +0.027 A 
ATOM     22  C15 UNL     1       7.875   6.862  21.740  0.00  0.00    +0.047 A 
ATOM     23  C16 UNL     1       8.468   8.068  21.348  0.00  0.00    +0.127 A 
ATOM     24  C18 UNL     1       9.662   8.033  20.601  0.00  0.00    +0.047 A 
ATOM     25  C19 UNL     1      10.248   6.809  20.265  0.00  0.00    +0.027 A 
BRANCH  23  26
ATOM     26  O3  UNL     1       7.839   9.268  21.712  0.00  0.00    -0.434 OA
BRANCH  26  27
ATOM     27  C17 UNL     1       8.382  10.568  21.497  0.00  0.00    +0.541 C 
ATOM     28  F1  UNL     1       9.436  10.788  22.366  0.00  0.00    -0.166 F 
ATOM     29  F2  UNL     1       7.402  11.512  21.731  0.00  0.00    -0.166 F 
ENDBRANCH  26  27
ENDBRANCH  23  26
ENDBRANCH   4  20
TORSDOF 6
ENDMDL
MODEL 3
REMARK VINA RESULT:    -6.166      8.611     12.303
REMARK INTER + INTRA:          -8.969
REMARK INTER:                  -8.148
REMARK INTRA:                  -0.820
REMARK UNBOUND:                -0.639
REMARK  Name = /home/qwerty/github/datacon2025hack/step_04_hit_selection/docking/ligands/lig_548.pdb
REMARK  6 active torsions:
REMARK  status: ('A' for Active; 'I' for Inactive)
REMARK    1  A    between atoms: N1_3  and  C2_4
REMARK    2  A    between atoms: C5_7  and  C6_8
REMARK    3  A    between atoms: C6_8  and  N2_9
REMARK    4  A    between atoms: N3_17  and  C13_18
REMARK    5  A    between atoms: C16_21  and  O3_22
REMARK    6  A    between atoms: O3_22  and  C17_23
REMARK                            x       y       z     vdW  Elec       q    Type
REMARK                         _______ _______ _______ _____ _____    ______ ____
ROOT
ATOM      1  O1  UNL     1      10.911  12.108  31.489  0.00  0.00    -0.252 OA
ATOM      2  C1  UNL     1      10.653  13.301  31.172  0.00  0.00    +0.308 C 
ATOM      3  N1  UNL     1      10.111  13.606  29.877  0.00  0.00    -0.269 N 
ATOM      4  N3  UNL     1      10.898  14.367  32.101  0.00  0.00    -0.269 N 
ATOM      5  H1  UNL     1      10.163  14.598  29.555  0.00  0.00    +0.156 HD
ATOM      6  H16 UNL     1      10.434  15.285  31.915  0.00  0.00    +0.156 HD
ENDROOT
BRANCH   3   7
ATOM      7  C2  UNL     1       9.622  12.619  28.953  0.00  0.00    +0.035 A 
ATOM      8  C3  UNL     1      10.352  12.348  27.787  0.00  0.00    +0.023 A 
ATOM      9  C4  UNL     1       9.887  11.411  26.860  0.00  0.00    +0.007 A 
ATOM     10  C5  UNL     1       8.671  10.745  27.073  0.00  0.00    -0.033 A 
ATOM     11  C11 UNL     1       7.932  11.024  28.233  0.00  0.00    +0.007 A 
ATOM     12  C12 UNL     1       8.397  11.960  29.161  0.00  0.00    +0.023 A 
BRANCH  10  13
ATOM     13  C6  UNL     1       8.167   9.729  26.069  0.00  0.00    +0.119 C 
BRANCH  13  14
ATOM     14  N2  UNL     1       8.647   9.954  24.687  0.00  0.00    -0.294 NA
ATOM     15  C7  UNL     1       7.562  10.180  23.715  0.00  0.00    +0.113 C 
ATOM     16  C8  UNL     1       8.152  10.443  22.314  0.00  0.00    +0.175 C 
ATOM     17  O2  UNL     1       9.565  10.516  22.347  0.00  0.00    -0.377 OA
ATOM     18  C9  UNL     1      10.098   9.284  22.804  0.00  0.00    +0.175 C 
ATOM     19  C10 UNL     1       9.571   8.913  24.206  0.00  0.00    +0.113 C 
ENDBRANCH  13  14
ENDBRANCH  10  13
ENDBRANCH   3   7
BRANCH   4  20
ATOM     20  C13 UNL     1      11.632  14.217  33.329  0.00  0.00    +0.035 A 
ATOM     21  C14 UNL     1      13.030  14.306  33.309  0.00  0.00    +0.027 A 
ATOM     22  C15 UNL     1      13.769  14.142  34.485  0.00  0.00    +0.047 A 
ATOM     23  C16 UNL     1      13.124  13.871  35.697  0.00  0.00    +0.127 A 
ATOM     24  C18 UNL     1      11.721  13.756  35.717  0.00  0.00    +0.047 A 
ATOM     25  C19 UNL     1      10.983  13.920  34.541  0.00  0.00    +0.027 A 
BRANCH  23  26
ATOM     26  O3  UNL     1      13.911  13.716  36.848  0.00  0.00    -0.434 OA
BRANCH  26  27
ATOM     27  C17 UNL     1      14.660  12.546  37.169  0.00  0.00    +0.541 C 
ATOM     28  F1  UNL     1      15.971  12.695  36.754  0.00  0.00    -0.166 F 
ATOM     29  F2  UNL     1      14.104  11.462  36.519  0.00  0.00    -0.166 F 
ENDBRANCH  26  27
ENDBRANCH  23  26
ENDBRANCH   4  20
TORSDOF 6
ENDMDL
MODEL 4
REMARK VINA RESULT:    -6.145      5.911     11.266
REMARK INTER + INTRA:          -8.939
REMARK INTER:                  -8.231
REMARK INTRA:                  -0.709
REMARK UNBOUND:                -0.639
REMARK  Name = /home/qwerty/github/datacon2025hack/step_04_hit_selection/docking/ligands/lig_548.pdb
REMARK  6 active torsions:
REMARK  status: ('A' for Active; 'I' for Inactive)
REMARK    1  A    between atoms: N1_3  and  C2_4
REMARK    2  A    between atoms: C5_7  and  C6_8
REMARK    3  A    between atoms: C6_8  and  N2_9
REMARK    4  A    between atoms: N3_17  and  C13_18
REMARK    5  A    between atoms: C16_21  and  O3_22
REMARK    6  A    between atoms: O3_22  and  C17_23
REMARK                            x       y       z     vdW  Elec       q    Type
REMARK                         _______ _______ _______ _____ _____    ______ ____
ROOT
ATOM      1  O1  UNL     1      20.510   5.795  33.485  0.00  0.00    -0.252 OA
ATOM      2  C1  UNL     1      21.477   5.529  34.251  0.00  0.00    +0.308 C 
ATOM      3  N1  UNL     1      21.979   6.524  35.157  0.00  0.00    -0.269 N 
ATOM      4  N3  UNL     1      22.085   4.229  34.225  0.00  0.00    -0.269 N 
ATOM      5  H1  UNL     1      22.926   6.365  35.569  0.00  0.00    +0.156 HD
ATOM      6  H16 UNL     1      22.686   3.962  35.037  0.00  0.00    +0.156 HD
ENDROOT
BRANCH   3   7
ATOM      7  C2  UNL     1      21.323   7.774  35.429  0.00  0.00    +0.035 A 
ATOM      8  C3  UNL     1      20.484   7.881  36.547  0.00  0.00    +0.023 A 
ATOM      9  C4  UNL     1      19.815   9.077  36.821  0.00  0.00    +0.007 A 
ATOM     10  C5  UNL     1      19.956  10.181  35.967  0.00  0.00    -0.033 A 
ATOM     11  C11 UNL     1      20.786  10.072  34.839  0.00  0.00    +0.007 A 
ATOM     12  C12 UNL     1      21.455   8.876  34.566  0.00  0.00    +0.023 A 
BRANCH  10  13
ATOM     13  C6  UNL     1      19.232  11.478  36.263  0.00  0.00    +0.119 C 
BRANCH  13  14
ATOM     14  N2  UNL     1      17.762  11.343  36.352  0.00  0.00    -0.294 NA
ATOM     15  C7  UNL     1      17.132  10.907  35.093  0.00  0.00    +0.113 C 
ATOM     16  C8  UNL     1      15.608  10.756  35.285  0.00  0.00    +0.175 C 
ATOM     17  O2  UNL     1      15.231  10.958  36.634  0.00  0.00    -0.377 OA
ATOM     18  C9  UNL     1      15.577  12.271  37.038  0.00  0.00    +0.175 C 
ATOM     19  C10 UNL     1      17.089  12.540  36.884  0.00  0.00    +0.113 C 
ENDBRANCH  13  14
ENDBRANCH  10  13
ENDBRANCH   3   7
BRANCH   4  20
ATOM     20  C13 UNL     1      21.819   3.231  33.223  0.00  0.00    +0.035 A 
ATOM     21  C14 UNL     1      22.498   3.290  31.998  0.00  0.00    +0.027 A 
ATOM     22  C15 UNL     1      22.242   2.345  30.999  0.00  0.00    +0.047 A 
ATOM     23  C16 UNL     1      21.293   1.337  31.201  0.00  0.00    +0.127 A 
ATOM     24  C18 UNL     1      20.591   1.290  32.420  0.00  0.00    +0.047 A 
ATOM     25  C19 UNL     1      20.847   2.234  33.419  0.00  0.00    +0.027 A 
BRANCH  23  26
ATOM     26  O3  UNL     1      21.074   0.414  30.167  0.00  0.00    -0.434 OA
BRANCH  26  27
ATOM     27  C17 UNL     1      22.044   0.044  29.191  0.00  0.00    +0.541 C 
ATOM     28  F1  UNL     1      21.537   0.246  27.920  0.00  0.00    -0.166 F 
ATOM     29  F2  UNL     1      22.351  -1.294  29.343  0.00  0.00    -0.166 F 
ENDBRANCH  26  27
ENDBRANCH  23  26
ENDBRANCH   4  20
TORSDOF 6
ENDMDL
MODEL 5
REMARK VINA RESULT:    -6.086      4.440     10.398
REMARK INTER + INTRA:          -8.860
REMARK INTER:                  -8.405
REMARK INTRA:                  -0.454
REMARK UNBOUND:                -0.639
REMARK  Name = /home/qwerty/github/datacon2025hack/step_04_hit_selection/docking/ligands/lig_548.pdb
REMARK  6 active torsions:
REMARK  status: ('A' for Active; 'I' for Inactive)
REMARK    1  A    between atoms: N1_3  and  C2_4
REMARK    2  A    between atoms: C5_7  and  C6_8
REMARK    3  A    between atoms: C6_8  and  N2_9
REMARK    4  A    between atoms: N3_17  and  C13_18
REMARK    5  A    between atoms: C16_21  and  O3_22
REMARK    6  A    between atoms: O3_22  and  C17_23
REMARK                            x       y       z     vdW  Elec       q    Type
REMARK                         _______ _______ _______ _____ _____    ______ ____
ROOT
ATOM      1  O1  UNL     1      18.525   9.728  35.763  0.00  0.00    -0.252 OA
ATOM      2  C1  UNL     1      18.816   9.912  36.977  0.00  0.00    +0.308 C 
ATOM      3  N1  UNL     1      17.982  10.738  37.805  0.00  0.00    -0.269 N 
ATOM      4  N3  UNL     1      19.984   9.299  37.543  0.00  0.00    -0.269 N 
ATOM      5  H1  UNL     1      18.387  11.082  38.704  0.00  0.00    +0.156 HD
ATOM      6  H16 UNL     1      20.046   9.252  38.584  0.00  0.00    +0.156 HD
ENDROOT
BRANCH   3   7
ATOM      7  C2  UNL     1      16.685  11.222  37.418  0.00  0.00    +0.035 A 
ATOM      8  C3  UNL     1      15.644  10.306  37.210  0.00  0.00    +0.023 A 
ATOM      9  C4  UNL     1      14.379  10.748  36.809  0.00  0.00    +0.007 A 
ATOM     10  C5  UNL     1      14.142  12.113  36.588  0.00  0.00    -0.033 A 
ATOM     11  C11 UNL     1      15.187  13.031  36.783  0.00  0.00    +0.007 A 
ATOM     12  C12 UNL     1      16.450  12.589  37.184  0.00  0.00    +0.023 A 
BRANCH  10  13
ATOM     13  C6  UNL     1      12.772  12.593  36.155  0.00  0.00    +0.119 C 
BRANCH  13  14
ATOM     14  N2  UNL     1      12.751  13.247  34.828  0.00  0.00    -0.294 NA
ATOM     15  C7  UNL     1      11.440  13.816  34.470  0.00  0.00    +0.113 C 
ATOM     16  C8  UNL     1      11.518  14.509  33.094  0.00  0.00    +0.175 C 
ATOM     17  O2  UNL     1      12.841  14.522  32.591  0.00  0.00    -0.377 OA
ATOM     18  C9  UNL     1      13.303  13.192  32.420  0.00  0.00    +0.175 C 
ATOM     19  C10 UNL     1      13.264  12.395  33.741  0.00  0.00    +0.113 C 
ENDBRANCH  13  14
ENDBRANCH  10  13
ENDBRANCH   3   7
BRANCH   4  20
ATOM     20  C13 UNL     1      21.004   8.638  36.773  0.00  0.00    +0.035 A 
ATOM     21  C14 UNL     1      21.555   7.440  37.248  0.00  0.00    +0.027 A 
ATOM     22  C15 UNL     1      22.562   6.789  36.531  0.00  0.00    +0.047 A 
ATOM     23  C16 UNL     1      23.047   7.330  35.335  0.00  0.00    +0.127 A 
ATOM     24  C18 UNL     1      22.513   8.546  34.866  0.00  0.00    +0.047 A 
ATOM     25  C19 UNL     1      21.505   9.197  35.585  0.00  0.00    +0.027 A 
BRANCH  23  26
ATOM     26  O3  UNL     1      24.058   6.637  34.653  0.00  0.00    -0.434 OA
BRANCH  26  27
ATOM     27  C17 UNL     1      23.860   5.873  33.466  0.00  0.00    +0.541 C 
ATOM     28  F1  UNL     1      24.268   6.601  32.362  0.00  0.00    -0.166 F 
ATOM     29  F2  UNL     1      22.518   5.576  33.337  0.00  0.00    -0.166 F 
ENDBRANCH  26  27
ENDBRANCH  23  26
ENDBRANCH   4  20
TORSDOF 6
ENDMDL
MODEL 6
REMARK VINA RESULT:    -5.968     10.531     14.366
REMARK INTER + INTRA:          -8.701
REMARK INTER:                  -7.931
REMARK INTRA:                  -0.770
REMARK UNBOUND:                -0.639
REMARK  Name = /home/qwerty/github/datacon2025hack/step_04_hit_selection/docking/ligands/lig_548.pdb
REMARK  6 active torsions:
REMARK  status: ('A' for Active; 'I' for Inactive)
REMARK    1  A    between atoms: N1_3  and  C2_4
REMARK    2  A    between atoms: C5_7  and  C6_8
REMARK    3  A    between atoms: C6_8  and  N2_9
REMARK    4  A    between atoms: N3_17  and  C13_18
REMARK    5  A    between atoms: C16_21  and  O3_22
REMARK    6  A    between atoms: O3_22  and  C17_23
REMARK                            x       y       z     vdW  Elec       q    Type
REMARK                         _______ _______ _______ _____ _____    ______ ____
ROOT
ATOM      1  O1  UNL     1       9.867  10.625  26.724  0.00  0.00    -0.252 OA
ATOM      2  C1  UNL     1       8.654  10.710  27.061  0.00  0.00    +0.308 C 
ATOM      3  N1  UNL     1       8.298  11.163  28.377  0.00  0.00    -0.269 N 
ATOM      4  N3  UNL     1       7.618  10.354  26.134  0.00  0.00    -0.269 N 
ATOM      5  H1  UNL     1       7.326  10.967  28.707  0.00  0.00    +0.156 HD
ATOM      6  H16 UNL     1       6.649  10.684  26.345  0.00  0.00    +0.156 HD
ENDROOT
BRANCH   3   7
ATOM      7  C2  UNL     1       9.223  11.749  29.308  0.00  0.00    +0.035 A 
ATOM      8  C3  UNL     1       9.501  13.121  29.231  0.00  0.00    +0.023 A 
ATOM      9  C4  UNL     1      10.415  13.711  30.108  0.00  0.00    +0.007 A 
ATOM     10  C5  UNL     1      11.086  12.933  31.063  0.00  0.00    -0.033 A 
ATOM     11  C11 UNL     1      10.819  11.556  31.134  0.00  0.00    +0.007 A 
ATOM     12  C12 UNL     1       9.905  10.966  30.258  0.00  0.00    +0.023 A 
BRANCH  10  13
ATOM     13  C6  UNL     1      12.076  13.572  32.015  0.00  0.00    +0.119 C 
BRANCH  13  14
ATOM     14  N2  UNL     1      11.798  13.308  33.444  0.00  0.00    -0.294 NA
ATOM     15  C7  UNL     1      10.884  14.287  34.058  0.00  0.00    +0.113 C 
ATOM     16  C8  UNL     1      10.619  13.916  35.533  0.00  0.00    +0.175 C 
ATOM     17  O2  UNL     1      11.220  12.681  35.875  0.00  0.00    -0.377 OA
ATOM     18  C9  UNL     1      12.625  12.768  35.709  0.00  0.00    +0.175 C 
ATOM     19  C10 UNL     1      13.011  13.143  34.262  0.00  0.00    +0.113 C 
ENDBRANCH  13  14
ENDBRANCH  10  13
ENDBRANCH   3   7
BRANCH   4  20
ATOM     20  C13 UNL     1       7.848   9.688  24.880  0.00  0.00    +0.035 A 
ATOM     21  C14 UNL     1       8.367   8.386  24.879  0.00  0.00    +0.027 A 
ATOM     22  C15 UNL     1       8.621   7.724  23.674  0.00  0.00    +0.047 A 
ATOM     23  C16 UNL     1       8.374   8.357  22.450  0.00  0.00    +0.127 A 
ATOM     24  C18 UNL     1       7.876   9.674  22.447  0.00  0.00    +0.047 A 
ATOM     25  C19 UNL     1       7.622  10.335  23.653  0.00  0.00    +0.027 A 
BRANCH  23  26
ATOM     26  O3  UNL     1       8.645   7.649  21.269  0.00  0.00    -0.434 OA
BRANCH  26  27
ATOM     27  C17 UNL     1       7.823   6.613  20.737  0.00  0.00    +0.541 C 
ATOM     28  F1  UNL     1       6.498   6.850  21.058  0.00  0.00    -0.166 F 
ATOM     29  F2  UNL     1       8.208   5.405  21.283  0.00  0.00    -0.166 F 
ENDBRANCH  26  27
ENDBRANCH  23  26
ENDBRANCH   4  20
TORSDOF 6
ENDMDL
MODEL 7
REMARK VINA RESULT:    -5.931     13.144     16.347
REMARK INTER + INTRA:          -8.651
REMARK INTER:                  -7.800
REMARK INTRA:                  -0.851
REMARK UNBOUND:                -0.639
REMARK  Name = /home/qwerty/github/datacon2025hack/step_04_hit_selection/docking/ligands/lig_548.pdb
REMARK  6 active torsions:
REMARK  status: ('A' for Active; 'I' for Inactive)
REMARK    1  A    between atoms: N1_3  and  C2_4
REMARK    2  A    between atoms: C5_7  and  C6_8
REMARK    3  A    between atoms: C6_8  and  N2_9
REMARK    4  A    between atoms: N3_17  and  C13_18
REMARK    5  A    between atoms: C16_21  and  O3_22
REMARK    6  A    between atoms: O3_22  and  C17_23
REMARK                            x       y       z     vdW  Elec       q    Type
REMARK                         _______ _______ _______ _____ _____    ______ ____
ROOT
ATOM      1  O1  UNL     1      20.606   5.018  23.908  0.00  0.00    -0.252 OA
ATOM      2  C1  UNL     1      20.959   4.048  23.183  0.00  0.00    +0.308 C 
ATOM      3  N1  UNL     1      20.905   4.155  21.752  0.00  0.00    -0.269 N 
ATOM      4  N3  UNL     1      21.420   2.827  23.781  0.00  0.00    -0.269 N 
ATOM      5  H1  UNL     1      20.943   3.268  21.201  0.00  0.00    +0.156 HD
ATOM      6  H16 UNL     1      21.946   2.161  23.171  0.00  0.00    +0.156 HD
ENDROOT
BRANCH   3   7
ATOM      7  C2  UNL     1      20.674   5.383  21.041  0.00  0.00    +0.035 A 
ATOM      8  C3  UNL     1      19.366   5.727  20.670  0.00  0.00    +0.023 A 
ATOM      9  C4  UNL     1      19.117   6.904  19.957  0.00  0.00    +0.007 A 
ATOM     10  C5  UNL     1      20.176   7.745  19.584  0.00  0.00    -0.033 A 
ATOM     11  C11 UNL     1      21.487   7.396  19.943  0.00  0.00    +0.007 A 
ATOM     12  C12 UNL     1      21.736   6.221  20.657  0.00  0.00    +0.023 A 
BRANCH  10  13
ATOM     13  C6  UNL     1      19.906   9.021  18.812  0.00  0.00    +0.119 C 
BRANCH  13  14
ATOM     14  N2  UNL     1      20.065  10.256  19.611  0.00  0.00    -0.294 NA
ATOM     15  C7  UNL     1      18.862  10.620  20.380  0.00  0.00    +0.113 C 
ATOM     16  C8  UNL     1      19.127  11.893  21.211  0.00  0.00    +0.175 C 
ATOM     17  O2  UNL     1      20.477  12.308  21.113  0.00  0.00    -0.377 OA
ATOM     18  C9  UNL     1      20.788  12.613  19.764  0.00  0.00    +0.175 C 
ATOM     19  C10 UNL     1      20.554  11.406  18.832  0.00  0.00    +0.113 C 
ENDBRANCH  13  14
ENDBRANCH  10  13
ENDBRANCH   3   7
BRANCH   4  20
ATOM     20  C13 UNL     1      21.315   2.523  25.183  0.00  0.00    +0.035 A 
ATOM     21  C14 UNL     1      22.324   2.952  26.056  0.00  0.00    +0.027 A 
ATOM     22  C15 UNL     1      22.257   2.652  27.420  0.00  0.00    +0.047 A 
ATOM     23  C16 UNL     1      21.191   1.904  27.932  0.00  0.00    +0.127 A 
ATOM     24  C18 UNL     1      20.188   1.450  27.054  0.00  0.00    +0.047 A 
ATOM     25  C19 UNL     1      20.255   1.752  25.690  0.00  0.00    +0.027 A 
BRANCH  23  26
ATOM     26  O3  UNL     1      21.171   1.631  29.308  0.00  0.00    -0.434 OA
BRANCH  26  27
ATOM     27  C17 UNL     1      22.060   0.735  29.971  0.00  0.00    +0.541 C 
ATOM     28  F1  UNL     1      23.206   1.407  30.357  0.00  0.00    -0.166 F 
ATOM     29  F2  UNL     1      22.406  -0.282  29.104  0.00  0.00    -0.166 F 
ENDBRANCH  26  27
ENDBRANCH  23  26
ENDBRANCH   4  20
TORSDOF 6
ENDMDL
MODEL 8
REMARK VINA RESULT:    -5.907     12.590     14.014
REMARK INTER + INTRA:          -8.618
REMARK INTER:                  -7.850
REMARK INTRA:                  -0.767
REMARK UNBOUND:                -0.639
REMARK  Name = /home/qwerty/github/datacon2025hack/step_04_hit_selection/docking/ligands/lig_548.pdb
REMARK  6 active torsions:
REMARK  status: ('A' for Active; 'I' for Inactive)
REMARK    1  A    between atoms: N1_3  and  C2_4
REMARK    2  A    between atoms: C5_7  and  C6_8
REMARK    3  A    between atoms: C6_8  and  N2_9
REMARK    4  A    between atoms: N3_17  and  C13_18
REMARK    5  A    between atoms: C16_21  and  O3_22
REMARK    6  A    between atoms: O3_22  and  C17_23
REMARK                            x       y       z     vdW  Elec       q    Type
REMARK                         _______ _______ _______ _____ _____    ______ ____
ROOT
ATOM      1  O1  UNL     1       7.985   7.027  30.107  0.00  0.00    -0.252 OA
ATOM      2  C1  UNL     1       7.066   7.088  29.245  0.00  0.00    +0.308 C 
ATOM      3  N1  UNL     1       6.256   5.936  28.966  0.00  0.00    -0.269 N 
ATOM      4  N3  UNL     1       6.819   8.311  28.535  0.00  0.00    -0.269 N 
ATOM      5  H1  UNL     1       5.701   5.940  28.081  0.00  0.00    +0.156 HD
ATOM      6  H16 UNL     1       5.904   8.404  28.040  0.00  0.00    +0.156 HD
ENDROOT
BRANCH   3   7
ATOM      7  C2  UNL     1       6.260   4.734  29.756  0.00  0.00    +0.035 A 
ATOM      8  C3  UNL     1       7.215   3.742  29.494  0.00  0.00    +0.023 A 
ATOM      9  C4  UNL     1       7.226   2.554  30.231  0.00  0.00    +0.007 A 
ATOM     10  C5  UNL     1       6.265   2.329  31.228  0.00  0.00    -0.033 A 
ATOM     11  C11 UNL     1       5.299   3.316  31.484  0.00  0.00    +0.007 A 
ATOM     12  C12 UNL     1       5.290   4.503  30.748  0.00  0.00    +0.023 A 
BRANCH  10  13
ATOM     13  C6  UNL     1       6.277   1.043  32.028  0.00  0.00    +0.119 C 
BRANCH  13  14
ATOM     14  N2  UNL     1       7.518   0.250  31.881  0.00  0.00    -0.294 NA
ATOM     15  C7  UNL     1       7.278  -1.174  31.588  0.00  0.00    +0.113 C 
ATOM     16  C8  UNL     1       8.620  -1.914  31.413  0.00  0.00    +0.175 C 
ATOM     17  O2  UNL     1       9.718  -1.022  31.461  0.00  0.00    -0.377 OA
ATOM     18  C9  UNL     1       9.756  -0.374  32.721  0.00  0.00    +0.175 C 
ATOM     19  C10 UNL     1       8.452   0.401  33.009  0.00  0.00    +0.113 C 
ENDBRANCH  13  14
ENDBRANCH  10  13
ENDBRANCH   3   7
BRANCH   4  20
ATOM     20  C13 UNL     1       7.691   9.455  28.567  0.00  0.00    +0.035 A 
ATOM     21  C14 UNL     1       8.731   9.552  27.632  0.00  0.00    +0.027 A 
ATOM     22  C15 UNL     1       9.606  10.643  27.655  0.00  0.00    +0.047 A 
ATOM     23  C16 UNL     1       9.466  11.645  28.621  0.00  0.00    +0.127 A 
ATOM     24  C18 UNL     1       8.438  11.538  29.577  0.00  0.00    +0.047 A 
ATOM     25  C19 UNL     1       7.564  10.448  29.553  0.00  0.00    +0.027 A 
BRANCH  23  26
ATOM     26  O3  UNL     1      10.370  12.719  28.600  0.00  0.00    -0.434 OA
BRANCH  26  27
ATOM     27  C17 UNL     1      10.307  13.815  27.691  0.00  0.00    +0.541 C 
ATOM     28  F1  UNL     1      10.965  14.909  28.225  0.00  0.00    -0.166 F 
ATOM     29  F2  UNL     1       8.985  14.148  27.475  0.00  0.00    -0.166 F 
ENDBRANCH  26  27
ENDBRANCH  23  26
ENDBRANCH   4  20
TORSDOF 6
ENDMDL
MODEL 9
REMARK VINA RESULT:    -5.872      1.427      1.951
REMARK INTER + INTRA:          -8.571
REMARK INTER:                  -7.859
REMARK INTRA:                  -0.711
REMARK UNBOUND:                -0.639
REMARK  Name = /home/qwerty/github/datacon2025hack/step_04_hit_selection/docking/ligands/lig_548.pdb
REMARK  6 active torsions:
REMARK  status: ('A' for Active; 'I' for Inactive)
REMARK    1  A    between atoms: N1_3  and  C2_4
REMARK    2  A    between atoms: C5_7  and  C6_8
REMARK    3  A    between atoms: C6_8  and  N2_9
REMARK    4  A    between atoms: N3_17  and  C13_18
REMARK    5  A    between atoms: C16_21  and  O3_22
REMARK    6  A    between atoms: O3_22  and  C17_23
REMARK                            x       y       z     vdW  Elec       q    Type
REMARK                         _______ _______ _______ _____ _____    ______ ____
ROOT
ATOM      1  O1  UNL     1      17.757  10.347  35.575  0.00  0.00    -0.252 OA
ATOM      2  C1  UNL     1      18.319  10.914  36.551  0.00  0.00    +0.308 C 
ATOM      3  N1  UNL     1      19.495  10.339  37.144  0.00  0.00    -0.269 N 
ATOM      4  N3  UNL     1      17.791  12.139  37.080  0.00  0.00    -0.269 N 
ATOM      5  H1  UNL     1      19.768  10.677  38.094  0.00  0.00    +0.156 HD
ATOM      6  H16 UNL     1      18.417  12.708  37.694  0.00  0.00    +0.156 HD
ENDROOT
BRANCH   3   7
ATOM      7  C2  UNL     1      20.237   9.248  36.573  0.00  0.00    +0.035 A 
ATOM      8  C3  UNL     1      19.878   7.931  36.893  0.00  0.00    +0.023 A 
ATOM      9  C4  UNL     1      20.599   6.853  36.371  0.00  0.00    +0.007 A 
ATOM     10  C5  UNL     1      21.706   7.075  35.539  0.00  0.00    -0.033 A 
ATOM     11  C11 UNL     1      22.075   8.394  35.228  0.00  0.00    +0.007 A 
ATOM     12  C12 UNL     1      21.354   9.471  35.748  0.00  0.00    +0.023 A 
BRANCH  10  13
ATOM     13  C6  UNL     1      22.486   5.907  34.972  0.00  0.00    +0.119 C 
BRANCH  13  14
ATOM     14  N2  UNL     1      21.897   5.323  33.747  0.00  0.00    -0.294 NA
ATOM     15  C7  UNL     1      21.768   3.856  33.795  0.00  0.00    +0.113 C 
ATOM     16  C8  UNL     1      21.112   3.337  32.498  0.00  0.00    +0.175 C 
ATOM     17  O2  UNL     1      20.701   4.401  31.660  0.00  0.00    -0.377 OA
ATOM     18  C9  UNL     1      21.825   5.176  31.282  0.00  0.00    +0.175 C 
ATOM     19  C10 UNL     1      22.569   5.747  32.507  0.00  0.00    +0.113 C 
ENDBRANCH  13  14
ENDBRANCH  10  13
ENDBRANCH   3   7
BRANCH   4  20
ATOM     20  C13 UNL     1      16.512  12.691  36.719  0.00  0.00    +0.035 A 
ATOM     21  C14 UNL     1      15.351  12.181  37.316  0.00  0.00    +0.027 A 
ATOM     22  C15 UNL     1      14.094  12.684  36.967  0.00  0.00    +0.047 A 
ATOM     23  C16 UNL     1      13.975  13.694  36.005  0.00  0.00    +0.127 A 
ATOM     24  C18 UNL     1      15.138  14.192  35.386  0.00  0.00    +0.047 A 
ATOM     25  C19 UNL     1      16.394  13.688  35.736  0.00  0.00    +0.027 A 
BRANCH  23  26
ATOM     26  O3  UNL     1      12.691  14.165  35.692  0.00  0.00    -0.434 OA
BRANCH  26  27
ATOM     27  C17 UNL     1      11.847  13.614  34.685  0.00  0.00    +0.541 C 
ATOM     28  F1  UNL     1      11.476  14.599  33.788  0.00  0.00    -0.166 F 
ATOM     29  F2  UNL     1      10.712  13.097  35.278  0.00  0.00    -0.166 F 
ENDBRANCH  26  27
ENDBRANCH  23  26
ENDBRANCH   4  20
TORSDOF 6
ENDMDL
