MODEL 1
REMARK VINA RESULT:    -6.787      0.000      0.000
REMARK INTER + INTRA:          -8.438
REMARK INTER:                  -7.977
REMARK INTRA:                  -0.461
REMARK UNBOUND:                -0.461
REMARK  Name = /home/qwerty/github/datacon2025hack/step_04_hit_selection/docking/ligands/lig_651.pdb
REMARK  3 active torsions:
REMARK  status: ('A' for Active; 'I' for Inactive)
REMARK    1  A    between atoms: C1_2  and  C8_12
REMARK    2  A    between atoms: N1_3  and  C2_4
REMARK    3  A    between atoms: N2_14  and  C9_15
REMARK                            x       y       z     vdW  Elec       q    Type
REMARK                         _______ _______ _______ _____ _____    ______ ____
ROOT
ATOM      1  C8  UNL     1      22.048   5.607  34.349  0.00  0.00    +0.300 C 
ATOM      2  O2  UNL     1      23.272   5.857  34.175  0.00  0.00    -0.265 OA
ATOM      3  N2  UNL     1      21.299   6.345  35.328  0.00  0.00    -0.303 N 
ATOM      4  H5  UNL     1      20.282   6.133  35.448  0.00  0.00    +0.149 HD
ENDROOT
BRANCH   3   5
ATOM      5  C9  UNL     1      21.926   7.372  36.171  0.00  0.00    +0.092 C 
ATOM      6  C10 UNL     1      21.268   7.391  37.552  0.00  0.00    +0.043 C 
ATOM      7  C11 UNL     1      20.191   8.465  37.478  0.00  0.00    +0.108 C 
ATOM      8  N3  UNL     1      20.553   9.308  36.348  0.00  0.00    -0.311 N 
ATOM      9  C12 UNL     1      19.948  10.578  36.023  0.00  0.00    +0.157 A 
ATOM     10  N4  UNL     1      20.546  11.374  35.090  0.00  0.00    -0.237 NA
ATOM     11  C13 UNL     1      20.039  12.582  34.730  0.00  0.00    +0.113 A 
ATOM     12  C14 UNL     1      18.863  13.048  35.317  0.00  0.00    +0.023 A 
ATOM     13  C15 UNL     1      18.219  12.259  36.270  0.00  0.00    +0.043 A 
ATOM     14  C16 UNL     1      18.752  11.019  36.630  0.00  0.00    +0.163 A 
ATOM     15  F2  UNL     1      18.089  10.267  37.542  0.00  0.00    -0.202 F 
ATOM     16  C17 UNL     1      21.684   8.774  35.606  0.00  0.00    +0.129 C 
ENDBRANCH   3   5
BRANCH   1  18
ATOM     17  O1  UNL     1      20.228   4.746  33.107  0.00  0.00    -0.265 OA
ATOM     18  C1  UNL     1      21.397   4.560  33.538  0.00  0.00    +0.303 C 
ATOM     19  N1  UNL     1      22.075   3.320  33.275  0.00  0.00    -0.275 N 
ATOM     20  H1  UNL     1      22.885   3.062  33.882  0.00  0.00    +0.155 HD
BRANCH  19  21
ATOM     21  C2  UNL     1      21.635   2.360  32.297  0.00  0.00    +0.070 A 
ATOM     22  C3  UNL     1      22.221   2.304  31.018  0.00  0.00    +0.041 A 
ATOM     23  C4  UNL     1      21.798   1.349  30.087  0.00  0.00    +0.020 A 
ATOM     24 BR1  UNL     1      22.599   1.283  28.355  0.00  0.00    -0.050 Br
ATOM     25  C5  UNL     1      20.799   0.434  30.430  0.00  0.00    +0.018 A 
ATOM     26  C6  UNL     1      20.226   0.469  31.703  0.00  0.00    +0.041 A 
ATOM     27  C7  UNL     1      20.646   1.422  32.637  0.00  0.00    +0.145 A 
ATOM     28  F1  UNL     1      20.075   1.441  33.869  0.00  0.00    -0.204 F 
ENDBRANCH  19  21
ENDBRANCH   1  18
TORSDOF 3
ENDMDL
MODEL 2
REMARK VINA RESULT:    -6.712     10.550     14.171
REMARK INTER + INTRA:          -8.350
REMARK INTER:                  -7.884
REMARK INTRA:                  -0.466
REMARK UNBOUND:                -0.461
REMARK  Name = /home/qwerty/github/datacon2025hack/step_04_hit_selection/docking/ligands/lig_651.pdb
REMARK  3 active torsions:
REMARK  status: ('A' for Active; 'I' for Inactive)
REMARK    1  A    between atoms: C1_2  and  C8_12
REMARK    2  A    between atoms: N1_3  and  C2_4
REMARK    3  A    between atoms: N2_14  and  C9_15
REMARK                            x       y       z     vdW  Elec       q    Type
REMARK                         _______ _______ _______ _____ _____    ______ ____
ROOT
ATOM      1  C8  UNL     1      17.519   0.821  23.606  0.00  0.00    +0.300 C 
ATOM      2  O2  UNL     1      17.390  -0.431  23.687  0.00  0.00    -0.265 OA
ATOM      3  N2  UNL     1      16.784   1.553  22.611  0.00  0.00    -0.303 N 
ATOM      4  H5  UNL     1      16.894   2.592  22.569  0.00  0.00    +0.149 HD
ENDROOT
BRANCH   3   5
ATOM      5  C9  UNL     1      15.903   0.880  21.648  0.00  0.00    +0.092 C 
ATOM      6  C10 UNL     1      16.260   1.307  20.222  0.00  0.00    +0.043 C 
ATOM      7  C11 UNL     1      15.323   2.462  19.894  0.00  0.00    +0.108 C 
ATOM      8  N3  UNL     1      14.219   2.353  20.835  0.00  0.00    -0.311 N 
ATOM      9  C12 UNL     1      12.985   3.099  20.769  0.00  0.00    +0.157 A 
ATOM     10  N4  UNL     1      11.942   2.723  21.563  0.00  0.00    -0.237 NA
ATOM     11  C13 UNL     1      10.749   3.373  21.558  0.00  0.00    +0.113 A 
ATOM     12  C14 UNL     1      10.557   4.472  20.722  0.00  0.00    +0.023 A 
ATOM     13  C15 UNL     1      11.603   4.891  19.899  0.00  0.00    +0.043 A 
ATOM     14  C16 UNL     1      12.824   4.212  19.915  0.00  0.00    +0.163 A 
ATOM     15  F2  UNL     1      13.826   4.661  19.121  0.00  0.00    -0.202 F 
ATOM     16  C17 UNL     1      14.448   1.317  21.831  0.00  0.00    +0.129 C 
ENDBRANCH   3   5
BRANCH   1  18
ATOM     17  O1  UNL     1      17.960   2.432  25.281  0.00  0.00    -0.265 OA
ATOM     18  C1  UNL     1      18.420   1.521  24.541  0.00  0.00    +0.303 C 
ATOM     19  N1  UNL     1      19.820   1.197  24.579  0.00  0.00    -0.275 N 
ATOM     20  H1  UNL     1      20.229   0.683  23.767  0.00  0.00    +0.155 HD
BRANCH  19  21
ATOM     21  C2  UNL     1      20.713   1.634  25.618  0.00  0.00    +0.070 A 
ATOM     22  C3  UNL     1      20.803   0.942  26.841  0.00  0.00    +0.041 A 
ATOM     23  C4  UNL     1      21.695   1.366  27.831  0.00  0.00    +0.020 A 
ATOM     24 BR1  UNL     1      21.806   0.420  29.486  0.00  0.00    -0.050 Br
ATOM     25  C5  UNL     1      22.514   2.476  27.605  0.00  0.00    +0.018 A 
ATOM     26  C6  UNL     1      22.448   3.156  26.386  0.00  0.00    +0.041 A 
ATOM     27  C7  UNL     1      21.558   2.735  25.394  0.00  0.00    +0.145 A 
ATOM     28  F1  UNL     1      21.507   3.412  24.218  0.00  0.00    -0.204 F 
ENDBRANCH  19  21
ENDBRANCH   1  18
TORSDOF 3
ENDMDL
MODEL 3
REMARK VINA RESULT:    -6.535     15.591     18.332
REMARK INTER + INTRA:          -8.142
REMARK INTER:                  -7.687
REMARK INTRA:                  -0.455
REMARK UNBOUND:                -0.461
REMARK  Name = /home/qwerty/github/datacon2025hack/step_04_hit_selection/docking/ligands/lig_651.pdb
REMARK  3 active torsions:
REMARK  status: ('A' for Active; 'I' for Inactive)
REMARK    1  A    between atoms: C1_2  and  C8_12
REMARK    2  A    between atoms: N1_3  and  C2_4
REMARK    3  A    between atoms: N2_14  and  C9_15
REMARK                            x       y       z     vdW  Elec       q    Type
REMARK                         _______ _______ _______ _____ _____    ______ ____
ROOT
ATOM      1  C8  UNL     1       7.989   9.080  22.349  0.00  0.00    +0.300 C 
ATOM      2  O2  UNL     1       8.244   9.803  21.348  0.00  0.00    -0.265 OA
ATOM      3  N2  UNL     1       7.922   7.653  22.202  0.00  0.00    -0.303 N 
ATOM      4  H5  UNL     1       7.722   7.069  23.047  0.00  0.00    +0.149 HD
ENDROOT
BRANCH   3   5
ATOM      5  C9  UNL     1       8.107   6.998  20.900  0.00  0.00    +0.092 C 
ATOM      6  C10 UNL     1       7.202   5.769  20.797  0.00  0.00    +0.043 C 
ATOM      7  C11 UNL     1       8.061   4.589  21.231  0.00  0.00    +0.108 C 
ATOM      8  N3  UNL     1       9.440   5.036  21.097  0.00  0.00    -0.311 N 
ATOM      9  C12 UNL     1      10.606   4.190  21.189  0.00  0.00    +0.157 A 
ATOM     10  N4  UNL     1      11.815   4.688  20.798  0.00  0.00    -0.237 NA
ATOM     11  C13 UNL     1      12.958   3.956  20.855  0.00  0.00    +0.113 A 
ATOM     12  C14 UNL     1      12.924   2.645  21.327  0.00  0.00    +0.023 A 
ATOM     13  C15 UNL     1      11.708   2.102  21.742  0.00  0.00    +0.043 A 
ATOM     14  C16 UNL     1      10.540   2.868  21.679  0.00  0.00    +0.163 A 
ATOM     15  F2  UNL     1       9.380   2.318  22.112  0.00  0.00    -0.202 F 
ATOM     16  C17 UNL     1       9.528   6.447  20.756  0.00  0.00    +0.129 C 
ENDBRANCH   3   5
BRANCH   1  18
ATOM     17  O1  UNL     1       6.942  10.657  23.769  0.00  0.00    -0.265 OA
ATOM     18  C1  UNL     1       7.768   9.711  23.664  0.00  0.00    +0.303 C 
ATOM     19  N1  UNL     1       8.519   9.279  24.812  0.00  0.00    -0.275 N 
ATOM     20  H1  UNL     1       9.394   8.732  24.650  0.00  0.00    +0.155 HD
BRANCH  19  21
ATOM     21  C2  UNL     1       8.196   9.648  26.164  0.00  0.00    +0.070 A 
ATOM     22  C3  UNL     1       8.533  10.918  26.672  0.00  0.00    +0.041 A 
ATOM     23  C4  UNL     1       8.190  11.270  27.982  0.00  0.00    +0.020 A 
ATOM     24 BR1  UNL     1       8.653  12.993  28.660  0.00  0.00    -0.050 Br
ATOM     25  C5  UNL     1       7.497  10.364  28.790  0.00  0.00    +0.018 A 
ATOM     26  C6  UNL     1       7.140   9.110  28.288  0.00  0.00    +0.041 A 
ATOM     27  C7  UNL     1       7.480   8.754  26.979  0.00  0.00    +0.145 A 
ATOM     28  F1  UNL     1       7.127   7.530  26.511  0.00  0.00    -0.204 F 
ENDBRANCH  19  21
ENDBRANCH   1  18
TORSDOF 3
ENDMDL
MODEL 4
REMARK VINA RESULT:    -6.515      4.682      6.985
REMARK INTER + INTRA:          -8.119
REMARK INTER:                  -7.703
REMARK INTRA:                  -0.415
REMARK UNBOUND:                -0.461
REMARK  Name = /home/qwerty/github/datacon2025hack/step_04_hit_selection/docking/ligands/lig_651.pdb
REMARK  3 active torsions:
REMARK  status: ('A' for Active; 'I' for Inactive)
REMARK    1  A    between atoms: C1_2  and  C8_12
REMARK    2  A    between atoms: N1_3  and  C2_4
REMARK    3  A    between atoms: N2_14  and  C9_15
REMARK                            x       y       z     vdW  Elec       q    Type
REMARK                         _______ _______ _______ _____ _____    ______ ____
ROOT
ATOM      1  C8  UNL     1      19.362  11.111  35.885  0.00  0.00    +0.300 C 
ATOM      2  O2  UNL     1      20.026  12.098  36.305  0.00  0.00    -0.265 OA
ATOM      3  N2  UNL     1      17.978  11.277  35.536  0.00  0.00    -0.303 N 
ATOM      4  H5  UNL     1      17.448  10.450  35.177  0.00  0.00    +0.149 HD
ENDROOT
BRANCH   3   5
ATOM      5  C9  UNL     1      17.290  12.567  35.686  0.00  0.00    +0.092 C 
ATOM      6  C10 UNL     1      16.816  12.743  37.130  0.00  0.00    +0.043 C 
ATOM      7  C11 UNL     1      15.374  12.255  37.150  0.00  0.00    +0.108 C 
ATOM      8  N3  UNL     1      14.928  12.286  35.765  0.00  0.00    -0.311 N 
ATOM      9  C12 UNL     1      13.566  12.115  35.320  0.00  0.00    +0.157 A 
ATOM     10  N4  UNL     1      13.251  12.413  34.026  0.00  0.00    -0.237 NA
ATOM     11  C13 UNL     1      11.993  12.279  33.532  0.00  0.00    +0.113 A 
ATOM     12  C14 UNL     1      10.966  11.818  34.354  0.00  0.00    +0.023 A 
ATOM     13  C15 UNL     1      11.249  11.496  35.682  0.00  0.00    +0.043 A 
ATOM     14  C16 UNL     1      12.549  11.639  36.176  0.00  0.00    +0.163 A 
ATOM     15  F2  UNL     1      12.794  11.295  37.463  0.00  0.00    -0.202 F 
ATOM     16  C17 UNL     1      16.010  12.610  34.849  0.00  0.00    +0.129 C 
ENDBRANCH   3   5
BRANCH   1  18
ATOM     17  O1  UNL     1      19.388   8.838  35.231  0.00  0.00    -0.265 OA
ATOM     18  C1  UNL     1      20.018   9.797  35.752  0.00  0.00    +0.303 C 
ATOM     19  N1  UNL     1      21.352   9.597  36.251  0.00  0.00    -0.275 N 
ATOM     20  H1  UNL     1      21.729  10.287  36.940  0.00  0.00    +0.155 HD
BRANCH  19  21
ATOM     21  C2  UNL     1      22.157   8.446  35.942  0.00  0.00    +0.070 A 
ATOM     22  C3  UNL     1      22.833   8.339  34.711  0.00  0.00    +0.041 A 
ATOM     23  C4  UNL     1      23.632   7.224  34.436  0.00  0.00    +0.020 A 
ATOM     24 BR1  UNL     1      24.542   7.089  32.763  0.00  0.00    -0.050 Br
ATOM     25  C5  UNL     1      23.774   6.214  35.392  0.00  0.00    +0.018 A 
ATOM     26  C6  UNL     1      23.124   6.321  36.624  0.00  0.00    +0.041 A 
ATOM     27  C7  UNL     1      22.325   7.434  36.903  0.00  0.00    +0.145 A 
ATOM     28  F1  UNL     1      21.700   7.519  38.105  0.00  0.00    -0.204 F 
ENDBRANCH  19  21
ENDBRANCH   1  18
TORSDOF 3
ENDMDL
MODEL 5
REMARK VINA RESULT:    -6.402     12.089     15.239
REMARK INTER + INTRA:          -7.986
REMARK INTER:                  -7.535
REMARK INTRA:                  -0.450
REMARK UNBOUND:                -0.461
REMARK  Name = /home/qwerty/github/datacon2025hack/step_04_hit_selection/docking/ligands/lig_651.pdb
REMARK  3 active torsions:
REMARK  status: ('A' for Active; 'I' for Inactive)
REMARK    1  A    between atoms: C1_2  and  C8_12
REMARK    2  A    between atoms: N1_3  and  C2_4
REMARK    3  A    between atoms: N2_14  and  C9_15
REMARK                            x       y       z     vdW  Elec       q    Type
REMARK                         _______ _______ _______ _____ _____    ______ ____
ROOT
ATOM      1  C8  UNL     1      23.120  14.857  26.353  0.00  0.00    +0.300 C 
ATOM      2  O2  UNL     1      23.658  13.783  26.737  0.00  0.00    -0.265 OA
ATOM      3  N2  UNL     1      23.262  15.281  24.987  0.00  0.00    -0.303 N 
ATOM      4  H5  UNL     1      22.798  16.167  24.685  0.00  0.00    +0.149 HD
ENDROOT
BRANCH   3   5
ATOM      5  C9  UNL     1      24.056  14.514  24.017  0.00  0.00    +0.092 C 
ATOM      6  C10 UNL     1      24.813  15.466  23.089  0.00  0.00    +0.043 C 
ATOM      7  C11 UNL     1      23.928  15.630  21.860  0.00  0.00    +0.108 C 
ATOM      8  N3  UNL     1      23.020  14.492  21.874  0.00  0.00    -0.311 N 
ATOM      9  C12 UNL     1      22.144  14.107  20.793  0.00  0.00    +0.157 A 
ATOM     10  N4  UNL     1      21.535  12.887  20.840  0.00  0.00    -0.237 NA
ATOM     11  C13 UNL     1      20.698  12.452  19.862  0.00  0.00    +0.113 A 
ATOM     12  C14 UNL     1      20.431  13.263  18.760  0.00  0.00    +0.023 A 
ATOM     13  C15 UNL     1      21.031  14.520  18.679  0.00  0.00    +0.043 A 
ATOM     14  C16 UNL     1      21.889  14.954  19.693  0.00  0.00    +0.163 A 
ATOM     15  F2  UNL     1      22.435  16.191  19.595  0.00  0.00    -0.202 F 
ATOM     16  C17 UNL     1      23.153  13.700  23.086  0.00  0.00    +0.129 C 
ENDBRANCH   3   5
BRANCH   1  18
ATOM     17  O1  UNL     1      22.219  16.904  27.125  0.00  0.00    -0.265 OA
ATOM     18  C1  UNL     1      22.342  15.664  27.312  0.00  0.00    +0.303 C 
ATOM     19  N1  UNL     1      21.762  15.049  28.475  0.00  0.00    -0.275 N 
ATOM     20  H1  UNL     1      22.127  14.116  28.773  0.00  0.00    +0.155 HD
BRANCH  19  21
ATOM     21  C2  UNL     1      20.787  15.690  29.317  0.00  0.00    +0.070 A 
ATOM     22  C3  UNL     1      19.450  15.836  28.901  0.00  0.00    +0.041 A 
ATOM     23  C4  UNL     1      18.509  16.441  29.742  0.00  0.00    +0.020 A 
ATOM     24 BR1  UNL     1      16.699  16.635  29.167  0.00  0.00    -0.050 Br
ATOM     25  C5  UNL     1      18.892  16.891  31.009  0.00  0.00    +0.018 A 
ATOM     26  C6  UNL     1      20.212  16.731  31.438  0.00  0.00    +0.041 A 
ATOM     27  C7  UNL     1      21.155  16.128  30.601  0.00  0.00    +0.145 A 
ATOM     28  F1  UNL     1      22.433  15.984  31.036  0.00  0.00    -0.204 F 
ENDBRANCH  19  21
ENDBRANCH   1  18
TORSDOF 3
ENDMDL
MODEL 6
REMARK VINA RESULT:    -6.336     13.853     14.993
REMARK INTER + INTRA:          -7.908
REMARK INTER:                  -7.477
REMARK INTRA:                  -0.431
REMARK UNBOUND:                -0.461
REMARK  Name = /home/qwerty/github/datacon2025hack/step_04_hit_selection/docking/ligands/lig_651.pdb
REMARK  3 active torsions:
REMARK  status: ('A' for Active; 'I' for Inactive)
REMARK    1  A    between atoms: C1_2  and  C8_12
REMARK    2  A    between atoms: N1_3  and  C2_4
REMARK    3  A    between atoms: N2_14  and  C9_15
REMARK                            x       y       z     vdW  Elec       q    Type
REMARK                         _______ _______ _______ _____ _____    ______ ____
ROOT
ATOM      1  C8  UNL     1       7.895   9.928  26.247  0.00  0.00    +0.300 C 
ATOM      2  O2  UNL     1       7.579   9.113  27.156  0.00  0.00    -0.265 OA
ATOM      3  N2  UNL     1       8.263  11.274  26.590  0.00  0.00    -0.303 N 
ATOM      4  H5  UNL     1       8.535  11.932  25.824  0.00  0.00    +0.149 HD
ENDROOT
BRANCH   3   5
ATOM      5  C9  UNL     1       8.248  11.752  27.979  0.00  0.00    +0.092 C 
ATOM      6  C10 UNL     1       7.928  13.248  28.017  0.00  0.00    +0.043 C 
ATOM      7  C11 UNL     1       9.277  13.954  28.052  0.00  0.00    +0.108 C 
ATOM      8  N3  UNL     1      10.233  12.955  28.506  0.00  0.00    -0.311 N 
ATOM      9  C12 UNL     1      11.597  13.218  28.897  0.00  0.00    +0.157 A 
ATOM     10  N4  UNL     1      12.302  12.239  29.535  0.00  0.00    -0.237 NA
ATOM     11  C13 UNL     1      13.589  12.410  29.935  0.00  0.00    +0.113 A 
ATOM     12  C14 UNL     1      14.239  13.620  29.696  0.00  0.00    +0.023 A 
ATOM     13  C15 UNL     1      13.553  14.643  29.042  0.00  0.00    +0.043 A 
ATOM     14  C16 UNL     1      12.230  14.453  28.635  0.00  0.00    +0.163 A 
ATOM     15  F2  UNL     1      11.602  15.459  27.980  0.00  0.00    -0.202 F 
ATOM     16  C17 UNL     1       9.633  11.635  28.619  0.00  0.00    +0.129 C 
ENDBRANCH   3   5
BRANCH   1  18
ATOM     17  O1  UNL     1       7.059   9.984  24.035  0.00  0.00    -0.265 OA
ATOM     18  C1  UNL     1       7.891   9.486  24.840  0.00  0.00    +0.303 C 
ATOM     19  N1  UNL     1       8.801   8.464  24.398  0.00  0.00    -0.275 N 
ATOM     20  H1  UNL     1       9.250   7.858  25.120  0.00  0.00    +0.155 HD
BRANCH  19  21
ATOM     21  C2  UNL     1       9.045   8.156  23.014  0.00  0.00    +0.070 A 
ATOM     22  C3  UNL     1       9.744   9.050  22.181  0.00  0.00    +0.041 A 
ATOM     23  C4  UNL     1       9.994   8.723  20.843  0.00  0.00    +0.020 A 
ATOM     24 BR1  UNL     1      10.943   9.944  19.723  0.00  0.00    -0.050 Br
ATOM     25  C5  UNL     1       9.561   7.497  20.331  0.00  0.00    +0.018 A 
ATOM     26  C6  UNL     1       8.884   6.595  21.156  0.00  0.00    +0.041 A 
ATOM     27  C7  UNL     1       8.632   6.917  22.493  0.00  0.00    +0.145 A 
ATOM     28  F1  UNL     1       7.971   6.028  23.277  0.00  0.00    -0.204 F 
ENDBRANCH  19  21
ENDBRANCH   1  18
TORSDOF 3
ENDMDL
MODEL 7
REMARK VINA RESULT:    -6.283      7.735     11.555
REMARK INTER + INTRA:          -7.845
REMARK INTER:                  -7.372
REMARK INTRA:                  -0.473
REMARK UNBOUND:                -0.461
REMARK  Name = /home/qwerty/github/datacon2025hack/step_04_hit_selection/docking/ligands/lig_651.pdb
REMARK  3 active torsions:
REMARK  status: ('A' for Active; 'I' for Inactive)
REMARK    1  A    between atoms: C1_2  and  C8_12
REMARK    2  A    between atoms: N1_3  and  C2_4
REMARK    3  A    between atoms: N2_14  and  C9_15
REMARK                            x       y       z     vdW  Elec       q    Type
REMARK                         _______ _______ _______ _____ _____    ______ ____
ROOT
ATOM      1  C8  UNL     1      13.043  13.137  34.268  0.00  0.00    +0.300 C 
ATOM      2  O2  UNL     1      12.204  13.734  34.995  0.00  0.00    -0.265 OA
ATOM      3  N2  UNL     1      14.134  12.423  34.873  0.00  0.00    -0.303 N 
ATOM      4  H5  UNL     1      14.812  11.923  34.254  0.00  0.00    +0.149 HD
ENDROOT
BRANCH   3   5
ATOM      5  C9  UNL     1      14.328  12.395  36.329  0.00  0.00    +0.092 C 
ATOM      6  C10 UNL     1      15.427  13.382  36.731  0.00  0.00    +0.043 C 
ATOM      7  C11 UNL     1      16.710  12.564  36.794  0.00  0.00    +0.108 C 
ATOM      8  N3  UNL     1      16.287  11.177  36.919  0.00  0.00    -0.311 N 
ATOM      9  C12 UNL     1      17.151  10.063  37.228  0.00  0.00    +0.157 A 
ATOM     10  N4  UNL     1      16.590   8.864  37.559  0.00  0.00    -0.237 NA
ATOM     11  C13 UNL     1      17.335   7.770  37.863  0.00  0.00    +0.113 A 
ATOM     12  C14 UNL     1      18.727   7.845  37.840  0.00  0.00    +0.023 A 
ATOM     13  C15 UNL     1      19.337   9.052  37.500  0.00  0.00    +0.043 A 
ATOM     14  C16 UNL     1      18.558  10.169  37.190  0.00  0.00    +0.163 A 
ATOM     15  F2  UNL     1      19.184  11.319  36.840  0.00  0.00    -0.202 F 
ATOM     16  C17 UNL     1      14.845  11.031  36.790  0.00  0.00    +0.129 C 
ENDBRANCH   3   5
BRANCH   1  18
ATOM     17  O1  UNL     1      13.480  12.312  32.094  0.00  0.00    -0.265 OA
ATOM     18  C1  UNL     1      12.891  13.173  32.801  0.00  0.00    +0.303 C 
ATOM     19  N1  UNL     1      12.109  14.206  32.178  0.00  0.00    -0.275 N 
ATOM     20  H1  UNL     1      11.897  15.066  32.732  0.00  0.00    +0.155 HD
BRANCH  19  21
ATOM     21  C2  UNL     1      11.696  14.175  30.800  0.00  0.00    +0.070 A 
ATOM     22  C3  UNL     1      10.502  13.538  30.412  0.00  0.00    +0.041 A 
ATOM     23  C4  UNL     1      10.104  13.539  29.070  0.00  0.00    +0.020 A 
ATOM     24 BR1  UNL     1       8.483  12.670  28.556  0.00  0.00    -0.050 Br
ATOM     25  C5  UNL     1      10.885  14.186  28.109  0.00  0.00    +0.018 A 
ATOM     26  C6  UNL     1      12.060  14.839  28.488  0.00  0.00    +0.041 A 
ATOM     27  C7  UNL     1      12.463  14.841  29.828  0.00  0.00    +0.145 A 
ATOM     28  F1  UNL     1      13.610  15.479  30.175  0.00  0.00    -0.204 F 
ENDBRANCH  19  21
ENDBRANCH   1  18
TORSDOF 3
ENDMDL
MODEL 8
REMARK VINA RESULT:    -6.274     11.246     14.513
REMARK INTER + INTRA:          -7.836
REMARK INTER:                  -7.358
REMARK INTRA:                  -0.478
REMARK UNBOUND:                -0.461
REMARK  Name = /home/qwerty/github/datacon2025hack/step_04_hit_selection/docking/ligands/lig_651.pdb
REMARK  3 active torsions:
REMARK  status: ('A' for Active; 'I' for Inactive)
REMARK    1  A    between atoms: C1_2  and  C8_12
REMARK    2  A    between atoms: N1_3  and  C2_4
REMARK    3  A    between atoms: N2_14  and  C9_15
REMARK                            x       y       z     vdW  Elec       q    Type
REMARK                         _______ _______ _______ _____ _____    ______ ____
ROOT
ATOM      1  C8  UNL     1      11.490  14.095  30.715  0.00  0.00    +0.300 C 
ATOM      2  O2  UNL     1      12.165  14.555  29.754  0.00  0.00    -0.265 OA
ATOM      3  N2  UNL     1      10.175  13.569  30.478  0.00  0.00    -0.303 N 
ATOM      4  H5  UNL     1       9.636  13.179  31.285  0.00  0.00    +0.149 HD
ENDROOT
BRANCH   3   5
ATOM      5  C9  UNL     1       9.564  13.581  29.142  0.00  0.00    +0.092 C 
ATOM      6  C10 UNL     1       8.041  13.669  29.262  0.00  0.00    +0.043 C 
ATOM      7  C11 UNL     1       7.542  12.231  29.203  0.00  0.00    +0.108 C 
ATOM      8  N3  UNL     1       8.621  11.465  28.598  0.00  0.00    -0.311 N 
ATOM      9  C12 UNL     1       8.525  10.098  28.143  0.00  0.00    +0.157 A 
ATOM     10  N4  UNL     1       9.529   9.585  27.374  0.00  0.00    -0.237 NA
ATOM     11  C13 UNL     1       9.511   8.310  26.907  0.00  0.00    +0.113 A 
ATOM     12  C14 UNL     1       8.441   7.470  27.212  0.00  0.00    +0.023 A 
ATOM     13  C15 UNL     1       7.398   7.956  28.000  0.00  0.00    +0.043 A 
ATOM     14  C16 UNL     1       7.430   9.270  28.474  0.00  0.00    +0.163 A 
ATOM     15  F2  UNL     1       6.412   9.702  29.258  0.00  0.00    -0.202 F 
ATOM     16  C17 UNL     1       9.820  12.265  28.405  0.00  0.00    +0.129 C 
ENDBRANCH   3   5
BRANCH   1  18
ATOM     17  O1  UNL     1      12.188  15.185  32.695  0.00  0.00    -0.265 OA
ATOM     18  C1  UNL     1      12.066  14.096  32.073  0.00  0.00    +0.303 C 
ATOM     19  N1  UNL     1      12.522  12.870  32.669  0.00  0.00    -0.275 N 
ATOM     20  H1  UNL     1      12.701  12.054  32.041  0.00  0.00    +0.155 HD
BRANCH  19  21
ATOM     21  C2  UNL     1      12.853  12.732  34.062  0.00  0.00    +0.070 A 
ATOM     22  C3  UNL     1      11.949  12.151  34.971  0.00  0.00    +0.041 A 
ATOM     23  C4  UNL     1      12.297  12.002  36.319  0.00  0.00    +0.020 A 
ATOM     24 BR1  UNL     1      11.062  11.214  37.543  0.00  0.00    -0.050 Br
ATOM     25  C5  UNL     1      13.553  12.420  36.766  0.00  0.00    +0.018 A 
ATOM     26  C6  UNL     1      14.465  12.979  35.867  0.00  0.00    +0.041 A 
ATOM     27  C7  UNL     1      14.122  13.129  34.520  0.00  0.00    +0.145 A 
ATOM     28  F1  UNL     1      15.021  13.677  33.663  0.00  0.00    -0.204 F 
ENDBRANCH  19  21
ENDBRANCH   1  18
TORSDOF 3
ENDMDL
MODEL 9
REMARK VINA RESULT:    -6.228      7.175      9.870
REMARK INTER + INTRA:          -7.781
REMARK INTER:                  -7.361
REMARK INTRA:                  -0.420
REMARK UNBOUND:                -0.461
REMARK  Name = /home/qwerty/github/datacon2025hack/step_04_hit_selection/docking/ligands/lig_651.pdb
REMARK  3 active torsions:
REMARK  status: ('A' for Active; 'I' for Inactive)
REMARK    1  A    between atoms: C1_2  and  C8_12
REMARK    2  A    between atoms: N1_3  and  C2_4
REMARK    3  A    between atoms: N2_14  and  C9_15
REMARK                            x       y       z     vdW  Elec       q    Type
REMARK                         _______ _______ _______ _____ _____    ______ ____
ROOT
ATOM      1  C8  UNL     1      20.658   1.738  26.327  0.00  0.00    +0.300 C 
ATOM      2  O2  UNL     1      21.790   2.262  26.142  0.00  0.00    -0.265 OA
ATOM      3  N2  UNL     1      20.150   1.584  27.662  0.00  0.00    -0.303 N 
ATOM      4  H5  UNL     1      19.204   1.159  27.794  0.00  0.00    +0.149 HD
ENDROOT
BRANCH   3   5
ATOM      5  C9  UNL     1      20.931   1.989  28.839  0.00  0.00    +0.092 C 
ATOM      6  C10 UNL     1      21.613   0.769  29.461  0.00  0.00    +0.043 C 
ATOM      7  C11 UNL     1      20.673   0.289  30.560  0.00  0.00    +0.108 C 
ATOM      8  N3  UNL     1      19.810   1.421  30.861  0.00  0.00    -0.311 N 
ATOM      9  C12 UNL     1      18.905   1.509  31.982  0.00  0.00    +0.157 A 
ATOM     10  N4  UNL     1      18.344   2.715  32.285  0.00  0.00    -0.237 NA
ATOM     11  C13 UNL     1      17.484   2.878  33.324  0.00  0.00    +0.113 A 
ATOM     12  C14 UNL     1      17.142   1.790  34.126  0.00  0.00    +0.023 A 
ATOM     13  C15 UNL     1      17.691   0.539  33.843  0.00  0.00    +0.043 A 
ATOM     14  C16 UNL     1      18.573   0.386  32.771  0.00  0.00    +0.163 A 
ATOM     15  F2  UNL     1      19.069  -0.848  32.510  0.00  0.00    -0.202 F 
ATOM     16  C17 UNL     1      20.022   2.531  29.945  0.00  0.00    +0.129 C 
ENDBRANCH   3   5
BRANCH   1  18
ATOM     17  O1  UNL     1      20.348   1.397  24.006  0.00  0.00    -0.265 OA
ATOM     18  C1  UNL     1      19.864   1.294  25.166  0.00  0.00    +0.303 C 
ATOM     19  N1  UNL     1      18.531   0.786  25.349  0.00  0.00    -0.275 N 
ATOM     20  H1  UNL     1      18.044   0.996  26.249  0.00  0.00    +0.155 HD
BRANCH  19  21
ATOM     21  C2  UNL     1      17.789   0.100  24.325  0.00  0.00    +0.070 A 
ATOM     22  C3  UNL     1      17.201   0.805  23.257  0.00  0.00    +0.041 A 
ATOM     23  C4  UNL     1      16.503   0.120  22.257  0.00  0.00    +0.020 A 
ATOM     24 BR1  UNL     1      15.708   1.086  20.814  0.00  0.00    -0.050 Br
ATOM     25  C5  UNL     1      16.398  -1.273  22.306  0.00  0.00    +0.018 A 
ATOM     26  C6  UNL     1      16.997  -1.982  23.350  0.00  0.00    +0.041 A 
ATOM     27  C7  UNL     1      17.695  -1.302  24.353  0.00  0.00    +0.145 A 
ATOM     28  F1  UNL     1      18.267  -2.009  25.360  0.00  0.00    -0.204 F 
ENDBRANCH  19  21
ENDBRANCH   1  18
TORSDOF 3
ENDMDL
