REMARK  Name = /home/qwerty/github/datacon2025hack/step_04_hit_selection/docking/ligands/lig_311.pdb
REMARK  7 active torsions:
REMARK  status: ('A' for Active; 'I' for Inactive)
REMARK    1  A    between atoms: C1_2  and  C11_15
REMARK    2  A    between atoms: N1_3  and  C2_4
REMARK    3  A    between atoms: C2_4  and  C3_5
REMARK    4  A    between atoms: C3_5  and  O2_6
REMARK    5  A    between atoms: C3_5  and  C4_7
REMARK    6  A    between atoms: C4_7  and  C5_8
REMARK    7  A    between atoms: C14_20  and  C15_21
REMARK                            x       y       z     vdW  Elec       q    Type
REMARK                         _______ _______ _______ _____ _____    ______ ____
ROOT
ATOM      1  C11 UNL     1       0.399  -1.573  -0.230  0.00  0.00    +0.057 A 
ATOM      2  C12 UNL     1       0.717  -1.812  -1.597  0.00  0.00    +0.126 A 
ATOM      3  N2  UNL     1       1.945  -1.484  -2.100  0.00  0.00    -0.235 NA
ATOM      4  C13 UNL     1       2.860  -0.928  -1.270  0.00  0.00    +0.158 A 
ATOM      5  N3  UNL     1       4.107  -0.557  -1.578  0.00  0.00    -0.323 N 
ATOM      6  C14 UNL     1       4.598  -0.086  -0.398  0.00  0.00    +0.141 A 
ATOM      7  N4  UNL     1       3.698  -0.157   0.625  0.00  0.00    -0.226 NA
ATOM      8  C21 UNL     1       2.613  -0.691   0.038  0.00  0.00    +0.109 A 
ATOM      9  C22 UNL     1       1.386  -1.003   0.609  0.00  0.00    +0.046 A 
ATOM     10  H13 UNL     1       4.572  -0.637  -2.508  0.00  0.00    +0.169 HD
ENDROOT
BRANCH   6  11
ATOM     11  C15 UNL     1       5.972   0.446  -0.217  0.00  0.00    +0.023 A 
ATOM     12  C16 UNL     1       6.846   0.613  -1.310  0.00  0.00    +0.050 A 
ATOM     13  C17 UNL     1       8.136   1.118  -1.116  0.00  0.00    +0.127 A 
ATOM     14  F1  UNL     1       8.968   1.275  -2.175  0.00  0.00    -0.205 F 
ATOM     15  C18 UNL     1       8.569   1.462   0.166  0.00  0.00    +0.076 A 
ATOM     16  C19 UNL     1       7.713   1.305   1.258  0.00  0.00    +0.127 A 
ATOM     17  F2  UNL     1       8.134   1.641   2.502  0.00  0.00    -0.205 F 
ATOM     18  C20 UNL     1       6.422   0.801   1.069  0.00  0.00    +0.050 A 
ENDBRANCH   6  11
BRANCH   1  20
ATOM     19  O1  UNL     1      -1.602  -2.840  -0.296  0.00  0.00    -0.270 OA
ATOM     20  C1  UNL     1      -0.938  -1.942   0.293  0.00  0.00    +0.246 C 
ATOM     21  N1  UNL     1      -1.496  -1.287   1.445  0.00  0.00    -0.309 N 
ATOM     22  H1  UNL     1      -0.977  -0.509   1.908  0.00  0.00    +0.149 HD
BRANCH  21  23
ATOM     23  C2  UNL     1      -2.801  -1.650   2.000  0.00  0.00    +0.136 C 
BRANCH  23  24
ATOM     24  C3  UNL     1      -3.949  -1.113   1.130  0.00  0.00    +0.136 C 
BRANCH  24  25
ATOM     25  O2  UNL     1      -5.163  -1.584   1.658  0.00  0.00    -0.390 OA
ATOM     26  H5  UNL     1      -5.809  -1.635   0.906  0.00  0.00    +0.210 HD
ENDBRANCH  24  25
BRANCH  24  27
ATOM     27  C4  UNL     1      -3.952   0.428   1.106  0.00  0.00    +0.068 C 
BRANCH  27  28
ATOM     28  C5  UNL     1      -4.995   0.959   0.156  0.00  0.00    -0.044 A 
ATOM     29  C6  UNL     1      -6.258   1.348   0.630  0.00  0.00    +0.004 A 
ATOM     30  C7  UNL     1      -7.232   1.812  -0.260  0.00  0.00    +0.002 A 
ATOM     31  C8  UNL     1      -6.955   1.883  -1.628  0.00  0.00    +0.020 A 
ATOM     32  C9  UNL     1      -5.703   1.487  -2.110  0.00  0.00    +0.041 A 
ATOM     33 CL1  UNL     1      -5.358   1.568  -3.828  0.00  0.00    -0.084 Cl
ATOM     34  C10 UNL     1      -4.726   1.023  -1.222  0.00  0.00    +0.023 A 
ENDBRANCH  27  28
ENDBRANCH  24  27
ENDBRANCH  23  24
ENDBRANCH  21  23
ENDBRANCH   1  20
TORSDOF 7
