MODEL 1
REMARK VINA RESULT:    -6.132      0.000      0.000
REMARK INTER + INTRA:          -8.175
REMARK INTER:                  -7.566
REMARK INTRA:                  -0.609
REMARK UNBOUND:                -0.609
REMARK  Name = /home/qwerty/github/datacon2025hack/step_04_hit_selection/docking/ligands/lig_388.pdb
REMARK  5 active torsions:
REMARK  status: ('A' for Active; 'I' for Inactive)
REMARK    1  A    between atoms: C1_1  and  C2_2
REMARK    2  A    between atoms: C2_2  and  C3_3
REMARK    3  A    between atoms: C3_3  and  N1_4
REMARK    4  A    between atoms: C3_3  and  C13_16
REMARK    5  A    between atoms: C4_5  and  C5_7
REMARK                            x       y       z     vdW  Elec       q    Type
REMARK                         _______ _______ _______ _____ _____    ______ ____
ROOT
ATOM      1  N1  UNL     1       8.853  11.168  28.078  0.00  0.00    -0.308 N 
ATOM      2  C4  UNL     1       8.887  12.599  27.950  0.00  0.00    +0.244 C 
ATOM      3  O1  UNL     1       7.920  13.200  27.408  0.00  0.00    -0.270 OA
ATOM      4  H7  UNL     1       9.553  10.701  28.695  0.00  0.00    +0.149 HD
ENDROOT
BRANCH   2   5
ATOM      5  C5  UNL     1      10.035  13.384  28.459  0.00  0.00    +0.037 A 
ATOM      6  C6  UNL     1      10.842  14.125  27.554  0.00  0.00    +0.015 A 
ATOM      7  C7  UNL     1      11.944  14.868  28.012  0.00  0.00    +0.027 A 
ATOM      8  C8  UNL     1      12.224  14.846  29.376  0.00  0.00    +0.046 A 
ATOM      9  N2  UNL     1      13.227  15.469  30.015  0.00  0.00    -0.361 N 
ATOM     10  C9  UNL     1      13.099  15.136  31.319  0.00  0.00    +0.083 A 
ATOM     11  C10 UNL     1      12.005  14.297  31.510  0.00  0.00    +0.027 A 
ATOM     12  C11 UNL     1      11.460  14.127  30.255  0.00  0.00    +0.000 A 
ATOM     13  C12 UNL     1      10.360  13.383  29.838  0.00  0.00    +0.023 A 
ATOM     14  H10 UNL     1      13.962  16.081  29.593  0.00  0.00    +0.165 HD
ENDBRANCH   2   5
BRANCH   1  15
ATOM     15  C3  UNL     1       7.846  10.347  27.390  0.00  0.00    +0.078 C 
BRANCH  15  16
ATOM     16  C13 UNL     1       7.242   9.304  28.382  0.00  0.00    +0.035 C 
ATOM     17  C14 UNL     1       7.604   9.602  29.852  0.00  0.00    +0.010 C 
ATOM     18  C15 UNL     1       7.024   8.530  30.786  0.00  0.00    +0.028 C 
ATOM     19  C16 UNL     1       7.018   7.143  30.123  0.00  0.00    +0.160 C 
ATOM     20  O2  UNL     1       8.031   7.059  29.142  0.00  0.00    -0.379 OA
ATOM     21  C17 UNL     1       7.685   7.852  28.016  0.00  0.00    +0.165 C 
ENDBRANCH  15  16
BRANCH  15  23
ATOM     22  C1  UNL     1       7.719   9.963  24.860  0.00  0.00    +0.006 C 
ATOM     23  C2  UNL     1       8.501   9.688  26.146  0.00  0.00    +0.019 C 
ENDBRANCH  15  23
ENDBRANCH   1  15
TORSDOF 4
ENDMDL
MODEL 2
REMARK VINA RESULT:    -6.119     14.946     16.363
REMARK INTER + INTRA:          -8.159
REMARK INTER:                  -7.546
REMARK INTRA:                  -0.613
REMARK UNBOUND:                -0.609
REMARK  Name = /home/qwerty/github/datacon2025hack/step_04_hit_selection/docking/ligands/lig_388.pdb
REMARK  5 active torsions:
REMARK  status: ('A' for Active; 'I' for Inactive)
REMARK    1  A    between atoms: C1_1  and  C2_2
REMARK    2  A    between atoms: C2_2  and  C3_3
REMARK    3  A    between atoms: C3_3  and  N1_4
REMARK    4  A    between atoms: C3_3  and  C13_16
REMARK    5  A    between atoms: C4_5  and  C5_7
REMARK                            x       y       z     vdW  Elec       q    Type
REMARK                         _______ _______ _______ _____ _____    ______ ____
ROOT
ATOM      1  N1  UNL     1      21.490   1.304  29.696  0.00  0.00    -0.308 N 
ATOM      2  C4  UNL     1      21.383   1.704  31.072  0.00  0.00    +0.244 C 
ATOM      3  O1  UNL     1      22.263   2.457  31.573  0.00  0.00    -0.270 OA
ATOM      4  H7  UNL     1      20.669   0.851  29.239  0.00  0.00    +0.149 HD
ENDROOT
BRANCH   2   5
ATOM      5  C5  UNL     1      20.247   1.259  31.912  0.00  0.00    +0.037 A 
ATOM      6  C6  UNL     1      19.470   0.138  31.512  0.00  0.00    +0.015 A 
ATOM      7  C7  UNL     1      18.379  -0.297  32.287  0.00  0.00    +0.027 A 
ATOM      8  C8  UNL     1      18.082   0.412  33.448  0.00  0.00    +0.046 A 
ATOM      9  N2  UNL     1      17.085   0.175  34.316  0.00  0.00    -0.361 N 
ATOM     10  C9  UNL     1      17.188   1.132  35.267  0.00  0.00    +0.083 A 
ATOM     11  C10 UNL     1      18.259   1.979  35.002  0.00  0.00    +0.027 A 
ATOM     12  C11 UNL     1      18.816   1.499  33.835  0.00  0.00    +0.000 A 
ATOM     13  C12 UNL     1      19.904   1.955  33.096  0.00  0.00    +0.023 A 
ATOM     14  H10 UNL     1      16.370  -0.585  34.266  0.00  0.00    +0.165 HD
ENDBRANCH   2   5
BRANCH   1  15
ATOM     15  C3  UNL     1      22.707   1.540  28.908  0.00  0.00    +0.078 C 
BRANCH  15  16
ATOM     16  C13 UNL     1      22.339   1.724  27.402  0.00  0.00    +0.035 C 
ATOM     17  C14 UNL     1      22.617   3.153  26.891  0.00  0.00    +0.010 C 
ATOM     18  C15 UNL     1      22.202   3.298  25.420  0.00  0.00    +0.028 C 
ATOM     19  C16 UNL     1      20.961   2.452  25.095  0.00  0.00    +0.160 C 
ATOM     20  O2  UNL     1      20.183   2.249  26.255  0.00  0.00    -0.379 OA
ATOM     21  C17 UNL     1      20.845   1.353  27.135  0.00  0.00    +0.165 C 
ENDBRANCH  15  16
BRANCH  15  23
ATOM     22  C1  UNL     1      23.047  -0.999  28.918  0.00  0.00    +0.006 C 
ATOM     23  C2  UNL     1      23.696   0.367  29.148  0.00  0.00    +0.019 C 
ENDBRANCH  15  23
ENDBRANCH   1  15
TORSDOF 4
ENDMDL
MODEL 3
REMARK VINA RESULT:    -6.116     15.069     15.933
REMARK INTER + INTRA:          -8.154
REMARK INTER:                  -7.529
REMARK INTRA:                  -0.626
REMARK UNBOUND:                -0.609
REMARK  Name = /home/qwerty/github/datacon2025hack/step_04_hit_selection/docking/ligands/lig_388.pdb
REMARK  5 active torsions:
REMARK  status: ('A' for Active; 'I' for Inactive)
REMARK    1  A    between atoms: C1_1  and  C2_2
REMARK    2  A    between atoms: C2_2  and  C3_3
REMARK    3  A    between atoms: C3_3  and  N1_4
REMARK    4  A    between atoms: C3_3  and  C13_16
REMARK    5  A    between atoms: C4_5  and  C5_7
REMARK                            x       y       z     vdW  Elec       q    Type
REMARK                         _______ _______ _______ _____ _____    ______ ____
ROOT
ATOM      1  N1  UNL     1      21.868   1.783  28.225  0.00  0.00    -0.308 N 
ATOM      2  C4  UNL     1      21.401   1.819  26.867  0.00  0.00    +0.244 C 
ATOM      3  O1  UNL     1      20.718   0.859  26.416  0.00  0.00    -0.270 OA
ATOM      4  H7  UNL     1      22.257   2.654  28.648  0.00  0.00    +0.149 HD
ENDROOT
BRANCH   2   5
ATOM      5  C5  UNL     1      21.697   2.974  25.988  0.00  0.00    +0.037 A 
ATOM      6  C6  UNL     1      22.677   3.926  26.378  0.00  0.00    +0.015 A 
ATOM      7  C7  UNL     1      22.967   5.037  25.565  0.00  0.00    +0.027 A 
ATOM      8  C8  UNL     1      22.256   5.177  24.376  0.00  0.00    +0.046 A 
ATOM      9  N2  UNL     1      22.366   6.163  23.470  0.00  0.00    -0.361 N 
ATOM     10  C9  UNL     1      21.464   5.878  22.504  0.00  0.00    +0.083 A 
ATOM     11  C10 UNL     1      20.778   4.703  22.797  0.00  0.00    +0.027 A 
ATOM     12  C11 UNL     1      21.302   4.273  23.997  0.00  0.00    +0.000 A 
ATOM     13  C12 UNL     1      20.992   3.160  24.774  0.00  0.00    +0.023 A 
ATOM     14  H10 UNL     1      23.010   6.984  23.505  0.00  0.00    +0.165 HD
ENDBRANCH   2   5
BRANCH   1  15
ATOM     15  C3  UNL     1      21.787   0.566  29.046  0.00  0.00    +0.078 C 
BRANCH  15  16
ATOM     16  C13 UNL     1      21.547   0.947  30.540  0.00  0.00    +0.035 C 
ATOM     17  C14 UNL     1      20.273   0.302  31.123  0.00  0.00    +0.010 C 
ATOM     18  C15 UNL     1      20.056   0.736  32.579  0.00  0.00    +0.028 C 
ATOM     19  C16 UNL     1      20.521   2.182  32.815  0.00  0.00    +0.160 C 
ATOM     20  O2  UNL     1      20.461   2.923  31.615  0.00  0.00    -0.379 OA
ATOM     21  C17 UNL     1      21.483   2.497  30.726  0.00  0.00    +0.165 C 
ENDBRANCH  15  16
BRANCH  15  23
ATOM     22  C1  UNL     1      24.346   0.528  29.155  0.00  0.00    +0.006 C 
ATOM     23  C2  UNL     1      23.080  -0.269  28.835  0.00  0.00    +0.019 C 
ENDBRANCH  15  23
ENDBRANCH   1  15
TORSDOF 4
ENDMDL
MODEL 4
REMARK VINA RESULT:    -5.916      2.121      7.446
REMARK INTER + INTRA:          -7.908
REMARK INTER:                  -7.309
REMARK INTRA:                  -0.600
REMARK UNBOUND:                -0.609
REMARK  Name = /home/qwerty/github/datacon2025hack/step_04_hit_selection/docking/ligands/lig_388.pdb
REMARK  5 active torsions:
REMARK  status: ('A' for Active; 'I' for Inactive)
REMARK    1  A    between atoms: C1_1  and  C2_2
REMARK    2  A    between atoms: C2_2  and  C3_3
REMARK    3  A    between atoms: C3_3  and  N1_4
REMARK    4  A    between atoms: C3_3  and  C13_16
REMARK    5  A    between atoms: C4_5  and  C5_7
REMARK                            x       y       z     vdW  Elec       q    Type
REMARK                         _______ _______ _______ _____ _____    ______ ____
ROOT
ATOM      1  N1  UNL     1       9.048  11.396  28.731  0.00  0.00    -0.308 N 
ATOM      2  C4  UNL     1       8.238  10.418  28.059  0.00  0.00    +0.244 C 
ATOM      3  O1  UNL     1       7.952  10.575  26.841  0.00  0.00    -0.270 OA
ATOM      4  H7  UNL     1       9.442  11.165  29.669  0.00  0.00    +0.149 HD
ENDROOT
BRANCH   2   5
ATOM      5  C5  UNL     1       7.744   9.216  28.771  0.00  0.00    +0.037 A 
ATOM      6  C6  UNL     1       7.480   9.280  30.166  0.00  0.00    +0.015 A 
ATOM      7  C7  UNL     1       7.021   8.149  30.865  0.00  0.00    +0.027 A 
ATOM      8  C8  UNL     1       6.845   6.967  30.150  0.00  0.00    +0.046 A 
ATOM      9  N2  UNL     1       6.432   5.780  30.623  0.00  0.00    -0.361 N 
ATOM     10  C9  UNL     1       6.437   4.939  29.563  0.00  0.00    +0.083 A 
ATOM     11  C10 UNL     1       6.853   5.598  28.411  0.00  0.00    +0.027 A 
ATOM     12  C11 UNL     1       7.108   6.893  28.809  0.00  0.00    +0.000 A 
ATOM     13  C12 UNL     1       7.559   7.992  28.084  0.00  0.00    +0.023 A 
ATOM     14  H10 UNL     1       6.168   5.549  31.606  0.00  0.00    +0.165 HD
ENDBRANCH   2   5
BRANCH   1  15
ATOM     15  C3  UNL     1       9.363  12.697  28.124  0.00  0.00    +0.078 C 
BRANCH  15  16
ATOM     16  C13 UNL     1      10.760  13.189  28.615  0.00  0.00    +0.035 C 
ATOM     17  C14 UNL     1      10.727  13.727  30.061  0.00  0.00    +0.010 C 
ATOM     18  C15 UNL     1      12.112  14.236  30.487  0.00  0.00    +0.028 C 
ATOM     19  C16 UNL     1      12.870  14.867  29.309  0.00  0.00    +0.160 C 
ATOM     20  O2  UNL     1      11.965  15.360  28.344  0.00  0.00    -0.379 OA
ATOM     21  C17 UNL     1      11.344  14.281  27.662  0.00  0.00    +0.165 C 
ENDBRANCH  15  16
BRANCH  15  23
ATOM     22  C1  UNL     1       7.545  14.249  27.200  0.00  0.00    +0.006 C 
ATOM     23  C2  UNL     1       8.220  13.695  28.456  0.00  0.00    +0.019 C 
ENDBRANCH  15  23
ENDBRANCH   1  15
TORSDOF 4
ENDMDL
MODEL 5
REMARK VINA RESULT:    -5.773     14.656     16.986
REMARK INTER + INTRA:          -7.732
REMARK INTER:                  -7.183
REMARK INTRA:                  -0.549
REMARK UNBOUND:                -0.609
REMARK  Name = /home/qwerty/github/datacon2025hack/step_04_hit_selection/docking/ligands/lig_388.pdb
REMARK  5 active torsions:
REMARK  status: ('A' for Active; 'I' for Inactive)
REMARK    1  A    between atoms: C1_1  and  C2_2
REMARK    2  A    between atoms: C2_2  and  C3_3
REMARK    3  A    between atoms: C3_3  and  N1_4
REMARK    4  A    between atoms: C3_3  and  C13_16
REMARK    5  A    between atoms: C4_5  and  C5_7
REMARK                            x       y       z     vdW  Elec       q    Type
REMARK                         _______ _______ _______ _____ _____    ______ ____
ROOT
ATOM      1  N1  UNL     1      22.740   5.248  32.294  0.00  0.00    -0.308 N 
ATOM      2  C4  UNL     1      21.778   4.262  32.703  0.00  0.00    +0.244 C 
ATOM      3  O1  UNL     1      21.034   4.491  33.697  0.00  0.00    -0.270 OA
ATOM      4  H7  UNL     1      23.207   5.140  31.367  0.00  0.00    +0.149 HD
ENDROOT
BRANCH   2   5
ATOM      5  C5  UNL     1      21.632   2.985  31.968  0.00  0.00    +0.037 A 
ATOM      6  C6  UNL     1      20.664   2.034  32.389  0.00  0.00    +0.015 A 
ATOM      7  C7  UNL     1      20.515   0.809  31.713  0.00  0.00    +0.027 A 
ATOM      8  C8  UNL     1      21.352   0.556  30.629  0.00  0.00    +0.046 A 
ATOM      9  N2  UNL     1      21.386  -0.545  29.862  0.00  0.00    -0.361 N 
ATOM     10  C9  UNL     1      22.369  -0.336  28.957  0.00  0.00    +0.083 A 
ATOM     11  C10 UNL     1      22.962   0.908  29.151  0.00  0.00    +0.027 A 
ATOM     12  C11 UNL     1      22.296   1.461  30.224  0.00  0.00    +0.000 A 
ATOM     13  C12 UNL     1      22.469   2.684  30.865  0.00  0.00    +0.023 A 
ATOM     14  H10 UNL     1      20.782  -1.394  29.948  0.00  0.00    +0.165 HD
ENDBRANCH   2   5
BRANCH   1  15
ATOM     15  C3  UNL     1      23.063   6.415  33.126  0.00  0.00    +0.078 C 
BRANCH  15  16
ATOM     16  C13 UNL     1      23.663   7.551  32.240  0.00  0.00    +0.035 C 
ATOM     17  C14 UNL     1      24.695   8.413  32.995  0.00  0.00    +0.010 C 
ATOM     18  C15 UNL     1      25.227   9.540  32.098  0.00  0.00    +0.028 C 
ATOM     19  C16 UNL     1      24.143  10.064  31.143  0.00  0.00    +0.160 C 
ATOM     20  O2  UNL     1      22.858   9.850  31.687  0.00  0.00    -0.379 OA
ATOM     21  C17 UNL     1      22.540   8.467  31.656  0.00  0.00    +0.165 C 
ENDBRANCH  15  16
BRANCH  15  23
ATOM     22  C1  UNL     1      23.441   6.242  35.655  0.00  0.00    +0.006 C 
ATOM     23  C2  UNL     1      24.020   5.969  34.266  0.00  0.00    +0.019 C 
ENDBRANCH  15  23
ENDBRANCH   1  15
TORSDOF 4
ENDMDL
MODEL 6
REMARK VINA RESULT:    -5.706     13.886     14.783
REMARK INTER + INTRA:          -7.649
REMARK INTER:                  -7.037
REMARK INTRA:                  -0.612
REMARK UNBOUND:                -0.609
REMARK  Name = /home/qwerty/github/datacon2025hack/step_04_hit_selection/docking/ligands/lig_388.pdb
REMARK  5 active torsions:
REMARK  status: ('A' for Active; 'I' for Inactive)
REMARK    1  A    between atoms: C1_1  and  C2_2
REMARK    2  A    between atoms: C2_2  and  C3_3
REMARK    3  A    between atoms: C3_3  and  N1_4
REMARK    4  A    between atoms: C3_3  and  C13_16
REMARK    5  A    between atoms: C4_5  and  C5_7
REMARK                            x       y       z     vdW  Elec       q    Type
REMARK                         _______ _______ _______ _____ _____    ______ ____
ROOT
ATOM      1  N1  UNL     1      21.807   3.567  30.466  0.00  0.00    -0.308 N 
ATOM      2  C4  UNL     1      21.482   4.899  30.896  0.00  0.00    +0.244 C 
ATOM      3  O1  UNL     1      20.309   5.336  30.741  0.00  0.00    -0.270 OA
ATOM      4  H7  UNL     1      22.711   3.145  30.772  0.00  0.00    +0.149 HD
ENDROOT
BRANCH   2   5
ATOM      5  C5  UNL     1      22.499   5.764  31.536  0.00  0.00    +0.037 A 
ATOM      6  C6  UNL     1      23.247   5.277  32.642  0.00  0.00    +0.015 A 
ATOM      7  C7  UNL     1      24.210   6.085  33.273  0.00  0.00    +0.027 A 
ATOM      8  C8  UNL     1      24.398   7.376  32.786  0.00  0.00    +0.046 A 
ATOM      9  N2  UNL     1      25.249   8.307  33.248  0.00  0.00    -0.361 N 
ATOM     10  C9  UNL     1      25.059   9.398  32.471  0.00  0.00    +0.083 A 
ATOM     11  C10 UNL     1      24.082   9.157  31.510  0.00  0.00    +0.027 A 
ATOM     12  C11 UNL     1      23.676   7.858  31.729  0.00  0.00    +0.000 A 
ATOM     13  C12 UNL     1      22.717   7.087  31.078  0.00  0.00    +0.023 A 
ATOM     14  H10 UNL     1      25.917   8.213  34.046  0.00  0.00    +0.165 HD
ENDBRANCH   2   5
BRANCH   1  15
ATOM     15  C3  UNL     1      20.893   2.772  29.632  0.00  0.00    +0.078 C 
BRANCH  15  16
ATOM     16  C13 UNL     1      20.312   1.586  30.463  0.00  0.00    +0.035 C 
ATOM     17  C14 UNL     1      18.816   1.765  30.791  0.00  0.00    +0.010 C 
ATOM     18  C15 UNL     1      18.298   0.596  31.642  0.00  0.00    +0.028 C 
ATOM     19  C16 UNL     1      19.375   0.078  32.608  0.00  0.00    +0.160 C 
ATOM     20  O2  UNL     1      20.299   1.101  32.914  0.00  0.00    -0.379 OA
ATOM     21  C17 UNL     1      21.117   1.372  31.785  0.00  0.00    +0.165 C 
ENDBRANCH  15  16
BRANCH  15  23
ATOM     22  C1  UNL     1      21.629   0.784  28.193  0.00  0.00    +0.006 C 
ATOM     23  C2  UNL     1      21.653   2.304  28.361  0.00  0.00    +0.019 C 
ENDBRANCH  15  23
ENDBRANCH   1  15
TORSDOF 4
ENDMDL
MODEL 7
REMARK VINA RESULT:    -5.686      3.773      7.522
REMARK INTER + INTRA:          -7.624
REMARK INTER:                  -6.999
REMARK INTRA:                  -0.625
REMARK UNBOUND:                -0.609
REMARK  Name = /home/qwerty/github/datacon2025hack/step_04_hit_selection/docking/ligands/lig_388.pdb
REMARK  5 active torsions:
REMARK  status: ('A' for Active; 'I' for Inactive)
REMARK    1  A    between atoms: C1_1  and  C2_2
REMARK    2  A    between atoms: C2_2  and  C3_3
REMARK    3  A    between atoms: C3_3  and  N1_4
REMARK    4  A    between atoms: C3_3  and  C13_16
REMARK    5  A    between atoms: C4_5  and  C5_7
REMARK                            x       y       z     vdW  Elec       q    Type
REMARK                         _______ _______ _______ _____ _____    ______ ____
ROOT
ATOM      1  N1  UNL     1       8.699  10.026  25.524  0.00  0.00    -0.308 N 
ATOM      2  C4  UNL     1       8.079   9.855  24.240  0.00  0.00    +0.244 C 
ATOM      3  O1  UNL     1       6.839  10.050  24.115  0.00  0.00    -0.270 OA
ATOM      4  H7  UNL     1       9.740  10.057  25.581  0.00  0.00    +0.149 HD
ENDROOT
BRANCH   2   5
ATOM      5  C5  UNL     1       8.875   9.468  23.052  0.00  0.00    +0.037 A 
ATOM      6  C6  UNL     1       9.354   8.136  22.927  0.00  0.00    +0.015 A 
ATOM      7  C7  UNL     1      10.122   7.748  21.814  0.00  0.00    +0.027 A 
ATOM      8  C8  UNL     1      10.404   8.711  20.849  0.00  0.00    +0.046 A 
ATOM      9  N2  UNL     1      11.125   8.556  19.726  0.00  0.00    -0.361 N 
ATOM     10  C9  UNL     1      11.137   9.767  19.125  0.00  0.00    +0.083 A 
ATOM     11  C10 UNL     1      10.417  10.696  19.870  0.00  0.00    +0.027 A 
ATOM     12  C11 UNL     1       9.957   9.999  20.966  0.00  0.00    +0.000 A 
ATOM     13  C12 UNL     1       9.192  10.418  22.051  0.00  0.00    +0.023 A 
ATOM     14  H10 UNL     1      11.588   7.683  19.388  0.00  0.00    +0.165 HD
ENDBRANCH   2   5
BRANCH   1  15
ATOM     15  C3  UNL     1       7.911  10.187  26.755  0.00  0.00    +0.078 C 
BRANCH  15  16
ATOM     16  C13 UNL     1       8.330  11.501  27.486  0.00  0.00    +0.035 C 
ATOM     17  C14 UNL     1       9.826  11.831  27.306  0.00  0.00    +0.010 C 
ATOM     18  C15 UNL     1      10.201  13.107  28.074  0.00  0.00    +0.028 C 
ATOM     19  C16 UNL     1       9.402  13.238  29.380  0.00  0.00    +0.160 C 
ATOM     20  O2  UNL     1       9.004  11.966  29.847  0.00  0.00    -0.379 OA
ATOM     21  C17 UNL     1       7.987  11.436  29.009  0.00  0.00    +0.165 C 
ENDBRANCH  15  16
BRANCH  15  23
ATOM     22  C1  UNL     1       7.217   7.757  27.173  0.00  0.00    +0.006 C 
ATOM     23  C2  UNL     1       8.094   8.921  27.637  0.00  0.00    +0.019 C 
ENDBRANCH  15  23
ENDBRANCH   1  15
TORSDOF 4
ENDMDL
MODEL 8
REMARK VINA RESULT:    -5.651      4.012      6.331
REMARK INTER + INTRA:          -7.581
REMARK INTER:                  -6.906
REMARK INTRA:                  -0.674
REMARK UNBOUND:                -0.609
REMARK  Name = /home/qwerty/github/datacon2025hack/step_04_hit_selection/docking/ligands/lig_388.pdb
REMARK  5 active torsions:
REMARK  status: ('A' for Active; 'I' for Inactive)
REMARK    1  A    between atoms: C1_1  and  C2_2
REMARK    2  A    between atoms: C2_2  and  C3_3
REMARK    3  A    between atoms: C3_3  and  N1_4
REMARK    4  A    between atoms: C3_3  and  C13_16
REMARK    5  A    between atoms: C4_5  and  C5_7
REMARK                            x       y       z     vdW  Elec       q    Type
REMARK                         _______ _______ _______ _____ _____    ______ ____
ROOT
ATOM      1  N1  UNL     1      11.163  13.368  31.478  0.00  0.00    -0.308 N 
ATOM      2  C4  UNL     1      11.651  14.103  32.613  0.00  0.00    +0.244 C 
ATOM      3  O1  UNL     1      11.947  15.322  32.485  0.00  0.00    -0.270 OA
ATOM      4  H7  UNL     1      10.738  12.428  31.632  0.00  0.00    +0.149 HD
ENDROOT
BRANCH   2   5
ATOM      5  C5  UNL     1      11.797  13.455  33.937  0.00  0.00    +0.037 A 
ATOM      6  C6  UNL     1      12.546  14.099  34.959  0.00  0.00    +0.015 A 
ATOM      7  C7  UNL     1      12.709  13.497  36.220  0.00  0.00    +0.027 A 
ATOM      8  C8  UNL     1      12.123  12.252  36.429  0.00  0.00    +0.046 A 
ATOM      9  N2  UNL     1      12.167  11.505  37.544  0.00  0.00    -0.361 N 
ATOM     10  C9  UNL     1      11.473  10.379  37.263  0.00  0.00    +0.083 A 
ATOM     11  C10 UNL     1      10.983  10.413  35.961  0.00  0.00    +0.027 A 
ATOM     12  C11 UNL     1      11.410  11.619  35.448  0.00  0.00    +0.000 A 
ATOM     13  C12 UNL     1      11.224  12.185  34.190  0.00  0.00    +0.023 A 
ATOM     14  H10 UNL     1      12.645  11.740  38.444  0.00  0.00    +0.165 HD
ENDBRANCH   2   5
BRANCH   1  15
ATOM     15  C3  UNL     1      11.218  13.912  30.114  0.00  0.00    +0.078 C 
BRANCH  15  16
ATOM     16  C13 UNL     1       9.979  13.429  29.298  0.00  0.00    +0.035 C 
ATOM     17  C14 UNL     1       9.386  12.112  29.840  0.00  0.00    +0.010 C 
ATOM     18  C15 UNL     1       8.196  11.655  28.984  0.00  0.00    +0.028 C 
ATOM     19  C16 UNL     1       8.394  12.010  27.502  0.00  0.00    +0.160 C 
ATOM     20  O2  UNL     1       9.769  12.099  27.194  0.00  0.00    -0.379 OA
ATOM     21  C17 UNL     1      10.326  13.265  27.784  0.00  0.00    +0.165 C 
ENDBRANCH  15  16
BRANCH  15  23
ATOM     22  C1  UNL     1      13.553  14.666  29.376  0.00  0.00    +0.006 C 
ATOM     23  C2  UNL     1      12.567  13.500  29.464  0.00  0.00    +0.019 C 
ENDBRANCH  15  23
ENDBRANCH   1  15
TORSDOF 4
ENDMDL
MODEL 9
REMARK VINA RESULT:    -5.591     14.105     15.170
REMARK INTER + INTRA:          -7.507
REMARK INTER:                  -6.769
REMARK INTRA:                  -0.739
REMARK UNBOUND:                -0.609
REMARK  Name = /home/qwerty/github/datacon2025hack/step_04_hit_selection/docking/ligands/lig_388.pdb
REMARK  5 active torsions:
REMARK  status: ('A' for Active; 'I' for Inactive)
REMARK    1  A    between atoms: C1_1  and  C2_2
REMARK    2  A    between atoms: C2_2  and  C3_3
REMARK    3  A    between atoms: C3_3  and  N1_4
REMARK    4  A    between atoms: C3_3  and  C13_16
REMARK    5  A    between atoms: C4_5  and  C5_7
REMARK                            x       y       z     vdW  Elec       q    Type
REMARK                         _______ _______ _______ _____ _____    ______ ____
ROOT
ATOM      1  N1  UNL     1      21.418   4.323  31.151  0.00  0.00    -0.308 N 
ATOM      2  C4  UNL     1      22.135   4.525  32.379  0.00  0.00    +0.244 C 
ATOM      3  O1  UNL     1      21.986   3.710  33.330  0.00  0.00    -0.270 OA
ATOM      4  H7  UNL     1      21.691   4.879  30.311  0.00  0.00    +0.149 HD
ENDROOT
BRANCH   2   5
ATOM      5  C5  UNL     1      23.061   5.670  32.544  0.00  0.00    +0.037 A 
ATOM      6  C6  UNL     1      24.122   5.590  33.486  0.00  0.00    +0.015 A 
ATOM      7  C7  UNL     1      25.007   6.669  33.668  0.00  0.00    +0.027 A 
ATOM      8  C8  UNL     1      24.802   7.815  32.905  0.00  0.00    +0.046 A 
ATOM      9  N2  UNL     1      25.516   8.952  32.932  0.00  0.00    -0.361 N 
ATOM     10  C9  UNL     1      24.930   9.778  32.035  0.00  0.00    +0.083 A 
ATOM     11  C10 UNL     1      23.838   9.160  31.434  0.00  0.00    +0.027 A 
ATOM     12  C11 UNL     1      23.777   7.906  32.004  0.00  0.00    +0.000 A 
ATOM     13  C12 UNL     1      22.884   6.858  31.794  0.00  0.00    +0.023 A 
ATOM     14  H10 UNL     1      26.349   9.162  33.527  0.00  0.00    +0.165 HD
ENDBRANCH   2   5
BRANCH   1  15
ATOM     15  C3  UNL     1      20.332   3.339  31.035  0.00  0.00    +0.078 C 
BRANCH  15  16
ATOM     16  C13 UNL     1      20.695   2.273  29.953  0.00  0.00    +0.035 C 
ATOM     17  C14 UNL     1      21.458   1.067  30.539  0.00  0.00    +0.010 C 
ATOM     18  C15 UNL     1      21.829   0.066  29.435  0.00  0.00    +0.028 C 
ATOM     19  C16 UNL     1      22.148   0.776  28.110  0.00  0.00    +0.160 C 
ATOM     20  O2  UNL     1      22.602   2.091  28.350  0.00  0.00    -0.379 OA
ATOM     21  C17 UNL     1      21.526   2.905  28.791  0.00  0.00    +0.165 C 
ENDBRANCH  15  16
BRANCH  15  23
ATOM     22  C1  UNL     1      19.247   5.495  30.175  0.00  0.00    +0.006 C 
ATOM     23  C2  UNL     1      19.007   4.087  30.724  0.00  0.00    +0.019 C 
ENDBRANCH  15  23
ENDBRANCH   1  15
TORSDOF 4
ENDMDL
