MODEL 1
REMARK VINA RESULT:    -6.282      0.000      0.000
REMARK INTER + INTRA:          -9.101
REMARK INTER:                  -8.485
REMARK INTRA:                  -0.615
REMARK UNBOUND:                -0.615
REMARK  Name = /home/qwerty/github/datacon2025hack/step_04_hit_selection/docking/ligands/lig_483.pdb
REMARK  9 active torsions:
REMARK  status: ('A' for Active; 'I' for Inactive)
REMARK    1  A    between atoms: C1_1  and  O1_2
REMARK    2  A    between atoms: O1_2  and  C2_3
REMARK    3  A    between atoms: C4_5  and  C5_6
REMARK    4  A    between atoms: C7_8  and  C8_9
REMARK    5  A    between atoms: N1_11  and  C9_12
REMARK    6  A    between atoms: C9_12  and  C10_13
REMARK    7  A    between atoms: C13_16  and  N2_17
REMARK    8  A    between atoms: C14_18  and  C15_20
REMARK    9  A    between atoms: C19_26  and  C20_27
REMARK                            x       y       z     vdW  Elec       q    Type
REMARK                         _______ _______ _______ _____ _____    ______ ____
ROOT
ATOM      1  C9  UNL     1      12.279  14.656  32.622  0.00  0.00    +0.108 C 
ENDROOT
BRANCH   1   2
ATOM      2  C10 UNL     1      12.011  14.361  34.108  0.00  0.00    +0.008 C 
ATOM      3  C11 UNL     1      11.280  13.043  34.336  0.00  0.00    +0.007 C 
ATOM      4  C12 UNL     1      11.616  12.645  35.767  0.00  0.00    +0.022 C 
ATOM      5  C13 UNL     1      12.938  13.344  36.116  0.00  0.00    +0.074 C 
ATOM      6  C18 UNL     1      13.297  14.229  34.918  0.00  0.00    +0.027 C 
BRANCH   5   7
ATOM      7  N2  UNL     1      13.998  12.362  36.370  0.00  0.00    -0.307 N 
ATOM      8  C14 UNL     1      15.310  12.733  36.825  0.00  0.00    +0.266 C 
ATOM      9  O3  UNL     1      15.578  13.939  37.083  0.00  0.00    -0.268 OA
ATOM     10  H18 UNL     1      13.818  11.366  36.106  0.00  0.00    +0.149 HD
BRANCH   8  11
ATOM     11  C15 UNL     1      16.355  11.708  36.993  0.00  0.00    +0.168 A 
ATOM     12  C16 UNL     1      16.171  10.431  37.485  0.00  0.00    +0.077 A 
ATOM     13  C17 UNL     1      17.432   9.877  37.442  0.00  0.00    +0.231 A 
ATOM     14  O4  UNL     1      18.265  10.775  36.964  0.00  0.00    -0.362 OA
ATOM     15  N3  UNL     1      17.652  11.889  36.681  0.00  0.00    -0.074 NA
ENDBRANCH   8  11
ENDBRANCH   5   7
ENDBRANCH   1   2
BRANCH   1  18
ATOM     16  C8  UNL     1      11.337  13.457  30.583  0.00  0.00    +0.244 C 
ATOM     17  O2  UNL     1      12.497  13.251  30.130  0.00  0.00    -0.270 OA
ATOM     18  N1  UNL     1      11.158  14.194  31.803  0.00  0.00    -0.311 N 
ATOM     19  H9  UNL     1      10.201  14.251  32.218  0.00  0.00    +0.149 HD
BRANCH  16  25
ATOM     20  C2  UNL     1       8.690  11.020  29.301  0.00  0.00    +0.124 A 
ATOM     21  C3  UNL     1       8.018  11.860  28.393  0.00  0.00    +0.049 A 
ATOM     22  C4  UNL     1       8.407  13.194  28.230  0.00  0.00    -0.046 A 
ATOM     23  C5  UNL     1       7.655  14.089  27.287  0.00  0.00    +0.044 C 
ATOM     24  C6  UNL     1       9.472  13.699  28.983  0.00  0.00    +0.017 A 
ATOM     25  C7  UNL     1      10.174  12.877  29.878  0.00  0.00    +0.043 A 
ATOM     26  C19 UNL     1       9.757  11.534  30.072  0.00  0.00    +0.003 A 
ATOM     27  C20 UNL     1      10.435  10.635  31.080  0.00  0.00    +0.048 C 
BRANCH  20  29
ATOM     28  C1  UNL     1       7.005   9.218  29.755  0.00  0.00    +0.277 C 
ATOM     29  O1  UNL     1       8.323   9.672  29.461  0.00  0.00    -0.495 OA
ENDBRANCH  20  29
ENDBRANCH  16  25
ENDBRANCH   1  18
TORSDOF 6
ENDMDL
MODEL 2
REMARK VINA RESULT:    -6.254     12.510     15.977
REMARK INTER + INTRA:          -9.063
REMARK INTER:                  -8.312
REMARK INTRA:                  -0.751
REMARK UNBOUND:                -0.615
REMARK  Name = /home/qwerty/github/datacon2025hack/step_04_hit_selection/docking/ligands/lig_483.pdb
REMARK  9 active torsions:
REMARK  status: ('A' for Active; 'I' for Inactive)
REMARK    1  A    between atoms: C1_1  and  O1_2
REMARK    2  A    between atoms: O1_2  and  C2_3
REMARK    3  A    between atoms: C4_5  and  C5_6
REMARK    4  A    between atoms: C7_8  and  C8_9
REMARK    5  A    between atoms: N1_11  and  C9_12
REMARK    6  A    between atoms: C9_12  and  C10_13
REMARK    7  A    between atoms: C13_16  and  N2_17
REMARK    8  A    between atoms: C14_18  and  C15_20
REMARK    9  A    between atoms: C19_26  and  C20_27
REMARK                            x       y       z     vdW  Elec       q    Type
REMARK                         _______ _______ _______ _____ _____    ______ ____
ROOT
ATOM      1  C9  UNL     1      21.520   2.119  31.617  0.00  0.00    +0.108 C 
ENDROOT
BRANCH   1   2
ATOM      2  C10 UNL     1      22.210   1.560  30.360  0.00  0.00    +0.008 C 
ATOM      3  C11 UNL     1      21.575   0.272  29.850  0.00  0.00    +0.007 C 
ATOM      4  C12 UNL     1      21.956   0.198  28.378  0.00  0.00    +0.022 C 
ATOM      5  C13 UNL     1      22.246   1.638  27.928  0.00  0.00    +0.074 C 
ATOM      6  C18 UNL     1      22.135   2.519  29.177  0.00  0.00    +0.027 C 
BRANCH   5   7
ATOM      7  N2  UNL     1      21.287   2.068  26.904  0.00  0.00    -0.307 N 
ATOM      8  C14 UNL     1      21.668   2.860  25.766  0.00  0.00    +0.266 C 
ATOM      9  O3  UNL     1      22.878   3.165  25.577  0.00  0.00    -0.268 OA
ATOM     10  H18 UNL     1      20.272   1.878  27.070  0.00  0.00    +0.149 HD
BRANCH   8  11
ATOM     11  C15 UNL     1      20.648   3.323  24.809  0.00  0.00    +0.168 A 
ATOM     12  C16 UNL     1      19.660   4.254  25.060  0.00  0.00    +0.077 A 
ATOM     13  C17 UNL     1      18.978   4.339  23.866  0.00  0.00    +0.231 A 
ATOM     14  O4  UNL     1      19.538   3.518  23.006  0.00  0.00    -0.362 OA
ATOM     15  N3  UNL     1      20.547   2.890  23.538  0.00  0.00    -0.074 NA
ENDBRANCH   8  11
ENDBRANCH   5   7
ENDBRANCH   1   2
BRANCH   1  18
ATOM     16  C8  UNL     1      21.515   4.514  32.480  0.00  0.00    +0.244 C 
ATOM     17  O2  UNL     1      20.261   4.588  32.360  0.00  0.00    -0.270 OA
ATOM     18  N1  UNL     1      22.211   3.321  32.083  0.00  0.00    -0.311 N 
ATOM     19  H9  UNL     1      23.229   3.239  32.299  0.00  0.00    +0.149 HD
BRANCH  16  25
ATOM     20  C2  UNL     1      23.518   7.730  32.966  0.00  0.00    +0.124 A 
ATOM     21  C3  UNL     1      23.726   7.668  34.358  0.00  0.00    +0.049 A 
ATOM     22  C4  UNL     1      23.200   6.616  35.113  0.00  0.00    -0.046 A 
ATOM     23  C5  UNL     1      23.396   6.585  36.603  0.00  0.00    +0.044 C 
ATOM     24  C6  UNL     1      22.453   5.617  34.480  0.00  0.00    +0.017 A 
ATOM     25  C7  UNL     1      22.249   5.642  33.092  0.00  0.00    +0.043 A 
ATOM     26  C19 UNL     1      22.751   6.728  32.329  0.00  0.00    +0.003 A 
ATOM     27  C20 UNL     1      22.492   6.836  30.843  0.00  0.00    +0.048 C 
BRANCH  20  29
ATOM     28  C1  UNL     1      25.360   9.323  32.363  0.00  0.00    +0.277 C 
ATOM     29  O1  UNL     1      24.058   8.770  32.190  0.00  0.00    -0.495 OA
ENDBRANCH  20  29
ENDBRANCH  16  25
ENDBRANCH   1  18
TORSDOF 6
ENDMDL
MODEL 3
REMARK VINA RESULT:    -6.208      2.050      3.409
REMARK INTER + INTRA:          -9.001
REMARK INTER:                  -8.349
REMARK INTRA:                  -0.652
REMARK UNBOUND:                -0.615
REMARK  Name = /home/qwerty/github/datacon2025hack/step_04_hit_selection/docking/ligands/lig_483.pdb
REMARK  9 active torsions:
REMARK  status: ('A' for Active; 'I' for Inactive)
REMARK    1  A    between atoms: C1_1  and  O1_2
REMARK    2  A    between atoms: O1_2  and  C2_3
REMARK    3  A    between atoms: C4_5  and  C5_6
REMARK    4  A    between atoms: C7_8  and  C8_9
REMARK    5  A    between atoms: N1_11  and  C9_12
REMARK    6  A    between atoms: C9_12  and  C10_13
REMARK    7  A    between atoms: C13_16  and  N2_17
REMARK    8  A    between atoms: C14_18  and  C15_20
REMARK    9  A    between atoms: C19_26  and  C20_27
REMARK                            x       y       z     vdW  Elec       q    Type
REMARK                         _______ _______ _______ _____ _____    ______ ____
ROOT
ATOM      1  C9  UNL     1      12.179  14.033  34.241  0.00  0.00    +0.108 C 
ENDROOT
BRANCH   1   2
ATOM      2  C10 UNL     1      13.604  14.504  34.582  0.00  0.00    +0.008 C 
ATOM      3  C11 UNL     1      13.759  14.943  36.033  0.00  0.00    +0.007 C 
ATOM      4  C12 UNL     1      15.245  14.803  36.333  0.00  0.00    +0.022 C 
ATOM      5  C13 UNL     1      15.796  13.768  35.342  0.00  0.00    +0.074 C 
ATOM      6  C18 UNL     1      14.642  13.400  34.404  0.00  0.00    +0.027 C 
BRANCH   5   7
ATOM      7  N2  UNL     1      16.289  12.580  36.047  0.00  0.00    -0.307 N 
ATOM      8  C14 UNL     1      17.685  12.245  36.125  0.00  0.00    +0.266 C 
ATOM      9  O3  UNL     1      18.554  13.013  35.628  0.00  0.00    -0.268 OA
ATOM     10  H18 UNL     1      15.585  11.898  36.414  0.00  0.00    +0.149 HD
BRANCH   8  11
ATOM     11  C15 UNL     1      18.114  11.000  36.785  0.00  0.00    +0.168 A 
ATOM     12  C16 UNL     1      17.391  10.282  37.718  0.00  0.00    +0.077 A 
ATOM     13  C17 UNL     1      18.212   9.217  38.021  0.00  0.00    +0.231 A 
ATOM     14  O4  UNL     1      19.315   9.327  37.315  0.00  0.00    -0.362 OA
ATOM     15  N3  UNL     1      19.291  10.387  36.559  0.00  0.00    -0.074 NA
ENDBRANCH   8  11
ENDBRANCH   5   7
ENDBRANCH   1   2
BRANCH   1  18
ATOM     16  C8  UNL     1      11.816  13.242  31.848  0.00  0.00    +0.244 C 
ATOM     17  O2  UNL     1      12.093  12.052  32.167  0.00  0.00    -0.270 OA
ATOM     18  N1  UNL     1      11.885  14.288  32.830  0.00  0.00    -0.311 N 
ATOM     19  H9  UNL     1      11.541  15.240  32.574  0.00  0.00    +0.149 HD
BRANCH  16  25
ATOM     20  C2  UNL     1      11.614  14.585  28.278  0.00  0.00    +0.124 A 
ATOM     21  C3  UNL     1      10.334  14.117  27.924  0.00  0.00    +0.049 A 
ATOM     22  C4  UNL     1       9.575  13.360  28.823  0.00  0.00    -0.046 A 
ATOM     23  C5  UNL     1       8.228  12.833  28.416  0.00  0.00    +0.044 C 
ATOM     24  C6  UNL     1      10.098  13.059  30.085  0.00  0.00    +0.017 A 
ATOM     25  C7  UNL     1      11.360  13.533  30.472  0.00  0.00    +0.043 A 
ATOM     26  C19 UNL     1      12.147  14.269  29.549  0.00  0.00    +0.003 A 
ATOM     27  C20 UNL     1      13.543  14.734  29.895  0.00  0.00    +0.048 C 
BRANCH  20  29
ATOM     28  C1  UNL     1      13.137  14.848  26.303  0.00  0.00    +0.277 C 
ATOM     29  O1  UNL     1      12.380  15.364  27.394  0.00  0.00    -0.495 OA
ENDBRANCH  20  29
ENDBRANCH  16  25
ENDBRANCH   1  18
TORSDOF 6
ENDMDL
MODEL 4
REMARK VINA RESULT:    -6.167      8.458     12.674
REMARK INTER + INTRA:          -8.945
REMARK INTER:                  -8.268
REMARK INTRA:                  -0.677
REMARK UNBOUND:                -0.615
REMARK  Name = /home/qwerty/github/datacon2025hack/step_04_hit_selection/docking/ligands/lig_483.pdb
REMARK  9 active torsions:
REMARK  status: ('A' for Active; 'I' for Inactive)
REMARK    1  A    between atoms: C1_1  and  O1_2
REMARK    2  A    between atoms: O1_2  and  C2_3
REMARK    3  A    between atoms: C4_5  and  C5_6
REMARK    4  A    between atoms: C7_8  and  C8_9
REMARK    5  A    between atoms: N1_11  and  C9_12
REMARK    6  A    between atoms: C9_12  and  C10_13
REMARK    7  A    between atoms: C13_16  and  N2_17
REMARK    8  A    between atoms: C14_18  and  C15_20
REMARK    9  A    between atoms: C19_26  and  C20_27
REMARK                            x       y       z     vdW  Elec       q    Type
REMARK                         _______ _______ _______ _____ _____    ______ ____
ROOT
ATOM      1  C9  UNL     1      23.137   5.634  33.827  0.00  0.00    +0.108 C 
ENDROOT
BRANCH   1   2
ATOM      2  C10 UNL     1      22.750   5.809  35.306  0.00  0.00    +0.008 C 
ATOM      3  C11 UNL     1      23.644   6.795  36.048  0.00  0.00    +0.007 C 
ATOM      4  C12 UNL     1      22.813   7.273  37.230  0.00  0.00    +0.022 C 
ATOM      5  C13 UNL     1      21.342   7.066  36.842  0.00  0.00    +0.074 C 
ATOM      6  C18 UNL     1      21.341   6.366  35.479  0.00  0.00    +0.027 C 
BRANCH   5   7
ATOM      7  N2  UNL     1      20.635   8.350  36.765  0.00  0.00    -0.307 N 
ATOM      8  C14 UNL     1      19.313   8.543  37.295  0.00  0.00    +0.266 C 
ATOM      9  O3  UNL     1      18.729   7.608  37.911  0.00  0.00    -0.268 OA
ATOM     10  H18 UNL     1      21.073   9.119  36.208  0.00  0.00    +0.149 HD
BRANCH   8  11
ATOM     11  C15 UNL     1      18.626   9.835  37.124  0.00  0.00    +0.168 A 
ATOM     12  C16 UNL     1      17.364  10.153  37.588  0.00  0.00    +0.077 A 
ATOM     13  C17 UNL     1      17.184  11.457  37.179  0.00  0.00    +0.231 A 
ATOM     14  O4  UNL     1      18.261  11.844  36.532  0.00  0.00    -0.362 OA
ATOM     15  N3  UNL     1      19.151  10.894  36.480  0.00  0.00    -0.074 NA
ENDBRANCH   8  11
ENDBRANCH   5   7
ENDBRANCH   1   2
BRANCH   1  18
ATOM     16  C8  UNL     1      21.633   4.164  32.392  0.00  0.00    +0.244 C 
ATOM     17  O2  UNL     1      20.971   5.166  32.004  0.00  0.00    -0.270 OA
ATOM     18  N1  UNL     1      22.701   4.326  33.340  0.00  0.00    -0.311 N 
ATOM     19  H9  UNL     1      23.309   3.504  33.556  0.00  0.00    +0.149 HD
BRANCH  16  25
ATOM     20  C2  UNL     1      20.341   0.604  31.898  0.00  0.00    +0.124 A 
ATOM     21  C3  UNL     1      20.947   0.304  30.662  0.00  0.00    +0.049 A 
ATOM     22  C4  UNL     1      21.732   1.254  30.002  0.00  0.00    -0.046 A 
ATOM     23  C5  UNL     1      22.339   0.933  28.666  0.00  0.00    +0.044 C 
ATOM     24  C6  UNL     1      21.912   2.518  30.573  0.00  0.00    +0.017 A 
ATOM     25  C7  UNL     1      21.338   2.836  31.813  0.00  0.00    +0.043 A 
ATOM     26  C19 UNL     1      20.511   1.886  32.467  0.00  0.00    +0.003 A 
ATOM     27  C20 UNL     1      19.811   2.211  33.767  0.00  0.00    +0.048 C 
BRANCH  20  29
ATOM     28  C1  UNL     1      18.168  -0.548  32.392  0.00  0.00    +0.277 C 
ATOM     29  O1  UNL     1      19.565  -0.348  32.584  0.00  0.00    -0.495 OA
ENDBRANCH  20  29
ENDBRANCH  16  25
ENDBRANCH   1  18
TORSDOF 6
ENDMDL
MODEL 5
REMARK VINA RESULT:    -6.144     13.495     14.634
REMARK INTER + INTRA:          -8.915
REMARK INTER:                  -7.723
REMARK INTRA:                  -1.192
REMARK UNBOUND:                -0.615
REMARK  Name = /home/qwerty/github/datacon2025hack/step_04_hit_selection/docking/ligands/lig_483.pdb
REMARK  9 active torsions:
REMARK  status: ('A' for Active; 'I' for Inactive)
REMARK    1  A    between atoms: C1_1  and  O1_2
REMARK    2  A    between atoms: O1_2  and  C2_3
REMARK    3  A    between atoms: C4_5  and  C5_6
REMARK    4  A    between atoms: C7_8  and  C8_9
REMARK    5  A    between atoms: N1_11  and  C9_12
REMARK    6  A    between atoms: C9_12  and  C10_13
REMARK    7  A    between atoms: C13_16  and  N2_17
REMARK    8  A    between atoms: C14_18  and  C15_20
REMARK    9  A    between atoms: C19_26  and  C20_27
REMARK                            x       y       z     vdW  Elec       q    Type
REMARK                         _______ _______ _______ _____ _____    ______ ____
ROOT
ATOM      1  C9  UNL     1      21.842   2.765  25.178  0.00  0.00    +0.108 C 
ENDROOT
BRANCH   1   2
ATOM      2  C10 UNL     1      22.211   3.253  26.589  0.00  0.00    +0.008 C 
ATOM      3  C11 UNL     1      21.414   4.477  27.028  0.00  0.00    +0.007 C 
ATOM      4  C12 UNL     1      21.459   4.454  28.550  0.00  0.00    +0.022 C 
ATOM      5  C13 UNL     1      21.715   2.996  28.958  0.00  0.00    +0.074 C 
ATOM      6  C18 UNL     1      21.926   2.207  27.662  0.00  0.00    +0.027 C 
BRANCH   5   7
ATOM      7  N2  UNL     1      20.578   2.457  29.714  0.00  0.00    -0.307 N 
ATOM      8  C14 UNL     1      20.722   1.849  31.008  0.00  0.00    +0.266 C 
ATOM      9  O3  UNL     1      21.850   1.814  31.574  0.00  0.00    -0.268 OA
ATOM     10  H18 UNL     1      19.646   2.421  29.240  0.00  0.00    +0.149 HD
BRANCH   8  11
ATOM     11  C15 UNL     1      19.555   1.261  31.686  0.00  0.00    +0.168 A 
ATOM     12  C16 UNL     1      19.479  -0.011  32.221  0.00  0.00    +0.077 A 
ATOM     13  C17 UNL     1      18.202  -0.076  32.734  0.00  0.00    +0.231 A 
ATOM     14  O4  UNL     1      17.601   1.071  32.504  0.00  0.00    -0.362 OA
ATOM     15  N3  UNL     1      18.385   1.900  31.876  0.00  0.00    -0.074 NA
ENDBRANCH   8  11
ENDBRANCH   5   7
ENDBRANCH   1   2
BRANCH   1  18
ATOM     16  C8  UNL     1      19.402   2.088  24.924  0.00  0.00    +0.244 C 
ATOM     17  O2  UNL     1      19.070   3.272  24.640  0.00  0.00    -0.270 OA
ATOM     18  N1  UNL     1      20.766   1.776  25.247  0.00  0.00    -0.311 N 
ATOM     19  H9  UNL     1      21.038   0.775  25.364  0.00  0.00    +0.149 HD
BRANCH  16  25
ATOM     20  C2  UNL     1      16.696  -0.440  25.864  0.00  0.00    +0.124 A 
ATOM     21  C3  UNL     1      16.562  -1.109  24.632  0.00  0.00    +0.049 A 
ATOM     22  C4  UNL     1      17.319  -0.721  23.522  0.00  0.00    -0.046 A 
ATOM     23  C5  UNL     1      17.136  -1.418  22.204  0.00  0.00    +0.044 C 
ATOM     24  C6  UNL     1      18.213   0.348  23.636  0.00  0.00    +0.017 A 
ATOM     25  C7  UNL     1      18.383   1.018  24.857  0.00  0.00    +0.043 A 
ATOM     26  C19 UNL     1      17.590   0.650  25.975  0.00  0.00    +0.003 A 
ATOM     27  C20 UNL     1      17.684   1.392  27.289  0.00  0.00    +0.048 C 
BRANCH  20  29
ATOM     28  C1  UNL     1      14.606  -1.281  26.967  0.00  0.00    +0.277 C 
ATOM     29  O1  UNL     1      15.958  -0.831  26.995  0.00  0.00    -0.495 OA
ENDBRANCH  20  29
ENDBRANCH  16  25
ENDBRANCH   1  18
TORSDOF 6
ENDMDL
MODEL 6
REMARK VINA RESULT:    -6.090      2.642      9.212
REMARK INTER + INTRA:          -8.842
REMARK INTER:                  -8.164
REMARK INTRA:                  -0.677
REMARK UNBOUND:                -0.615
REMARK  Name = /home/qwerty/github/datacon2025hack/step_04_hit_selection/docking/ligands/lig_483.pdb
REMARK  9 active torsions:
REMARK  status: ('A' for Active; 'I' for Inactive)
REMARK    1  A    between atoms: C1_1  and  O1_2
REMARK    2  A    between atoms: O1_2  and  C2_3
REMARK    3  A    between atoms: C4_5  and  C5_6
REMARK    4  A    between atoms: C7_8  and  C8_9
REMARK    5  A    between atoms: N1_11  and  C9_12
REMARK    6  A    between atoms: C9_12  and  C10_13
REMARK    7  A    between atoms: C13_16  and  N2_17
REMARK    8  A    between atoms: C14_18  and  C15_20
REMARK    9  A    between atoms: C19_26  and  C20_27
REMARK                            x       y       z     vdW  Elec       q    Type
REMARK                         _______ _______ _______ _____ _____    ______ ____
ROOT
ATOM      1  C9  UNL     1      11.489  13.519  29.679  0.00  0.00    +0.108 C 
ENDROOT
BRANCH   1   2
ATOM      2  C10 UNL     1       9.989  13.531  29.335  0.00  0.00    +0.008 C 
ATOM      3  C11 UNL     1       9.716  13.751  27.851  0.00  0.00    +0.007 C 
ATOM      4  C12 UNL     1       8.330  13.168  27.613  0.00  0.00    +0.022 C 
ATOM      5  C13 UNL     1       8.093  12.134  28.723  0.00  0.00    +0.074 C 
ATOM      6  C18 UNL     1       9.305  12.207  29.658  0.00  0.00    +0.027 C 
BRANCH   5   7
ATOM      7  N2  UNL     1       7.955  10.786  28.159  0.00  0.00    -0.307 N 
ATOM      8  C14 UNL     1       7.355   9.698  28.883  0.00  0.00    +0.266 C 
ATOM      9  O3  UNL     1       6.864   9.888  30.030  0.00  0.00    -0.268 OA
ATOM     10  H18 UNL     1       8.408  10.590  27.237  0.00  0.00    +0.149 HD
BRANCH   8  11
ATOM     11  C15 UNL     1       7.310   8.349  28.293  0.00  0.00    +0.168 A 
ATOM     12  C16 UNL     1       7.385   7.155  28.984  0.00  0.00    +0.077 A 
ATOM     13  C17 UNL     1       7.298   6.198  27.996  0.00  0.00    +0.231 A 
ATOM     14  O4  UNL     1       7.185   6.805  26.836  0.00  0.00    -0.362 OA
ATOM     15  N3  UNL     1       7.187   8.100  26.975  0.00  0.00    -0.074 NA
ENDBRANCH   8  11
ENDBRANCH   5   7
ENDBRANCH   1   2
BRANCH   1  18
ATOM     16  C8  UNL     1      12.135  14.108  32.070  0.00  0.00    +0.244 C 
ATOM     17  O2  UNL     1      12.462  15.278  31.726  0.00  0.00    -0.270 OA
ATOM     18  N1  UNL     1      11.683  13.165  31.085  0.00  0.00    -0.311 N 
ATOM     19  H9  UNL     1      11.309  12.244  31.407  0.00  0.00    +0.149 HD
BRANCH  16  25
ATOM     20  C2  UNL     1      13.227  12.750  35.469  0.00  0.00    +0.124 A 
ATOM     21  C3  UNL     1      12.051  12.990  36.206  0.00  0.00    +0.049 A 
ATOM     22  C4  UNL     1      10.946  13.604  35.609  0.00  0.00    -0.046 A 
ATOM     23  C5  UNL     1       9.713  13.890  36.418  0.00  0.00    +0.044 C 
ATOM     24  C6  UNL     1      11.012  13.991  34.266  0.00  0.00    +0.017 A 
ATOM     25  C7  UNL     1      12.163  13.743  33.502  0.00  0.00    +0.043 A 
ATOM     26  C19 UNL     1      13.299  13.154  34.116  0.00  0.00    +0.003 A 
ATOM     27  C20 UNL     1      14.586  12.937  33.353  0.00  0.00    +0.048 C 
BRANCH  20  29
ATOM     28  C1  UNL     1      15.129  12.662  37.102  0.00  0.00    +0.277 C 
ATOM     29  O1  UNL     1      14.339  12.116  36.050  0.00  0.00    -0.495 OA
ENDBRANCH  20  29
ENDBRANCH  16  25
ENDBRANCH   1  18
TORSDOF 6
ENDMDL
MODEL 7
REMARK VINA RESULT:    -6.066      9.345     13.148
REMARK INTER + INTRA:          -8.809
REMARK INTER:                  -8.240
REMARK INTRA:                  -0.569
REMARK UNBOUND:                -0.615
REMARK  Name = /home/qwerty/github/datacon2025hack/step_04_hit_selection/docking/ligands/lig_483.pdb
REMARK  9 active torsions:
REMARK  status: ('A' for Active; 'I' for Inactive)
REMARK    1  A    between atoms: C1_1  and  O1_2
REMARK    2  A    between atoms: O1_2  and  C2_3
REMARK    3  A    between atoms: C4_5  and  C5_6
REMARK    4  A    between atoms: C7_8  and  C8_9
REMARK    5  A    between atoms: N1_11  and  C9_12
REMARK    6  A    between atoms: C9_12  and  C10_13
REMARK    7  A    between atoms: C13_16  and  N2_17
REMARK    8  A    between atoms: C14_18  and  C15_20
REMARK    9  A    between atoms: C19_26  and  C20_27
REMARK                            x       y       z     vdW  Elec       q    Type
REMARK                         _______ _______ _______ _____ _____    ______ ____
ROOT
ATOM      1  C9  UNL     1      21.515   4.235  33.810  0.00  0.00    +0.108 C 
ENDROOT
BRANCH   1   2
ATOM      2  C10 UNL     1      22.527   5.320  34.220  0.00  0.00    +0.008 C 
ATOM      3  C11 UNL     1      23.158   6.033  33.030  0.00  0.00    +0.007 C 
ATOM      4  C12 UNL     1      23.627   7.375  33.575  0.00  0.00    +0.022 C 
ATOM      5  C13 UNL     1      22.771   7.667  34.815  0.00  0.00    +0.074 C 
ATOM      6  C18 UNL     1      21.886   6.436  35.039  0.00  0.00    +0.027 C 
BRANCH   5   7
ATOM      7  N2  UNL     1      21.948   8.865  34.612  0.00  0.00    -0.307 N 
ATOM      8  C14 UNL     1      21.151   9.448  35.656  0.00  0.00    +0.266 C 
ATOM      9  O3  UNL     1      21.182   8.970  36.824  0.00  0.00    -0.268 OA
ATOM     10  H18 UNL     1      21.860   9.241  33.640  0.00  0.00    +0.149 HD
BRANCH   8  11
ATOM     11  C15 UNL     1      20.290  10.609  35.373  0.00  0.00    +0.168 A 
ATOM     12  C16 UNL     1      20.596  11.932  35.626  0.00  0.00    +0.077 A 
ATOM     13  C17 UNL     1      19.483  12.616  35.188  0.00  0.00    +0.231 A 
ATOM     14  O4  UNL     1      18.614  11.746  34.724  0.00  0.00    -0.362 OA
ATOM     15  N3  UNL     1      19.065  10.528  34.818  0.00  0.00    -0.074 NA
ENDBRANCH   8  11
ENDBRANCH   5   7
ENDBRANCH   1   2
BRANCH   1  18
ATOM     16  C8  UNL     1      21.020   3.015  31.631  0.00  0.00    +0.244 C 
ATOM     17  O2  UNL     1      19.785   2.993  31.888  0.00  0.00    -0.270 OA
ATOM     18  N1  UNL     1      21.945   3.582  32.573  0.00  0.00    -0.311 N 
ATOM     19  H9  UNL     1      22.944   3.695  32.290  0.00  0.00    +0.149 HD
BRANCH  16  25
ATOM     20  C2  UNL     1      21.998   2.778  27.946  0.00  0.00    +0.124 A 
ATOM     21  C3  UNL     1      22.299   1.405  27.871  0.00  0.00    +0.049 A 
ATOM     22  C4  UNL     1      22.208   0.590  29.004  0.00  0.00    -0.046 A 
ATOM     23  C5  UNL     1      22.571  -0.865  28.918  0.00  0.00    +0.044 C 
ATOM     24  C6  UNL     1      21.822   1.149  30.227  0.00  0.00    +0.017 A 
ATOM     25  C7  UNL     1      21.495   2.510  30.325  0.00  0.00    +0.043 A 
ATOM     26  C19 UNL     1      21.621   3.345  29.185  0.00  0.00    +0.003 A 
ATOM     27  C20 UNL     1      21.353   4.831  29.261  0.00  0.00    +0.048 C 
BRANCH  20  29
ATOM     28  C1  UNL     1      22.377   3.158  25.496  0.00  0.00    +0.277 C 
ATOM     29  O1  UNL     1      22.064   3.606  26.811  0.00  0.00    -0.495 OA
ENDBRANCH  20  29
ENDBRANCH  16  25
ENDBRANCH   1  18
TORSDOF 6
ENDMDL
MODEL 8
REMARK VINA RESULT:    -6.047     13.045     14.809
REMARK INTER + INTRA:          -8.784
REMARK INTER:                  -8.184
REMARK INTRA:                  -0.599
REMARK UNBOUND:                -0.615
REMARK  Name = /home/qwerty/github/datacon2025hack/step_04_hit_selection/docking/ligands/lig_483.pdb
REMARK  9 active torsions:
REMARK  status: ('A' for Active; 'I' for Inactive)
REMARK    1  A    between atoms: C1_1  and  O1_2
REMARK    2  A    between atoms: O1_2  and  C2_3
REMARK    3  A    between atoms: C4_5  and  C5_6
REMARK    4  A    between atoms: C7_8  and  C8_9
REMARK    5  A    between atoms: N1_11  and  C9_12
REMARK    6  A    between atoms: C9_12  and  C10_13
REMARK    7  A    between atoms: C13_16  and  N2_17
REMARK    8  A    between atoms: C14_18  and  C15_20
REMARK    9  A    between atoms: C19_26  and  C20_27
REMARK                            x       y       z     vdW  Elec       q    Type
REMARK                         _______ _______ _______ _____ _____    ______ ____
ROOT
ATOM      1  C9  UNL     1      20.805   1.579  26.502  0.00  0.00    +0.108 C 
ENDROOT
BRANCH   1   2
ATOM      2  C10 UNL     1      21.558   0.962  27.693  0.00  0.00    +0.008 C 
ATOM      3  C11 UNL     1      22.791   1.758  28.102  0.00  0.00    +0.007 C 
ATOM      4  C12 UNL     1      23.042   1.381  29.556  0.00  0.00    +0.022 C 
ATOM      5  C13 UNL     1      21.698   0.902  30.122  0.00  0.00    +0.074 C 
ATOM      6  C18 UNL     1      20.704   0.903  28.956  0.00  0.00    +0.027 C 
BRANCH   5   7
ATOM      7  N2  UNL     1      21.237   1.789  31.196  0.00  0.00    -0.307 N 
ATOM      8  C14 UNL     1      20.488   1.316  32.329  0.00  0.00    +0.266 C 
ATOM      9  O3  UNL     1      20.251   0.084  32.466  0.00  0.00    -0.268 OA
ATOM     10  H18 UNL     1      21.369   2.819  31.073  0.00  0.00    +0.149 HD
BRANCH   8  11
ATOM     11  C15 UNL     1      19.990   2.265  33.338  0.00  0.00    +0.168 A 
ATOM     12  C16 UNL     1      18.936   2.052  34.206  0.00  0.00    +0.077 A 
ATOM     13  C17 UNL     1      18.871   3.219  34.936  0.00  0.00    +0.231 A 
ATOM     14  O4  UNL     1      19.814   4.030  34.511  0.00  0.00    -0.362 OA
ATOM     15  N3  UNL     1      20.508   3.489  33.551  0.00  0.00    -0.074 NA
ENDBRANCH   8  11
ENDBRANCH   5   7
ENDBRANCH   1   2
BRANCH   1  18
ATOM     16  C8  UNL     1      18.581   1.095  25.362  0.00  0.00    +0.244 C 
ATOM     17  O2  UNL     1      18.326   2.327  25.265  0.00  0.00    -0.270 OA
ATOM     18  N1  UNL     1      19.784   0.654  26.011  0.00  0.00    -0.311 N 
ATOM     19  H9  UNL     1      20.030  -0.361  25.977  0.00  0.00    +0.149 HD
BRANCH  16  25
ATOM     20  C2  UNL     1      15.952  -1.631  24.862  0.00  0.00    +0.124 A 
ATOM     21  C3  UNL     1      16.041  -1.789  23.465  0.00  0.00    +0.049 A 
ATOM     22  C4  UNL     1      16.919  -1.004  22.711  0.00  0.00    -0.046 A 
ATOM     23  C5  UNL     1      16.973  -1.156  21.218  0.00  0.00    +0.044 C 
ATOM     24  C6  UNL     1      17.711  -0.045  23.352  0.00  0.00    +0.017 A 
ATOM     25  C7  UNL     1      17.659   0.117  24.744  0.00  0.00    +0.043 A 
ATOM     26  C19 UNL     1      16.743  -0.653  25.507  0.00  0.00    +0.003 A 
ATOM     27  C20 UNL     1      16.598  -0.459  26.999  0.00  0.00    +0.048 C 
BRANCH  20  29
ATOM     28  C1  UNL     1      13.702  -2.169  25.832  0.00  0.00    +0.277 C 
ATOM     29  O1  UNL     1      15.090  -2.427  25.636  0.00  0.00    -0.495 OA
ENDBRANCH  20  29
ENDBRANCH  16  25
ENDBRANCH   1  18
TORSDOF 6
ENDMDL
MODEL 9
REMARK VINA RESULT:    -5.995      7.192     11.986
REMARK INTER + INTRA:          -8.713
REMARK INTER:                  -7.919
REMARK INTRA:                  -0.794
REMARK UNBOUND:                -0.615
REMARK  Name = /home/qwerty/github/datacon2025hack/step_04_hit_selection/docking/ligands/lig_483.pdb
REMARK  9 active torsions:
REMARK  status: ('A' for Active; 'I' for Inactive)
REMARK    1  A    between atoms: C1_1  and  O1_2
REMARK    2  A    between atoms: O1_2  and  C2_3
REMARK    3  A    between atoms: C4_5  and  C5_6
REMARK    4  A    between atoms: C7_8  and  C8_9
REMARK    5  A    between atoms: N1_11  and  C9_12
REMARK    6  A    between atoms: C9_12  and  C10_13
REMARK    7  A    between atoms: C13_16  and  N2_17
REMARK    8  A    between atoms: C14_18  and  C15_20
REMARK    9  A    between atoms: C19_26  and  C20_27
REMARK                            x       y       z     vdW  Elec       q    Type
REMARK                         _______ _______ _______ _____ _____    ______ ____
ROOT
ATOM      1  C9  UNL     1       7.589   9.595  24.598  0.00  0.00    +0.108 C 
ENDROOT
BRANCH   1   2
ATOM      2  C10 UNL     1       8.513   9.632  23.368  0.00  0.00    +0.008 C 
ATOM      3  C11 UNL     1       9.954   9.992  23.711  0.00  0.00    +0.007 C 
ATOM      4  C12 UNL     1      10.787   9.427  22.568  0.00  0.00    +0.022 C 
ATOM      5  C13 UNL     1       9.964   8.288  21.949  0.00  0.00    +0.074 C 
ATOM      6  C18 UNL     1       8.613   8.278  22.672  0.00  0.00    +0.027 C 
BRANCH   5   7
ATOM      7  N2  UNL     1      10.648   7.000  22.112  0.00  0.00    -0.307 N 
ATOM      8  C14 UNL     1      10.663   5.992  21.088  0.00  0.00    +0.266 C 
ATOM      9  O3  UNL     1      10.124   6.212  19.968  0.00  0.00    -0.268 OA
ATOM     10  H18 UNL     1      11.048   6.772  23.051  0.00  0.00    +0.149 HD
BRANCH   8  11
ATOM     11  C15 UNL     1      11.305   4.690  21.337  0.00  0.00    +0.168 A 
ATOM     12  C16 UNL     1      12.590   4.491  21.801  0.00  0.00    +0.077 A 
ATOM     13  C17 UNL     1      12.709   3.120  21.865  0.00  0.00    +0.231 A 
ATOM     14  O4  UNL     1      11.576   2.585  21.466  0.00  0.00    -0.362 OA
ATOM     15  N3  UNL     1      10.707   3.499  21.141  0.00  0.00    -0.074 NA
ENDBRANCH   8  11
ENDBRANCH   5   7
ENDBRANCH   1   2
BRANCH   1  18
ATOM     16  C8  UNL     1       8.314  10.502  26.863  0.00  0.00    +0.244 C 
ATOM     17  O2  UNL     1       8.341   9.340  27.355  0.00  0.00    -0.270 OA
ATOM     18  N1  UNL     1       7.903  10.702  25.501  0.00  0.00    -0.311 N 
ATOM     19  H9  UNL     1       8.000  11.654  25.083  0.00  0.00    +0.149 HD
BRANCH  16  25
ATOM     20  C2  UNL     1      10.505  13.129  28.564  0.00  0.00    +0.124 A 
ATOM     21  C3  UNL     1       9.536  13.752  29.375  0.00  0.00    +0.049 A 
ATOM     22  C4  UNL     1       8.201  13.337  29.342  0.00  0.00    -0.046 A 
ATOM     23  C5  UNL     1       7.172  14.038  30.183  0.00  0.00    +0.044 C 
ATOM     24  C6  UNL     1       7.823  12.297  28.487  0.00  0.00    +0.017 A 
ATOM     25  C7  UNL     1       8.771  11.644  27.685  0.00  0.00    +0.043 A 
ATOM     26  C19 UNL     1      10.119  12.087  27.690  0.00  0.00    +0.003 A 
ATOM     27  C20 UNL     1      11.159  11.464  26.787  0.00  0.00    +0.048 C 
BRANCH  20  29
ATOM     28  C1  UNL     1      12.372  14.710  28.011  0.00  0.00    +0.277 C 
ATOM     29  O1  UNL     1      11.854  13.522  28.601  0.00  0.00    -0.495 OA
ENDBRANCH  20  29
ENDBRANCH  16  25
ENDBRANCH   1  18
TORSDOF 6
ENDMDL
