REMARK  Name = /home/qwerty/github/datacon2025hack/step_04_hit_selection/docking/ligands/lig_338.pdb
REMARK  6 active torsions:
REMARK  status: ('A' for Active; 'I' for Inactive)
REMARK    1  A    between atoms: C1_1  and  C2_2
REMARK    2  A    between atoms: C2_2  and  C3_3
REMARK    3  A    between atoms: C2_2  and  C4_4
REMARK    4  A    between atoms: N4_11  and  C8_12
REMARK    5  A    between atoms: N5_21  and  C16_22
REMARK    6  A    between atoms: C16_22  and  C17_23
REMARK                            x       y       z     vdW  Elec       q    Type
REMARK                         _______ _______ _______ _____ _____    ______ ____
ROOT
ATOM      1  C4  UNL     1      -2.109  -2.377   0.414  0.00  0.00    +0.137 A 
ATOM      2  N1  UNL     1      -1.329  -3.248  -0.259  0.00  0.00    -0.132 NA
ATOM      3  N2  UNL     1      -0.173  -2.645  -0.488  0.00  0.00    -0.113 NA
ATOM      4  C5  UNL     1      -0.260  -1.418   0.059  0.00  0.00    +0.220 A 
ATOM      5  N3  UNL     1       0.803  -0.455  -0.018  0.00  0.00    -0.297 N 
ATOM      6  C6  UNL     1       1.468  -0.242  -1.311  0.00  0.00    +0.127 C 
ATOM      7  C7  UNL     1       2.593   0.792  -1.202  0.00  0.00    +0.124 C 
ATOM      8  N4  UNL     1       3.458   0.483  -0.054  0.00  0.00    -0.325 N 
ATOM      9  C14 UNL     1       2.869   0.034   1.218  0.00  0.00    +0.124 C 
ATOM     10  C15 UNL     1       1.343   0.158   1.201  0.00  0.00    +0.127 C 
ATOM     11  N5  UNL     1      -1.466  -1.206   0.634  0.00  0.00    -0.296 N 
ENDROOT
BRANCH   8  12
ATOM     12  C8  UNL     1       4.881   0.702  -0.136  0.00  0.00    +0.065 A 
ATOM     13  C9  UNL     1       5.773  -0.286   0.318  0.00  0.00    +0.026 A 
ATOM     14  C10 UNL     1       7.154  -0.083   0.240  0.00  0.00    +0.002 A 
ATOM     15  C11 UNL     1       7.658   1.107  -0.289  0.00  0.00    +0.003 A 
ATOM     16  C12 UNL     1       6.783   2.098  -0.737  0.00  0.00    +0.040 A 
ATOM     17  C13 UNL     1       5.399   1.902  -0.663  0.00  0.00    +0.144 A 
ATOM     18  F1  UNL     1       4.572   2.895  -1.074  0.00  0.00    -0.204 F 
ENDBRANCH   8  12
BRANCH   1  20
ATOM     19  C1  UNL     1      -4.385  -3.018  -0.385  0.00  0.00    +0.015 C 
ATOM     20  C2  UNL     1      -3.522  -2.701   0.840  0.00  0.00    +0.051 C 
ATOM     21  C3  UNL     1      -3.519  -3.876   1.822  0.00  0.00    +0.015 C 
ENDBRANCH   1  20
BRANCH  11  22
ATOM     22  C16 UNL     1      -2.009   0.038   1.197  0.00  0.00    +0.157 C 
BRANCH  22  23
ATOM     23  C17 UNL     1      -2.922   0.771   0.200  0.00  0.00    +0.138 C 
ATOM     24  C18 UNL     1      -2.144   1.172  -1.078  0.00  0.00    +0.033 C 
ATOM     25  C19 UNL     1      -3.060   1.902  -2.070  0.00  0.00    +0.005 C 
ATOM     26  C20 UNL     1      -4.189   2.659  -1.359  0.00  0.00    +0.028 C 
ATOM     27  C21 UNL     1      -3.779   3.010   0.075  0.00  0.00    +0.160 C 
ATOM     28  O1  UNL     1      -3.525   1.869   0.884  0.00  0.00    -0.375 OA
ENDBRANCH  22  23
ENDBRANCH  11  22
TORSDOF 4
