REMARK  Name = /home/qwerty/github/datacon2025hack/step_04_hit_selection/docking/ligands/lig_330.pdb
REMARK  6 active torsions:
REMARK  status: ('A' for Active; 'I' for Inactive)
REMARK    1  A    between atoms: C1_1  and  O1_2
REMARK    2  A    between atoms: O1_2  and  C2_3
REMARK    3  A    between atoms: C2_3  and  C3_5
REMARK    4  A    between atoms: C7_9  and  N1_10
REMARK    5  A    between atoms: C14_21  and  O4_22
REMARK    6  A    between atoms: O4_22  and  C15_23
REMARK                            x       y       z     vdW  Elec       q    Type
REMARK                         _______ _______ _______ _____ _____    ______ ____
ROOT
ATOM      1  C3  UNL     1       3.369   0.286   1.014  0.00  0.00    +0.102 A 
ATOM      2  C4  UNL     1       3.661   0.621   2.350  0.00  0.00    +0.019 A 
ATOM      3  C5  UNL     1       2.640   0.761   3.289  0.00  0.00    +0.003 A 
ATOM      4  C6  UNL     1       1.311   0.594   2.909  0.00  0.00    +0.027 A 
ATOM      5  C7  UNL     1       0.984   0.287   1.583  0.00  0.00    +0.078 A 
ATOM      6  C14 UNL     1       2.018   0.086   0.638  0.00  0.00    +0.155 A 
ENDROOT
BRANCH   5   7
ATOM      7  N1  UNL     1      -0.401   0.173   1.220  0.00  0.00    -0.266 N 
ATOM      8  C8  UNL     1      -0.957   0.799   0.054  0.00  0.00    +0.307 C 
ATOM      9  O3  UNL     1      -0.306   1.701  -0.542  0.00  0.00    -0.252 OA
ATOM     10  N2  UNL     1      -2.271   0.436  -0.414  0.00  0.00    -0.285 N 
ATOM     11  C9  UNL     1      -2.703  -0.968  -0.373  0.00  0.00    +0.115 C 
ATOM     12  C10 UNL     1      -4.204  -1.056  -0.083  0.00  0.00    +0.094 C 
ATOM     13  C11 UNL     1      -5.009  -0.182  -1.054  0.00  0.00    +0.252 C 
ATOM     14  F1  UNL     1      -4.889  -0.680  -2.342  0.00  0.00    -0.206 F 
ATOM     15  F2  UNL     1      -6.345  -0.217  -0.694  0.00  0.00    -0.206 F 
ATOM     16  C12 UNL     1      -4.514   1.269  -1.010  0.00  0.00    +0.094 C 
ATOM     17  C13 UNL     1      -3.010   1.355  -1.291  0.00  0.00    +0.115 C 
ATOM     18  H7  UNL     1      -1.064  -0.215   1.929  0.00  0.00    +0.156 HD
ENDBRANCH   5   7
BRANCH   1  19
ATOM     19  C2  UNL     1       4.483   0.129   0.042  0.00  0.00    +0.343 C 
ATOM     20  O2  UNL     1       5.679   0.201   0.439  0.00  0.00    -0.245 OA
BRANCH  19  22
ATOM     21  C1  UNL     1       5.246  -0.254  -2.283  0.00  0.00    +0.280 C 
ATOM     22  O1  UNL     1       4.218  -0.090  -1.314  0.00  0.00    -0.464 OA
ENDBRANCH  19  22
ENDBRANCH   1  19
BRANCH   6  23
ATOM     23  O4  UNL     1       1.709  -0.323  -0.663  0.00  0.00    -0.492 OA
ATOM     24  C15 UNL     1       1.237  -1.636  -0.945  0.00  0.00    +0.277 C 
ENDBRANCH   6  23
TORSDOF 4
