MODEL 1
REMARK VINA RESULT:    -5.752      0.000      0.000
REMARK INTER + INTRA:          -9.246
REMARK INTER:                  -8.274
REMARK INTRA:                  -0.972
REMARK UNBOUND:                -0.972
REMARK  Name = /home/qwerty/github/datacon2025hack/step_04_hit_selection/docking/ligands/lig_275.pdb
REMARK  13 active torsions:
REMARK  status: ('A' for Active; 'I' for Inactive)
REMARK    1  A    between atoms: C1_1  and  C2_2
REMARK    2  A    between atoms: C2_2  and  C3_3
REMARK    3  A    between atoms: C3_3  and  C4_4
REMARK    4  A    between atoms: C3_3  and  C5_5
REMARK    5  A    between atoms: C10_13  and  N4_14
REMARK    6  A    between atoms: C11_15  and  O2_17
REMARK    7  A    between atoms: O2_17  and  C12_18
REMARK    8  A    between atoms: C12_18  and  C13_19
REMARK    9  A    between atoms: C12_18  and  C14_20
REMARK   10  A    between atoms: C12_18  and  C15_21
REMARK   11  A    between atoms: N5_23  and  C17_24
REMARK   12  A    between atoms: C17_24  and  C18_25
REMARK   13  A    between atoms: C18_25  and  O3_26
REMARK                            x       y       z     vdW  Elec       q    Type
REMARK                         _______ _______ _______ _____ _____    ______ ____
ROOT
ATOM      1  C5  UNL     1      19.608  10.127  34.965  0.00  0.00    +0.138 A 
ATOM      2  N1  UNL     1      19.524  10.185  33.620  0.00  0.00    -0.132 NA
ATOM      3  N2  UNL     1      20.326   9.255  33.127  0.00  0.00    -0.113 NA
ATOM      4  C6  UNL     1      20.896   8.644  34.180  0.00  0.00    +0.220 A 
ATOM      5  N3  UNL     1      21.898   7.628  34.036  0.00  0.00    -0.298 N 
ATOM      6  C7  UNL     1      23.265   7.876  34.514  0.00  0.00    +0.108 C 
ATOM      7  C8  UNL     1      24.264   7.573  33.395  0.00  0.00    +0.021 C 
ATOM      8  C9  UNL     1      24.113   6.142  32.833  0.00  0.00    +0.025 C 
ATOM      9  C10 UNL     1      22.771   5.465  33.194  0.00  0.00    +0.093 C 
ATOM     10  C16 UNL     1      21.614   6.481  33.165  0.00  0.00    +0.130 C 
ATOM     11  N5  UNL     1      20.475   9.154  35.358  0.00  0.00    -0.296 N 
ENDROOT
BRANCH   9  12
ATOM     12  N4  UNL     1      22.498   4.352  32.278  0.00  0.00    -0.277 N 
ATOM     13  C11 UNL     1      22.002   3.087  32.732  0.00  0.00    +0.401 C 
ATOM     14  O1  UNL     1      21.769   2.902  33.957  0.00  0.00    -0.226 OA
ATOM     15  H17 UNL     1      22.631   4.481  31.250  0.00  0.00    +0.152 HD
BRANCH  13  16
ATOM     16  O2  UNL     1      21.775   2.072  31.790  0.00  0.00    -0.445 OA
BRANCH  16  17
ATOM     17  C12 UNL     1      20.508   1.475  31.472  0.00  0.00    +0.107 C 
ATOM     18  C13 UNL     1      20.610   0.930  30.040  0.00  0.00    +0.055 C 
ATOM     19  C14 UNL     1      20.205   0.306  32.430  0.00  0.00    +0.055 C 
ATOM     20  C15 UNL     1      19.383   2.527  31.525  0.00  0.00    +0.055 C 
ENDBRANCH  16  17
ENDBRANCH  13  16
ENDBRANCH   9  12
BRANCH   1  21
ATOM     21  C3  UNL     1      18.880  11.129  35.842  0.00  0.00    +0.054 C 
ATOM     22  C4  UNL     1      17.356  10.994  35.706  0.00  0.00    +0.015 C 
BRANCH  21  24
ATOM     23  C1  UNL     1      20.885  12.710  35.908  0.00  0.00    +0.004 C 
ATOM     24  C2  UNL     1      19.386  12.573  35.638  0.00  0.00    +0.007 C 
ENDBRANCH  21  24
ENDBRANCH   1  21
BRANCH  11  25
ATOM     25  C17 UNL     1      20.760   8.634  36.702  0.00  0.00    +0.161 C 
BRANCH  25  26
ATOM     26  C18 UNL     1      19.531   7.918  37.323  0.00  0.00    +0.084 C 
ATOM     27  C19 UNL     1      19.857   6.510  37.832  0.00  0.00    +0.036 C 
ATOM     28  C20 UNL     1      18.847   5.919  36.857  0.00  0.00    +0.006 C 
ATOM     29  C21 UNL     1      18.534   7.311  36.328  0.00  0.00    +0.036 C 
BRANCH  26  30
ATOM     30  O3  UNL     1      18.895   8.670  38.327  0.00  0.00    -0.387 OA
ATOM     31  H31 UNL     1      18.097   8.155  38.615  0.00  0.00    +0.210 HD
ENDBRANCH  26  30
ENDBRANCH  25  26
ENDBRANCH  11  25
TORSDOF 8
ENDMDL
MODEL 2
REMARK VINA RESULT:    -5.722      9.771     14.438
REMARK INTER + INTRA:          -9.203
REMARK INTER:                  -8.206
REMARK INTRA:                  -0.997
REMARK UNBOUND:                -0.972
REMARK  Name = /home/qwerty/github/datacon2025hack/step_04_hit_selection/docking/ligands/lig_275.pdb
REMARK  13 active torsions:
REMARK  status: ('A' for Active; 'I' for Inactive)
REMARK    1  A    between atoms: C1_1  and  C2_2
REMARK    2  A    between atoms: C2_2  and  C3_3
REMARK    3  A    between atoms: C3_3  and  C4_4
REMARK    4  A    between atoms: C3_3  and  C5_5
REMARK    5  A    between atoms: C10_13  and  N4_14
REMARK    6  A    between atoms: C11_15  and  O2_17
REMARK    7  A    between atoms: O2_17  and  C12_18
REMARK    8  A    between atoms: C12_18  and  C13_19
REMARK    9  A    between atoms: C12_18  and  C14_20
REMARK   10  A    between atoms: C12_18  and  C15_21
REMARK   11  A    between atoms: N5_23  and  C17_24
REMARK   12  A    between atoms: C17_24  and  C18_25
REMARK   13  A    between atoms: C18_25  and  O3_26
REMARK                            x       y       z     vdW  Elec       q    Type
REMARK                         _______ _______ _______ _____ _____    ______ ____
ROOT
ATOM      1  C5  UNL     1      12.592   1.678  22.886  0.00  0.00    +0.138 A 
ATOM      2  N1  UNL     1      12.501   1.744  24.230  0.00  0.00    -0.132 NA
ATOM      3  N2  UNL     1      13.585   1.178  24.735  0.00  0.00    -0.113 NA
ATOM      4  C6  UNL     1      14.323   0.765  23.690  0.00  0.00    +0.220 A 
ATOM      5  N3  UNL     1      15.542   0.026  23.847  0.00  0.00    -0.298 N 
ATOM      6  C7  UNL     1      15.621  -1.361  23.368  0.00  0.00    +0.108 C 
ATOM      7  C8  UNL     1      16.134  -2.265  24.492  0.00  0.00    +0.021 C 
ATOM      8  C9  UNL     1      17.485  -1.788  25.070  0.00  0.00    +0.025 C 
ATOM      9  C10 UNL     1      17.838  -0.325  24.715  0.00  0.00    +0.093 C 
ATOM     10  C16 UNL     1      16.582   0.565  24.731  0.00  0.00    +0.130 C 
ATOM     11  N5  UNL     1      13.744   1.060  22.505  0.00  0.00    -0.296 N 
ENDROOT
BRANCH   9  12
ATOM     12  N4  UNL     1      18.847   0.196  25.643  0.00  0.00    -0.277 N 
ATOM     13  C11 UNL     1      19.990   0.936  25.200  0.00  0.00    +0.401 C 
ATOM     14  O1  UNL     1      20.152   1.174  23.972  0.00  0.00    -0.226 OA
ATOM     15  H17 UNL     1      18.724   0.063  26.673  0.00  0.00    +0.152 HD
BRANCH  13  16
ATOM     16  O2  UNL     1      20.913   1.392  26.153  0.00  0.00    -0.445 OA
BRANCH  16  17
ATOM     17  C12 UNL     1      21.210   2.764  26.461  0.00  0.00    +0.107 C 
ATOM     18  C13 UNL     1      22.404   3.177  25.588  0.00  0.00    +0.055 C 
ATOM     19  C14 UNL     1      20.008   3.667  26.122  0.00  0.00    +0.055 C 
ATOM     20  C15 UNL     1      21.602   2.915  27.943  0.00  0.00    +0.055 C 
ENDBRANCH  16  17
ENDBRANCH  13  16
ENDBRANCH   9  12
BRANCH   1  21
ATOM     21  C3  UNL     1      11.459   2.156  21.996  0.00  0.00    +0.054 C 
ATOM     22  C4  UNL     1      11.567   3.660  21.706  0.00  0.00    +0.015 C 
BRANCH  21  24
ATOM     23  C1  UNL     1       9.840   0.227  22.420  0.00  0.00    +0.004 C 
ATOM     24  C2  UNL     1      10.072   1.734  22.526  0.00  0.00    +0.007 C 
ENDBRANCH  21  24
ENDBRANCH   1  21
BRANCH  11  25
ATOM     25  C17 UNL     1      14.331   0.904  21.167  0.00  0.00    +0.161 C 
BRANCH  25  26
ATOM     26  C18 UNL     1      15.015   2.207  20.676  0.00  0.00    +0.084 C 
ATOM     27  C19 UNL     1      16.477   1.996  20.270  0.00  0.00    +0.036 C 
ATOM     28  C20 UNL     1      16.922   2.980  21.344  0.00  0.00    +0.006 C 
ATOM     29  C21 UNL     1      15.476   3.178  21.771  0.00  0.00    +0.036 C 
BRANCH  26  30
ATOM     30  O3  UNL     1      14.307   2.856  19.649  0.00  0.00    -0.387 OA
ATOM     31  H31 UNL     1      14.729   2.589  18.791  0.00  0.00    +0.210 HD
ENDBRANCH  26  30
ENDBRANCH  25  26
ENDBRANCH  11  25
TORSDOF 8
ENDMDL
MODEL 3
REMARK VINA RESULT:    -5.619     14.073     17.279
REMARK INTER + INTRA:          -9.055
REMARK INTER:                  -8.118
REMARK INTRA:                  -0.938
REMARK UNBOUND:                -0.972
REMARK  Name = /home/qwerty/github/datacon2025hack/step_04_hit_selection/docking/ligands/lig_275.pdb
REMARK  13 active torsions:
REMARK  status: ('A' for Active; 'I' for Inactive)
REMARK    1  A    between atoms: C1_1  and  C2_2
REMARK    2  A    between atoms: C2_2  and  C3_3
REMARK    3  A    between atoms: C3_3  and  C4_4
REMARK    4  A    between atoms: C3_3  and  C5_5
REMARK    5  A    between atoms: C10_13  and  N4_14
REMARK    6  A    between atoms: C11_15  and  O2_17
REMARK    7  A    between atoms: O2_17  and  C12_18
REMARK    8  A    between atoms: C12_18  and  C13_19
REMARK    9  A    between atoms: C12_18  and  C14_20
REMARK   10  A    between atoms: C12_18  and  C15_21
REMARK   11  A    between atoms: N5_23  and  C17_24
REMARK   12  A    between atoms: C17_24  and  C18_25
REMARK   13  A    between atoms: C18_25  and  O3_26
REMARK                            x       y       z     vdW  Elec       q    Type
REMARK                         _______ _______ _______ _____ _____    ______ ____
ROOT
ATOM      1  C5  UNL     1      11.451   5.691  21.444  0.00  0.00    +0.138 A 
ATOM      2  N1  UNL     1      12.300   6.640  21.891  0.00  0.00    -0.132 NA
ATOM      3  N2  UNL     1      11.572   7.634  22.375  0.00  0.00    -0.113 NA
ATOM      4  C6  UNL     1      10.286   7.282  22.209  0.00  0.00    +0.220 A 
ATOM      5  N3  UNL     1       9.196   8.153  22.541  0.00  0.00    -0.298 N 
ATOM      6  C7  UNL     1       8.315   8.658  21.479  0.00  0.00    +0.108 C 
ATOM      7  C8  UNL     1       8.214  10.183  21.576  0.00  0.00    +0.021 C 
ATOM      8  C9  UNL     1       7.751  10.662  22.970  0.00  0.00    +0.025 C 
ATOM      9  C10 UNL     1       7.881   9.590  24.077  0.00  0.00    +0.093 C 
ATOM     10  C16 UNL     1       9.155   8.747  23.883  0.00  0.00    +0.130 C 
ATOM     11  N5  UNL     1      10.157   6.067  21.632  0.00  0.00    -0.296 N 
ENDROOT
BRANCH   9  12
ATOM     12  N4  UNL     1       7.880  10.220  25.401  0.00  0.00    -0.277 N 
ATOM     13  C11 UNL     1       7.498   9.516  26.588  0.00  0.00    +0.401 C 
ATOM     14  O1  UNL     1       7.158   8.303  26.522  0.00  0.00    -0.226 OA
ATOM     15  H17 UNL     1       8.202  11.209  25.505  0.00  0.00    +0.152 HD
BRANCH  13  16
ATOM     16  O2  UNL     1       7.517  10.196  27.815  0.00  0.00    -0.445 OA
BRANCH  16  17
ATOM     17  C12 UNL     1       8.481  10.027  28.866  0.00  0.00    +0.107 C 
ATOM     18  C13 UNL     1       7.798   9.225  29.984  0.00  0.00    +0.055 C 
ATOM     19  C14 UNL     1       9.701   9.235  28.358  0.00  0.00    +0.055 C 
ATOM     20  C15 UNL     1       8.917  11.393  29.429  0.00  0.00    +0.055 C 
ENDBRANCH  16  17
ENDBRANCH  13  16
ENDBRANCH   9  12
BRANCH   1  21
ATOM     21  C3  UNL     1      11.963   4.450  20.737  0.00  0.00    +0.054 C 
ATOM     22  C4  UNL     1      12.584   3.453  21.727  0.00  0.00    +0.015 C 
BRANCH  21  24
ATOM     23  C1  UNL     1      14.280   4.172  19.699  0.00  0.00    +0.004 C 
ATOM     24  C2  UNL     1      12.887   4.784  19.547  0.00  0.00    +0.007 C 
ENDBRANCH  21  24
ENDBRANCH   1  21
BRANCH  11  25
ATOM     25  C17 UNL     1       8.917   5.301  21.445  0.00  0.00    +0.161 C 
BRANCH  25  26
ATOM     26  C18 UNL     1       8.730   4.219  22.542  0.00  0.00    +0.084 C 
ATOM     27  C19 UNL     1       7.329   4.235  23.161  0.00  0.00    +0.036 C 
ATOM     28  C20 UNL     1       7.931   4.537  24.527  0.00  0.00    +0.006 C 
ATOM     29  C21 UNL     1       9.325   4.547  23.917  0.00  0.00    +0.036 C 
BRANCH  26  30
ATOM     30  O3  UNL     1       9.063   2.923  22.110  0.00  0.00    -0.387 OA
ATOM     31  H31 UNL     1       8.244   2.529  21.710  0.00  0.00    +0.210 HD
ENDBRANCH  26  30
ENDBRANCH  25  26
ENDBRANCH  11  25
TORSDOF 8
ENDMDL
MODEL 4
REMARK VINA RESULT:    -5.556     13.578     16.497
REMARK INTER + INTRA:          -8.964
REMARK INTER:                  -8.119
REMARK INTRA:                  -0.845
REMARK UNBOUND:                -0.972
REMARK  Name = /home/qwerty/github/datacon2025hack/step_04_hit_selection/docking/ligands/lig_275.pdb
REMARK  13 active torsions:
REMARK  status: ('A' for Active; 'I' for Inactive)
REMARK    1  A    between atoms: C1_1  and  C2_2
REMARK    2  A    between atoms: C2_2  and  C3_3
REMARK    3  A    between atoms: C3_3  and  C4_4
REMARK    4  A    between atoms: C3_3  and  C5_5
REMARK    5  A    between atoms: C10_13  and  N4_14
REMARK    6  A    between atoms: C11_15  and  O2_17
REMARK    7  A    between atoms: O2_17  and  C12_18
REMARK    8  A    between atoms: C12_18  and  C13_19
REMARK    9  A    between atoms: C12_18  and  C14_20
REMARK   10  A    between atoms: C12_18  and  C15_21
REMARK   11  A    between atoms: N5_23  and  C17_24
REMARK   12  A    between atoms: C17_24  and  C18_25
REMARK   13  A    between atoms: C18_25  and  O3_26
REMARK                            x       y       z     vdW  Elec       q    Type
REMARK                         _______ _______ _______ _____ _____    ______ ____
ROOT
ATOM      1  C5  UNL     1      13.848   0.993  24.444  0.00  0.00    +0.138 A 
ATOM      2  N1  UNL     1      14.581   2.020  24.923  0.00  0.00    -0.132 NA
ATOM      3  N2  UNL     1      14.609   2.961  23.993  0.00  0.00    -0.113 NA
ATOM      4  C6  UNL     1      13.897   2.494  22.954  0.00  0.00    +0.220 A 
ATOM      5  N3  UNL     1      13.772   3.208  21.717  0.00  0.00    -0.298 N 
ATOM      6  C7  UNL     1      14.347   2.646  20.487  0.00  0.00    +0.108 C 
ATOM      7  C8  UNL     1      15.240   3.691  19.812  0.00  0.00    +0.021 C 
ATOM      8  C9  UNL     1      14.498   5.017  19.534  0.00  0.00    +0.025 C 
ATOM      9  C10 UNL     1      13.185   5.181  20.334  0.00  0.00    +0.093 C 
ATOM     10  C16 UNL     1      13.328   4.607  21.755  0.00  0.00    +0.130 C 
ATOM     11  N5  UNL     1      13.395   1.262  23.190  0.00  0.00    -0.296 N 
ENDROOT
BRANCH   9  12
ATOM     12  N4  UNL     1      12.794   6.594  20.389  0.00  0.00    -0.277 N 
ATOM     13  C11 UNL     1      11.431   7.020  20.277  0.00  0.00    +0.401 C 
ATOM     14  O1  UNL     1      10.512   6.168  20.138  0.00  0.00    -0.226 OA
ATOM     15  H17 UNL     1      13.521   7.328  20.552  0.00  0.00    +0.152 HD
BRANCH  13  16
ATOM     16  O2  UNL     1      11.144   8.392  20.331  0.00  0.00    -0.445 OA
BRANCH  16  17
ATOM     17  C12 UNL     1      10.879   9.158  21.517  0.00  0.00    +0.107 C 
ATOM     18  C13 UNL     1       9.582   9.942  21.270  0.00  0.00    +0.055 C 
ATOM     19  C14 UNL     1      10.677   8.228  22.729  0.00  0.00    +0.055 C 
ATOM     20  C15 UNL     1      12.021  10.158  21.785  0.00  0.00    +0.055 C 
ENDBRANCH  16  17
ENDBRANCH  13  16
ENDBRANCH   9  12
BRANCH   1  21
ATOM     21  C3  UNL     1      13.697  -0.296  25.229  0.00  0.00    +0.054 C 
ATOM     22  C4  UNL     1      13.676  -0.036  26.743  0.00  0.00    +0.015 C 
BRANCH  21  24
ATOM     23  C1  UNL     1      14.386  -2.752  25.370  0.00  0.00    +0.004 C 
ATOM     24  C2  UNL     1      14.722  -1.370  24.808  0.00  0.00    +0.007 C 
ENDBRANCH  21  24
ENDBRANCH   1  21
BRANCH  11  25
ATOM     25  C17 UNL     1      12.445   0.515  22.352  0.00  0.00    +0.161 C 
BRANCH  25  26
ATOM     26  C18 UNL     1      11.035   1.161  22.352  0.00  0.00    +0.084 C 
ATOM     27  C19 UNL     1      10.704   1.870  23.669  0.00  0.00    +0.036 C 
ATOM     28  C20 UNL     1       9.524   0.932  23.883  0.00  0.00    +0.006 C 
ATOM     29  C21 UNL     1       9.858   0.206  22.588  0.00  0.00    +0.036 C 
BRANCH  26  30
ATOM     30  O3  UNL     1      10.815   2.022  21.261  0.00  0.00    -0.387 OA
ATOM     31  H31 UNL     1      10.115   1.603  20.696  0.00  0.00    +0.210 HD
ENDBRANCH  26  30
ENDBRANCH  25  26
ENDBRANCH  11  25
TORSDOF 8
ENDMDL
MODEL 5
REMARK VINA RESULT:    -5.528     13.238     16.406
REMARK INTER + INTRA:          -8.924
REMARK INTER:                  -7.824
REMARK INTRA:                  -1.100
REMARK UNBOUND:                -0.972
REMARK  Name = /home/qwerty/github/datacon2025hack/step_04_hit_selection/docking/ligands/lig_275.pdb
REMARK  13 active torsions:
REMARK  status: ('A' for Active; 'I' for Inactive)
REMARK    1  A    between atoms: C1_1  and  C2_2
REMARK    2  A    between atoms: C2_2  and  C3_3
REMARK    3  A    between atoms: C3_3  and  C4_4
REMARK    4  A    between atoms: C3_3  and  C5_5
REMARK    5  A    between atoms: C10_13  and  N4_14
REMARK    6  A    between atoms: C11_15  and  O2_17
REMARK    7  A    between atoms: O2_17  and  C12_18
REMARK    8  A    between atoms: C12_18  and  C13_19
REMARK    9  A    between atoms: C12_18  and  C14_20
REMARK   10  A    between atoms: C12_18  and  C15_21
REMARK   11  A    between atoms: N5_23  and  C17_24
REMARK   12  A    between atoms: C17_24  and  C18_25
REMARK   13  A    between atoms: C18_25  and  O3_26
REMARK                            x       y       z     vdW  Elec       q    Type
REMARK                         _______ _______ _______ _____ _____    ______ ____
ROOT
ATOM      1  C5  UNL     1      14.598  -0.368  24.746  0.00  0.00    +0.138 A 
ATOM      2  N1  UNL     1      14.199   0.333  25.828  0.00  0.00    -0.132 NA
ATOM      3  N2  UNL     1      13.772   1.512  25.407  0.00  0.00    -0.113 NA
ATOM      4  C6  UNL     1      13.922   1.520  24.072  0.00  0.00    +0.220 A 
ATOM      5  N3  UNL     1      13.641   2.673  23.267  0.00  0.00    -0.298 N 
ATOM      6  C7  UNL     1      14.731   3.345  22.547  0.00  0.00    +0.108 C 
ATOM      7  C8  UNL     1      14.716   4.841  22.870  0.00  0.00    +0.021 C 
ATOM      8  C9  UNL     1      13.351   5.501  22.573  0.00  0.00    +0.025 C 
ATOM      9  C10 UNL     1      12.189   4.494  22.416  0.00  0.00    +0.093 C 
ATOM     10  C16 UNL     1      12.333   3.325  23.406  0.00  0.00    +0.130 C 
ATOM     11  N5  UNL     1      14.435   0.359  23.607  0.00  0.00    -0.296 N 
ENDROOT
BRANCH   9  12
ATOM     12  N4  UNL     1      10.900   5.169  22.604  0.00  0.00    -0.277 N 
ATOM     13  C11 UNL     1       9.722   4.793  21.880  0.00  0.00    +0.401 C 
ATOM     14  O1  UNL     1       9.764   3.841  21.054  0.00  0.00    -0.226 OA
ATOM     15  H17 UNL     1      10.811   5.931  23.314  0.00  0.00    +0.152 HD
BRANCH  13  16
ATOM     16  O2  UNL     1       8.531   5.496  22.114  0.00  0.00    -0.445 OA
BRANCH  16  17
ATOM     17  C12 UNL     1       8.138   6.732  21.495  0.00  0.00    +0.107 C 
ATOM     18  C13 UNL     1       8.227   7.825  22.570  0.00  0.00    +0.055 C 
ATOM     19  C14 UNL     1       9.095   7.088  20.341  0.00  0.00    +0.055 C 
ATOM     20  C15 UNL     1       6.684   6.648  20.990  0.00  0.00    +0.055 C 
ENDBRANCH  16  17
ENDBRANCH  13  16
ENDBRANCH   9  12
BRANCH   1  21
ATOM     21  C3  UNL     1      15.236  -1.737  24.888  0.00  0.00    +0.054 C 
ATOM     22  C4  UNL     1      14.303  -2.721  25.611  0.00  0.00    +0.015 C 
BRANCH  21  24
ATOM     23  C1  UNL     1      17.648  -2.570  24.774  0.00  0.00    +0.004 C 
ATOM     24  C2  UNL     1      16.649  -1.671  25.504  0.00  0.00    +0.007 C 
ENDBRANCH  21  24
ENDBRANCH   1  21
BRANCH  11  25
ATOM     25  C17 UNL     1      14.584  -0.046  22.202  0.00  0.00    +0.161 C 
BRANCH  25  26
ATOM     26  C18 UNL     1      16.067  -0.029  21.746  0.00  0.00    +0.084 C 
ATOM     27  C19 UNL     1      16.237   0.407  20.287  0.00  0.00    +0.036 C 
ATOM     28  C20 UNL     1      16.863  -0.940  19.953  0.00  0.00    +0.006 C 
ATOM     29  C21 UNL     1      16.677  -1.392  21.394  0.00  0.00    +0.036 C 
BRANCH  26  30
ATOM     30  O3  UNL     1      16.902   0.729  22.587  0.00  0.00    -0.387 OA
ATOM     31  H31 UNL     1      17.725   0.934  22.072  0.00  0.00    +0.210 HD
ENDBRANCH  26  30
ENDBRANCH  25  26
ENDBRANCH  11  25
TORSDOF 8
ENDMDL
MODEL 6
REMARK VINA RESULT:    -5.516      4.185     10.222
REMARK INTER + INTRA:          -8.906
REMARK INTER:                  -7.941
REMARK INTRA:                  -0.965
REMARK UNBOUND:                -0.972
REMARK  Name = /home/qwerty/github/datacon2025hack/step_04_hit_selection/docking/ligands/lig_275.pdb
REMARK  13 active torsions:
REMARK  status: ('A' for Active; 'I' for Inactive)
REMARK    1  A    between atoms: C1_1  and  C2_2
REMARK    2  A    between atoms: C2_2  and  C3_3
REMARK    3  A    between atoms: C3_3  and  C4_4
REMARK    4  A    between atoms: C3_3  and  C5_5
REMARK    5  A    between atoms: C10_13  and  N4_14
REMARK    6  A    between atoms: C11_15  and  O2_17
REMARK    7  A    between atoms: O2_17  and  C12_18
REMARK    8  A    between atoms: C12_18  and  C13_19
REMARK    9  A    between atoms: C12_18  and  C14_20
REMARK   10  A    between atoms: C12_18  and  C15_21
REMARK   11  A    between atoms: N5_23  and  C17_24
REMARK   12  A    between atoms: C17_24  and  C18_25
REMARK   13  A    between atoms: C18_25  and  O3_26
REMARK                            x       y       z     vdW  Elec       q    Type
REMARK                         _______ _______ _______ _____ _____    ______ ____
ROOT
ATOM      1  C5  UNL     1      18.323   0.976  26.858  0.00  0.00    +0.138 A 
ATOM      2  N1  UNL     1      17.268   1.278  27.644  0.00  0.00    -0.132 NA
ATOM      3  N2  UNL     1      17.739   1.639  28.827  0.00  0.00    -0.113 NA
ATOM      4  C6  UNL     1      19.078   1.546  28.751  0.00  0.00    +0.220 A 
ATOM      5  N3  UNL     1      19.936   1.780  29.876  0.00  0.00    -0.298 N 
ATOM      6  C7  UNL     1      20.736   0.678  30.426  0.00  0.00    +0.108 C 
ATOM      7  C8  UNL     1      20.500   0.573  31.934  0.00  0.00    +0.021 C 
ATOM      8  C9  UNL     1      20.780   1.900  32.675  0.00  0.00    +0.025 C 
ATOM      9  C10 UNL     1      20.833   3.136  31.748  0.00  0.00    +0.093 C 
ATOM     10  C16 UNL     1      19.783   3.032  30.627  0.00  0.00    +0.130 C 
ATOM     11  N5  UNL     1      19.494   1.137  27.532  0.00  0.00    -0.296 N 
ENDROOT
BRANCH   9  12
ATOM     12  N4  UNL     1      20.634   4.365  32.524  0.00  0.00    -0.277 N 
ATOM     13  C11 UNL     1      21.570   5.449  32.503  0.00  0.00    +0.401 C 
ATOM     14  O1  UNL     1      22.606   5.375  31.788  0.00  0.00    -0.226 OA
ATOM     15  H17 UNL     1      19.764   4.486  33.091  0.00  0.00    +0.152 HD
BRANCH  13  16
ATOM     16  O2  UNL     1      21.308   6.585  33.281  0.00  0.00    -0.445 OA
BRANCH  16  17
ATOM     17  C12 UNL     1      21.620   6.753  34.674  0.00  0.00    +0.107 C 
ATOM     18  C13 UNL     1      21.936   8.240  34.892  0.00  0.00    +0.055 C 
ATOM     19  C14 UNL     1      20.412   6.367  35.549  0.00  0.00    +0.055 C 
ATOM     20  C15 UNL     1      22.857   5.920  35.057  0.00  0.00    +0.055 C 
ENDBRANCH  16  17
ENDBRANCH  13  16
ENDBRANCH   9  12
BRANCH   1  21
ATOM     21  C3  UNL     1      18.127   0.431  25.456  0.00  0.00    +0.054 C 
ATOM     22  C4  UNL     1      17.888   1.559  24.441  0.00  0.00    +0.015 C 
BRANCH  21  24
ATOM     23  C1  UNL     1      17.636  -2.023  24.948  0.00  0.00    +0.004 C 
ATOM     24  C2  UNL     1      17.058  -0.681  25.396  0.00  0.00    +0.007 C 
ENDBRANCH  21  24
ENDBRANCH   1  21
BRANCH  11  25
ATOM     25  C17 UNL     1      20.878   1.078  27.041  0.00  0.00    +0.161 C 
BRANCH  25  26
ATOM     26  C18 UNL     1      21.285   2.370  26.285  0.00  0.00    +0.084 C 
ATOM     27  C19 UNL     1      22.569   3.002  26.832  0.00  0.00    +0.036 C 
ATOM     28  C20 UNL     1      21.801   4.269  27.185  0.00  0.00    +0.006 C 
ATOM     29  C21 UNL     1      20.515   3.642  26.666  0.00  0.00    +0.036 C 
BRANCH  26  30
ATOM     30  O3  UNL     1      21.376   2.197  24.892  0.00  0.00    -0.387 OA
ATOM     31  H31 UNL     1      20.648   2.734  24.484  0.00  0.00    +0.210 HD
ENDBRANCH  26  30
ENDBRANCH  25  26
ENDBRANCH  11  25
TORSDOF 8
ENDMDL
MODEL 7
REMARK VINA RESULT:    -5.372     10.794     14.291
REMARK INTER + INTRA:          -8.700
REMARK INTER:                  -7.804
REMARK INTRA:                  -0.895
REMARK UNBOUND:                -0.972
REMARK  Name = /home/qwerty/github/datacon2025hack/step_04_hit_selection/docking/ligands/lig_275.pdb
REMARK  13 active torsions:
REMARK  status: ('A' for Active; 'I' for Inactive)
REMARK    1  A    between atoms: C1_1  and  C2_2
REMARK    2  A    between atoms: C2_2  and  C3_3
REMARK    3  A    between atoms: C3_3  and  C4_4
REMARK    4  A    between atoms: C3_3  and  C5_5
REMARK    5  A    between atoms: C10_13  and  N4_14
REMARK    6  A    between atoms: C11_15  and  O2_17
REMARK    7  A    between atoms: O2_17  and  C12_18
REMARK    8  A    between atoms: C12_18  and  C13_19
REMARK    9  A    between atoms: C12_18  and  C14_20
REMARK   10  A    between atoms: C12_18  and  C15_21
REMARK   11  A    between atoms: N5_23  and  C17_24
REMARK   12  A    between atoms: C17_24  and  C18_25
REMARK   13  A    between atoms: C18_25  and  O3_26
REMARK                            x       y       z     vdW  Elec       q    Type
REMARK                         _______ _______ _______ _____ _____    ______ ____
ROOT
ATOM      1  C5  UNL     1      10.105   9.954  25.541  0.00  0.00    +0.138 A 
ATOM      2  N1  UNL     1      11.454   9.918  25.527  0.00  0.00    -0.132 NA
ATOM      3  N2  UNL     1      11.887  10.738  26.471  0.00  0.00    -0.113 NA
ATOM      4  C6  UNL     1      10.795  11.271  27.046  0.00  0.00    +0.220 A 
ATOM      5  N3  UNL     1      10.870  12.278  28.065  0.00  0.00    -0.298 N 
ATOM      6  C7  UNL     1      10.351  13.626  27.798  0.00  0.00    +0.108 C 
ATOM      7  C8  UNL     1      11.423  14.665  28.136  0.00  0.00    +0.021 C 
ATOM      8  C9  UNL     1      11.943  14.535  29.586  0.00  0.00    +0.025 C 
ATOM      9  C10 UNL     1      11.609  13.181  30.252  0.00  0.00    +0.093 C 
ATOM     10  C16 UNL     1      11.712  12.026  29.240  0.00  0.00    +0.130 C 
ATOM     11  N5  UNL     1       9.650  10.807  26.499  0.00  0.00    -0.296 N 
ENDROOT
BRANCH   9  12
ATOM     12  N4  UNL     1      12.497  12.942  31.395  0.00  0.00    -0.277 N 
ATOM     13  C11 UNL     1      12.247  13.496  32.692  0.00  0.00    +0.401 C 
ATOM     14  O1  UNL     1      11.225  14.209  32.889  0.00  0.00    -0.226 OA
ATOM     15  H17 UNL     1      13.327  12.318  31.285  0.00  0.00    +0.152 HD
BRANCH  13  16
ATOM     16  O2  UNL     1      13.152  13.225  33.730  0.00  0.00    -0.445 OA
BRANCH  16  17
ATOM     17  C12 UNL     1      12.895  12.424  34.894  0.00  0.00    +0.107 C 
ATOM     18  C13 UNL     1      12.517  13.385  36.031  0.00  0.00    +0.055 C 
ATOM     19  C14 UNL     1      11.717  11.464  34.640  0.00  0.00    +0.055 C 
ATOM     20  C15 UNL     1      14.156  11.640  35.303  0.00  0.00    +0.055 C 
ENDBRANCH  16  17
ENDBRANCH  13  16
ENDBRANCH   9  12
BRANCH   1  21
ATOM     21  C3  UNL     1       9.288   9.195  24.512  0.00  0.00    +0.054 C 
ATOM     22  C4  UNL     1       9.070   7.733  24.933  0.00  0.00    +0.015 C 
BRANCH  21  24
ATOM     23  C1  UNL     1       9.104  10.394  22.264  0.00  0.00    +0.004 C 
ATOM     24  C2  UNL     1       9.852   9.341  23.083  0.00  0.00    +0.007 C 
ENDBRANCH  21  24
ENDBRANCH   1  21
BRANCH  11  25
ATOM     25  C17 UNL     1       8.280  11.044  26.974  0.00  0.00    +0.161 C 
BRANCH  25  26
ATOM     26  C18 UNL     1       7.850  10.012  28.050  0.00  0.00    +0.084 C 
ATOM     27  C19 UNL     1       7.538  10.657  29.404  0.00  0.00    +0.036 C 
ATOM     28  C20 UNL     1       8.651   9.843  30.052  0.00  0.00    +0.006 C 
ATOM     29  C21 UNL     1       8.984   9.214  28.708  0.00  0.00    +0.036 C 
BRANCH  26  30
ATOM     30  O3  UNL     1       6.785   9.189  27.640  0.00  0.00    -0.387 OA
ATOM     31  H31 UNL     1       7.182   8.416  27.161  0.00  0.00    +0.210 HD
ENDBRANCH  26  30
ENDBRANCH  25  26
ENDBRANCH  11  25
TORSDOF 8
ENDMDL
MODEL 8
REMARK VINA RESULT:    -5.366      5.919     10.488
REMARK INTER + INTRA:          -8.690
REMARK INTER:                  -7.680
REMARK INTRA:                  -1.011
REMARK UNBOUND:                -0.972
REMARK  Name = /home/qwerty/github/datacon2025hack/step_04_hit_selection/docking/ligands/lig_275.pdb
REMARK  13 active torsions:
REMARK  status: ('A' for Active; 'I' for Inactive)
REMARK    1  A    between atoms: C1_1  and  C2_2
REMARK    2  A    between atoms: C2_2  and  C3_3
REMARK    3  A    between atoms: C3_3  and  C4_4
REMARK    4  A    between atoms: C3_3  and  C5_5
REMARK    5  A    between atoms: C10_13  and  N4_14
REMARK    6  A    between atoms: C11_15  and  O2_17
REMARK    7  A    between atoms: O2_17  and  C12_18
REMARK    8  A    between atoms: C12_18  and  C13_19
REMARK    9  A    between atoms: C12_18  and  C14_20
REMARK   10  A    between atoms: C12_18  and  C15_21
REMARK   11  A    between atoms: N5_23  and  C17_24
REMARK   12  A    between atoms: C17_24  and  C18_25
REMARK   13  A    between atoms: C18_25  and  O3_26
REMARK                            x       y       z     vdW  Elec       q    Type
REMARK                         _______ _______ _______ _____ _____    ______ ____
ROOT
ATOM      1  C5  UNL     1      16.339   9.074  36.729  0.00  0.00    +0.138 A 
ATOM      2  N1  UNL     1      15.562   8.250  35.995  0.00  0.00    -0.132 NA
ATOM      3  N2  UNL     1      14.488   8.932  35.631  0.00  0.00    -0.113 NA
ATOM      4  C6  UNL     1      14.619  10.163  36.154  0.00  0.00    +0.220 A 
ATOM      5  N3  UNL     1      13.601  11.166  36.040  0.00  0.00    -0.298 N 
ATOM      6  C7  UNL     1      12.912  11.648  37.245  0.00  0.00    +0.108 C 
ATOM      7  C8  UNL     1      11.397  11.552  37.044  0.00  0.00    +0.021 C 
ATOM      8  C9  UNL     1      10.916  12.300  35.780  0.00  0.00    +0.025 C 
ATOM      9  C10 UNL     1      12.045  12.627  34.777  0.00  0.00    +0.093 C 
ATOM     10  C16 UNL     1      13.072  11.482  34.708  0.00  0.00    +0.130 C 
ATOM     11  N5  UNL     1      15.769  10.303  36.850  0.00  0.00    -0.296 N 
ENDROOT
BRANCH   9  12
ATOM     12  N4  UNL     1      11.486  12.894  33.447  0.00  0.00    -0.277 N 
ATOM     13  C11 UNL     1      11.901  14.007  32.647  0.00  0.00    +0.401 C 
ATOM     14  O1  UNL     1      12.790  14.795  33.073  0.00  0.00    -0.226 OA
ATOM     15  H17 UNL     1      10.783  12.238  33.038  0.00  0.00    +0.152 HD
BRANCH  13  16
ATOM     16  O2  UNL     1      11.309  14.196  31.390  0.00  0.00    -0.445 OA
BRANCH  16  17
ATOM     17  C12 UNL     1      11.876  13.835  30.120  0.00  0.00    +0.107 C 
ATOM     18  C13 UNL     1      10.721  13.762  29.111  0.00  0.00    +0.055 C 
ATOM     19  C14 UNL     1      12.880  14.907  29.652  0.00  0.00    +0.055 C 
ATOM     20  C15 UNL     1      12.555  12.454  30.201  0.00  0.00    +0.055 C 
ENDBRANCH  16  17
ENDBRANCH  13  16
ENDBRANCH   9  12
BRANCH   1  21
ATOM     21  C3  UNL     1      17.612   8.573  37.386  0.00  0.00    +0.054 C 
ATOM     22  C4  UNL     1      18.853   8.918  36.547  0.00  0.00    +0.015 C 
BRANCH  21  24
ATOM     23  C1  UNL     1      18.827   6.328  37.466  0.00  0.00    +0.004 C 
ATOM     24  C2  UNL     1      17.533   7.082  37.773  0.00  0.00    +0.007 C 
ENDBRANCH  21  24
ENDBRANCH   1  21
BRANCH  11  25
ATOM     25  C17 UNL     1      16.317  11.543  37.418  0.00  0.00    +0.161 C 
BRANCH  25  26
ATOM     26  C18 UNL     1      17.145  12.344  36.379  0.00  0.00    +0.084 C 
ATOM     27  C19 UNL     1      16.419  13.594  35.873  0.00  0.00    +0.036 C 
ATOM     28  C20 UNL     1      16.449  13.043  34.453  0.00  0.00    +0.006 C 
ATOM     29  C21 UNL     1      17.150  11.786  34.949  0.00  0.00    +0.036 C 
BRANCH  26  30
ATOM     30  O3  UNL     1      18.437  12.673  36.829  0.00  0.00    -0.387 OA
ATOM     31  H31 UNL     1      19.079  12.297  36.172  0.00  0.00    +0.210 HD
ENDBRANCH  26  30
ENDBRANCH  25  26
ENDBRANCH  11  25
TORSDOF 8
ENDMDL
MODEL 9
REMARK VINA RESULT:    -5.338     11.156     13.372
REMARK INTER + INTRA:          -8.651
REMARK INTER:                  -7.678
REMARK INTRA:                  -0.973
REMARK UNBOUND:                -0.972
REMARK  Name = /home/qwerty/github/datacon2025hack/step_04_hit_selection/docking/ligands/lig_275.pdb
REMARK  13 active torsions:
REMARK  status: ('A' for Active; 'I' for Inactive)
REMARK    1  A    between atoms: C1_1  and  C2_2
REMARK    2  A    between atoms: C2_2  and  C3_3
REMARK    3  A    between atoms: C3_3  and  C4_4
REMARK    4  A    between atoms: C3_3  and  C5_5
REMARK    5  A    between atoms: C10_13  and  N4_14
REMARK    6  A    between atoms: C11_15  and  O2_17
REMARK    7  A    between atoms: O2_17  and  C12_18
REMARK    8  A    between atoms: C12_18  and  C13_19
REMARK    9  A    between atoms: C12_18  and  C14_20
REMARK   10  A    between atoms: C12_18  and  C15_21
REMARK   11  A    between atoms: N5_23  and  C17_24
REMARK   12  A    between atoms: C17_24  and  C18_25
REMARK   13  A    between atoms: C18_25  and  O3_26
REMARK                            x       y       z     vdW  Elec       q    Type
REMARK                         _______ _______ _______ _____ _____    ______ ____
ROOT
ATOM      1  C5  UNL     1      11.559  12.200  31.974  0.00  0.00    +0.138 A 
ATOM      2  N1  UNL     1      11.713  10.876  32.186  0.00  0.00    -0.132 NA
ATOM      3  N2  UNL     1      11.004  10.238  31.269  0.00  0.00    -0.113 NA
ATOM      4  C6  UNL     1      10.419  11.181  30.512  0.00  0.00    +0.220 A 
ATOM      5  N3  UNL     1       9.498  10.868  29.458  0.00  0.00    -0.298 N 
ATOM      6  C7  UNL     1       8.093  11.283  29.568  0.00  0.00    +0.108 C 
ATOM      7  C8  UNL     1       7.180  10.078  29.330  0.00  0.00    +0.021 C 
ATOM      8  C9  UNL     1       7.458   9.377  27.982  0.00  0.00    +0.025 C 
ATOM      9  C10 UNL     1       8.821   9.746  27.352  0.00  0.00    +0.093 C 
ATOM     10  C16 UNL     1       9.906   9.898  28.434  0.00  0.00    +0.130 C 
ATOM     11  N5  UNL     1      10.740  12.431  30.913  0.00  0.00    -0.296 N 
ENDROOT
BRANCH   9  12
ATOM     12  N4  UNL     1       9.219   8.736  26.366  0.00  0.00    -0.277 N 
ATOM     13  C11 UNL     1       9.917   9.070  25.161  0.00  0.00    +0.401 C 
ATOM     14  O1  UNL     1      10.226  10.269  24.921  0.00  0.00    -0.226 OA
ATOM     15  H17 UNL     1       9.025   7.726  26.551  0.00  0.00    +0.152 HD
BRANCH  13  16
ATOM     16  O2  UNL     1      10.254   8.043  24.267  0.00  0.00    -0.445 OA
BRANCH  16  17
ATOM     17  C12 UNL     1       9.374   7.423  23.314  0.00  0.00    +0.107 C 
ATOM     18  C13 UNL     1       8.338   8.478  22.900  0.00  0.00    +0.055 C 
ATOM     19  C14 UNL     1      10.159   6.977  22.065  0.00  0.00    +0.055 C 
ATOM     20  C15 UNL     1       8.640   6.227  23.950  0.00  0.00    +0.055 C 
ENDBRANCH  16  17
ENDBRANCH  13  16
ENDBRANCH   9  12
BRANCH   1  21
ATOM     21  C3  UNL     1      12.168  13.222  32.916  0.00  0.00    +0.054 C 
ATOM     22  C4  UNL     1      13.559  13.668  32.440  0.00  0.00    +0.015 C 
BRANCH  21  24
ATOM     23  C1  UNL     1      10.821  13.082  35.081  0.00  0.00    +0.004 C 
ATOM     24  C2  UNL     1      12.145  12.760  34.388  0.00  0.00    +0.007 C 
ENDBRANCH  21  24
ENDBRANCH   1  21
BRANCH  11  25
ATOM     25  C17 UNL     1      10.416  13.692  30.230  0.00  0.00    +0.161 C 
BRANCH  25  26
ATOM     26  C18 UNL     1      11.473  14.061  29.155  0.00  0.00    +0.084 C 
ATOM     27  C19 UNL     1      10.893  14.101  27.738  0.00  0.00    +0.036 C 
ATOM     28  C20 UNL     1      11.847  12.993  27.312  0.00  0.00    +0.006 C 
ATOM     29  C21 UNL     1      12.414  12.929  28.722  0.00  0.00    +0.036 C 
BRANCH  26  30
ATOM     30  O3  UNL     1      12.164  15.253  29.438  0.00  0.00    -0.387 OA
ATOM     31  H31 UNL     1      12.261  15.744  28.582  0.00  0.00    +0.210 HD
ENDBRANCH  26  30
ENDBRANCH  25  26
ENDBRANCH  11  25
TORSDOF 8
ENDMDL
