MODEL 1
REMARK VINA RESULT:    -6.358      0.000      0.000
REMARK INTER + INTRA:         -10.508
REMARK INTER:                  -8.960
REMARK INTRA:                  -1.548
REMARK UNBOUND:                -1.548
REMARK  Name = /home/qwerty/github/datacon2025hack/step_04_hit_selection/docking/ligands/lig_230.pdb
REMARK  10 active torsions:
REMARK  status: ('A' for Active; 'I' for Inactive)
REMARK    1  A    between atoms: C1_1  and  C2_2
REMARK    2  A    between atoms: C2_2  and  C3_3
REMARK    3  A    between atoms: C2_2  and  C4_4
REMARK    4  A    between atoms: C2_2  and  C5_5
REMARK    5  A    between atoms: C7_8  and  C8_9
REMARK    6  A    between atoms: C8_9  and  C9_10
REMARK    7  A    between atoms: C9_10  and  C10_11
REMARK    8  A    between atoms: N2_13  and  C11_14
REMARK    9  A    between atoms: C13_16  and  C14_17
REMARK   10  A    between atoms: C17_23  and  N3_24
REMARK                            x       y       z     vdW  Elec       q    Type
REMARK                         _______ _______ _______ _____ _____    ______ ____
ROOT
ATOM      1  C11 UNL     1       8.635  10.371  27.116  0.00  0.00    +0.055 A 
ATOM      2  C12 UNL     1       8.517  11.724  27.483  0.00  0.00    +0.037 A 
ATOM      3  C13 UNL     1       8.088  12.086  28.772  0.00  0.00    +0.057 A 
ATOM      4  C15 UNL     1       7.749  11.078  29.685  0.00  0.00    +0.014 A 
ATOM      5  C16 UNL     1       7.877   9.732  29.334  0.00  0.00    +0.025 A 
ATOM      6  C17 UNL     1       8.318   9.369  28.055  0.00  0.00    +0.051 A 
ENDROOT
BRANCH   6   7
ATOM      7  N3  UNL     1       8.396   7.982  27.692  0.00  0.00    -0.324 N 
ATOM      8  C18 UNL     1       7.207   7.313  27.159  0.00  0.00    +0.133 C 
ATOM      9  C19 UNL     1       7.631   6.122  26.293  0.00  0.00    +0.178 C 
ATOM     10  O2  UNL     1       8.518   5.278  27.002  0.00  0.00    -0.377 OA
ATOM     11  C20 UNL     1       9.723   5.967  27.277  0.00  0.00    +0.178 C 
ATOM     12  C21 UNL     1       9.473   7.146  28.225  0.00  0.00    +0.133 C 
ENDBRANCH   6   7
BRANCH   1  15
ATOM     13  C10 UNL     1       8.377   9.938  24.630  0.00  0.00    +0.218 C 
ATOM     14  O1  UNL     1       7.120   9.866  24.692  0.00  0.00    -0.275 OA
ATOM     15  N2  UNL     1       9.165  10.004  25.828  0.00  0.00    -0.284 N 
ATOM     16  H15 UNL     1      10.179   9.760  25.759  0.00  0.00    +0.155 HD
BRANCH  13  17
ATOM     17  C9  UNL     1       9.052   9.974  23.291  0.00  0.00    +0.105 C 
BRANCH  17  18
ATOM     18  C8  UNL     1       8.120   9.410  22.215  0.00  0.00    +0.105 C 
BRANCH  18  22
ATOM     19  C5  UNL     1       8.825   5.935  22.022  0.00  0.00    +0.131 A 
ATOM     20  C6  UNL     1       9.160   6.333  20.744  0.00  0.00    +0.156 A 
ATOM     21  N1  UNL     1       8.952   7.657  20.626  0.00  0.00    -0.221 NA
ATOM     22  C7  UNL     1       8.504   8.012  21.848  0.00  0.00    +0.196 A 
ATOM     23  O3  UNL     1       8.428   6.998  22.679  0.00  0.00    -0.444 OA
BRANCH  19  25
ATOM     24  C1  UNL     1       7.529   4.081  23.053  0.00  0.00    +0.019 C 
ATOM     25  C2  UNL     1       8.927   4.541  22.604  0.00  0.00    +0.022 C 
ATOM     26  C3  UNL     1       9.468   3.565  21.541  0.00  0.00    +0.019 C 
ATOM     27  C4  UNL     1       9.887   4.544  23.811  0.00  0.00    +0.019 C 
ENDBRANCH  19  25
ENDBRANCH  18  22
ENDBRANCH  17  18
ENDBRANCH  13  17
ENDBRANCH   1  15
BRANCH   3  28
ATOM     28  C14 UNL     1       7.902  13.537  29.139  0.00  0.00    +0.417 C 
ATOM     29  F1  UNL     1       9.053  14.054  29.707  0.00  0.00    -0.166 F 
ATOM     30  F2  UNL     1       7.600  14.258  28.000  0.00  0.00    -0.166 F 
ATOM     31  F3  UNL     1       6.869  13.680  30.051  0.00  0.00    -0.166 F 
ENDBRANCH   3  28
TORSDOF 7
ENDMDL
MODEL 2
REMARK VINA RESULT:    -6.247     11.694     13.967
REMARK INTER + INTRA:         -10.351
REMARK INTER:                  -9.060
REMARK INTRA:                  -1.292
REMARK UNBOUND:                -1.548
REMARK  Name = /home/qwerty/github/datacon2025hack/step_04_hit_selection/docking/ligands/lig_230.pdb
REMARK  10 active torsions:
REMARK  status: ('A' for Active; 'I' for Inactive)
REMARK    1  A    between atoms: C1_1  and  C2_2
REMARK    2  A    between atoms: C2_2  and  C3_3
REMARK    3  A    between atoms: C2_2  and  C4_4
REMARK    4  A    between atoms: C2_2  and  C5_5
REMARK    5  A    between atoms: C7_8  and  C8_9
REMARK    6  A    between atoms: C8_9  and  C9_10
REMARK    7  A    between atoms: C9_10  and  C10_11
REMARK    8  A    between atoms: N2_13  and  C11_14
REMARK    9  A    between atoms: C13_16  and  C14_17
REMARK   10  A    between atoms: C17_23  and  N3_24
REMARK                            x       y       z     vdW  Elec       q    Type
REMARK                         _______ _______ _______ _____ _____    ______ ____
ROOT
ATOM      1  C11 UNL     1      20.246   1.769  26.810  0.00  0.00    +0.055 A 
ATOM      2  C12 UNL     1      20.997   1.120  27.807  0.00  0.00    +0.037 A 
ATOM      3  C13 UNL     1      22.288   1.565  28.141  0.00  0.00    +0.057 A 
ATOM      4  C15 UNL     1      22.836   2.651  27.445  0.00  0.00    +0.014 A 
ATOM      5  C16 UNL     1      22.092   3.311  26.464  0.00  0.00    +0.025 A 
ATOM      6  C17 UNL     1      20.799   2.879  26.140  0.00  0.00    +0.051 A 
ENDROOT
BRANCH   6   7
ATOM      7  N3  UNL     1      20.066   3.535  25.094  0.00  0.00    -0.324 N 
ATOM      8  C18 UNL     1      20.168   3.030  23.723  0.00  0.00    +0.133 C 
ATOM      9  C19 UNL     1      18.912   3.421  22.936  0.00  0.00    +0.178 C 
ATOM     10  O2  UNL     1      18.669   4.811  23.039  0.00  0.00    -0.377 OA
ATOM     11  C20 UNL     1      18.370   5.150  24.380  0.00  0.00    +0.178 C 
ATOM     12  C21 UNL     1      19.581   4.903  25.288  0.00  0.00    +0.133 C 
ENDBRANCH   6   7
BRANCH   1  15
ATOM     13  C10 UNL     1      18.536   0.196  25.792  0.00  0.00    +0.218 C 
ATOM     14  O1  UNL     1      19.382  -0.369  25.047  0.00  0.00    -0.275 OA
ATOM     15  N2  UNL     1      18.889   1.371  26.538  0.00  0.00    -0.284 N 
ATOM     16  H15 UNL     1      18.113   1.975  26.892  0.00  0.00    +0.155 HD
BRANCH  13  17
ATOM     17  C9  UNL     1      17.156  -0.376  25.914  0.00  0.00    +0.105 C 
BRANCH  17  18
ATOM     18  C8  UNL     1      16.963  -1.508  24.901  0.00  0.00    +0.105 C 
BRANCH  18  22
ATOM     19  C5  UNL     1      16.018   0.337  22.018  0.00  0.00    +0.131 A 
ATOM     20  C6  UNL     1      16.613  -0.761  21.432  0.00  0.00    +0.156 A 
ATOM     21  N1  UNL     1      17.045  -1.594  22.395  0.00  0.00    -0.221 NA
ATOM     22  C7  UNL     1      16.685  -0.967  23.534  0.00  0.00    +0.196 A 
ATOM     23  O3  UNL     1      16.076   0.175  23.317  0.00  0.00    -0.444 OA
BRANCH  19  25
ATOM     24  C1  UNL     1      14.062   1.043  20.655  0.00  0.00    +0.019 C 
ATOM     25  C2  UNL     1      15.370   1.512  21.316  0.00  0.00    +0.022 C 
ATOM     26  C3  UNL     1      15.056   2.625  22.334  0.00  0.00    +0.019 C 
ATOM     27  C4  UNL     1      16.324   2.075  20.243  0.00  0.00    +0.019 C 
ENDBRANCH  19  25
ENDBRANCH  18  22
ENDBRANCH  17  18
ENDBRANCH  13  17
ENDBRANCH   1  15
BRANCH   3  28
ATOM     28  C14 UNL     1      23.113   0.826  29.165  0.00  0.00    +0.417 C 
ATOM     29  F1  UNL     1      22.928   1.361  30.427  0.00  0.00    -0.166 F 
ATOM     30  F2  UNL     1      22.735  -0.503  29.179  0.00  0.00    -0.166 F 
ATOM     31  F3  UNL     1      24.461   0.907  28.855  0.00  0.00    -0.166 F 
ENDBRANCH   3  28
TORSDOF 7
ENDMDL
MODEL 3
REMARK VINA RESULT:    -6.200      3.692      7.976
REMARK INTER + INTRA:         -10.285
REMARK INTER:                  -9.037
REMARK INTRA:                  -1.247
REMARK UNBOUND:                -1.548
REMARK  Name = /home/qwerty/github/datacon2025hack/step_04_hit_selection/docking/ligands/lig_230.pdb
REMARK  10 active torsions:
REMARK  status: ('A' for Active; 'I' for Inactive)
REMARK    1  A    between atoms: C1_1  and  C2_2
REMARK    2  A    between atoms: C2_2  and  C3_3
REMARK    3  A    between atoms: C2_2  and  C4_4
REMARK    4  A    between atoms: C2_2  and  C5_5
REMARK    5  A    between atoms: C7_8  and  C8_9
REMARK    6  A    between atoms: C8_9  and  C9_10
REMARK    7  A    between atoms: C9_10  and  C10_11
REMARK    8  A    between atoms: N2_13  and  C11_14
REMARK    9  A    between atoms: C13_16  and  C14_17
REMARK   10  A    between atoms: C17_23  and  N3_24
REMARK                            x       y       z     vdW  Elec       q    Type
REMARK                         _______ _______ _______ _____ _____    ______ ____
ROOT
ATOM      1  C11 UNL     1       9.598   7.392  22.464  0.00  0.00    +0.055 A 
ATOM      2  C12 UNL     1       9.756   8.637  21.827  0.00  0.00    +0.037 A 
ATOM      3  C13 UNL     1      10.504   8.751  20.642  0.00  0.00    +0.057 A 
ATOM      4  C15 UNL     1      11.121   7.609  20.113  0.00  0.00    +0.014 A 
ATOM      5  C16 UNL     1      10.957   6.366  20.730  0.00  0.00    +0.025 A 
ATOM      6  C17 UNL     1      10.201   6.248  21.902  0.00  0.00    +0.051 A 
ENDROOT
BRANCH   6   7
ATOM      7  N3  UNL     1      10.085   4.973  22.554  0.00  0.00    -0.324 N 
ATOM      8  C18 UNL     1      11.184   4.495  23.395  0.00  0.00    +0.133 C 
ATOM      9  C19 UNL     1      10.645   3.506  24.434  0.00  0.00    +0.178 C 
ATOM     10  O2  UNL     1       9.891   2.485  23.809  0.00  0.00    -0.377 OA
ATOM     11  C20 UNL     1       8.734   3.039  23.209  0.00  0.00    +0.178 C 
ATOM     12  C21 UNL     1       9.114   3.990  22.068  0.00  0.00    +0.133 C 
ENDBRANCH   6   7
BRANCH   1  15
ATOM     13  C10 UNL     1       9.198   7.508  24.966  0.00  0.00    +0.218 C 
ATOM     14  O1  UNL     1      10.428   7.522  25.242  0.00  0.00    -0.275 OA
ATOM     15  N2  UNL     1       8.755   7.262  23.623  0.00  0.00    -0.284 N 
ATOM     16  H15 UNL     1       7.763   6.961  23.484  0.00  0.00    +0.155 HD
BRANCH  13  17
ATOM     17  C9  UNL     1       8.192   7.771  26.046  0.00  0.00    +0.105 C 
BRANCH  17  18
ATOM     18  C8  UNL     1       7.589   9.169  25.877  0.00  0.00    +0.105 C 
BRANCH  18  22
ATOM     19  C5  UNL     1       8.535  11.900  27.939  0.00  0.00    +0.131 A 
ATOM     20  C6  UNL     1       8.908  10.839  28.738  0.00  0.00    +0.156 A 
ATOM     21  N1  UNL     1       8.618   9.688  28.105  0.00  0.00    -0.221 NA
ATOM     22  C7  UNL     1       8.085  10.101  26.936  0.00  0.00    +0.196 A 
ATOM     23  O3  UNL     1       8.034  11.409  26.832  0.00  0.00    -0.444 OA
BRANCH  19  25
ATOM     24  C1  UNL     1       7.735  14.180  27.352  0.00  0.00    +0.019 C 
ATOM     25  C2  UNL     1       8.700  13.375  28.240  0.00  0.00    +0.022 C 
ATOM     26  C3  UNL     1       8.377  13.649  29.721  0.00  0.00    +0.019 C 
ATOM     27  C4  UNL     1      10.153  13.810  27.959  0.00  0.00    +0.019 C 
ENDBRANCH  19  25
ENDBRANCH  18  22
ENDBRANCH  17  18
ENDBRANCH  13  17
ENDBRANCH   1  15
BRANCH   3  28
ATOM     28  C14 UNL     1      10.722  10.098  20.000  0.00  0.00    +0.417 C 
ATOM     29  F1  UNL     1       9.547  10.828  19.972  0.00  0.00    -0.166 F 
ATOM     30  F2  UNL     1      11.669  10.797  20.723  0.00  0.00    -0.166 F 
ATOM     31  F3  UNL     1      11.169   9.950  18.697  0.00  0.00    -0.166 F 
ENDBRANCH   3  28
TORSDOF 7
ENDMDL
MODEL 4
REMARK VINA RESULT:    -6.097     14.485     16.957
REMARK INTER + INTRA:         -10.139
REMARK INTER:                  -8.535
REMARK INTRA:                  -1.604
REMARK UNBOUND:                -1.548
REMARK  Name = /home/qwerty/github/datacon2025hack/step_04_hit_selection/docking/ligands/lig_230.pdb
REMARK  10 active torsions:
REMARK  status: ('A' for Active; 'I' for Inactive)
REMARK    1  A    between atoms: C1_1  and  C2_2
REMARK    2  A    between atoms: C2_2  and  C3_3
REMARK    3  A    between atoms: C2_2  and  C4_4
REMARK    4  A    between atoms: C2_2  and  C5_5
REMARK    5  A    between atoms: C7_8  and  C8_9
REMARK    6  A    between atoms: C8_9  and  C9_10
REMARK    7  A    between atoms: C9_10  and  C10_11
REMARK    8  A    between atoms: N2_13  and  C11_14
REMARK    9  A    between atoms: C13_16  and  C14_17
REMARK   10  A    between atoms: C17_23  and  N3_24
REMARK                            x       y       z     vdW  Elec       q    Type
REMARK                         _______ _______ _______ _____ _____    ______ ____
ROOT
ATOM      1  C11 UNL     1      22.123   7.214  33.407  0.00  0.00    +0.055 A 
ATOM      2  C12 UNL     1      22.808   8.382  33.024  0.00  0.00    +0.037 A 
ATOM      3  C13 UNL     1      23.281   8.543  31.710  0.00  0.00    +0.057 A 
ATOM      4  C15 UNL     1      23.088   7.507  30.785  0.00  0.00    +0.014 A 
ATOM      5  C16 UNL     1      22.396   6.350  31.153  0.00  0.00    +0.025 A 
ATOM      6  C17 UNL     1      21.911   6.195  32.458  0.00  0.00    +0.051 A 
ENDROOT
BRANCH   6   7
ATOM      7  N3  UNL     1      21.247   4.979  32.835  0.00  0.00    -0.324 N 
ATOM      8  C18 UNL     1      22.032   3.752  32.989  0.00  0.00    +0.133 C 
ATOM      9  C19 UNL     1      21.312   2.797  33.948  0.00  0.00    +0.178 C 
ATOM     10  O2  UNL     1      19.972   2.596  33.542  0.00  0.00    -0.377 OA
ATOM     11  C20 UNL     1      19.251   3.811  33.639  0.00  0.00    +0.178 C 
ATOM     12  C21 UNL     1      19.799   4.850  32.654  0.00  0.00    +0.133 C 
ENDBRANCH   6   7
BRANCH   1  15
ATOM     13  C10 UNL     1      22.314   6.720  35.888  0.00  0.00    +0.218 C 
ATOM     14  O1  UNL     1      23.431   6.148  35.769  0.00  0.00    -0.275 OA
ATOM     15  N2  UNL     1      21.559   7.095  34.726  0.00  0.00    -0.284 N 
ATOM     16  H15 UNL     1      20.536   7.280  34.848  0.00  0.00    +0.155 HD
BRANCH  13  17
ATOM     17  C9  UNL     1      21.780   7.028  37.255  0.00  0.00    +0.105 C 
BRANCH  17  18
ATOM     18  C8  UNL     1      20.250   7.080  37.224  0.00  0.00    +0.105 C 
BRANCH  18  22
ATOM     19  C5  UNL     1      19.511  10.429  36.305  0.00  0.00    +0.131 A 
ATOM     20  C6  UNL     1      18.716  10.293  37.424  0.00  0.00    +0.156 A 
ATOM     21  N1  UNL     1      18.868   9.053  37.924  0.00  0.00    -0.221 NA
ATOM     22  C7  UNL     1      19.761   8.487  37.085  0.00  0.00    +0.196 A 
ATOM     23  O3  UNL     1      20.146   9.296  36.127  0.00  0.00    -0.444 OA
BRANCH  19  25
ATOM     24  C1  UNL     1      18.322  12.389  35.341  0.00  0.00    +0.019 C 
ATOM     25  C2  UNL     1      19.674  11.663  35.442  0.00  0.00    +0.022 C 
ATOM     26  C3  UNL     1      20.715  12.610  36.070  0.00  0.00    +0.019 C 
ATOM     27  C4  UNL     1      20.156  11.259  34.034  0.00  0.00    +0.019 C 
ENDBRANCH  19  25
ENDBRANCH  18  22
ENDBRANCH  17  18
ENDBRANCH  13  17
ENDBRANCH   1  15
BRANCH   3  28
ATOM     28  C14 UNL     1      24.070   9.768  31.322  0.00  0.00    +0.417 C 
ATOM     29  F1  UNL     1      23.237  10.862  31.165  0.00  0.00    -0.166 F 
ATOM     30  F2  UNL     1      24.994  10.044  32.312  0.00  0.00    -0.166 F 
ATOM     31  F3  UNL     1      24.739   9.559  30.127  0.00  0.00    -0.166 F 
ENDBRANCH   3  28
TORSDOF 7
ENDMDL
MODEL 5
REMARK VINA RESULT:    -6.088      3.164      4.652
REMARK INTER + INTRA:         -10.127
REMARK INTER:                  -8.899
REMARK INTRA:                  -1.228
REMARK UNBOUND:                -1.548
REMARK  Name = /home/qwerty/github/datacon2025hack/step_04_hit_selection/docking/ligands/lig_230.pdb
REMARK  10 active torsions:
REMARK  status: ('A' for Active; 'I' for Inactive)
REMARK    1  A    between atoms: C1_1  and  C2_2
REMARK    2  A    between atoms: C2_2  and  C3_3
REMARK    3  A    between atoms: C2_2  and  C4_4
REMARK    4  A    between atoms: C2_2  and  C5_5
REMARK    5  A    between atoms: C7_8  and  C8_9
REMARK    6  A    between atoms: C8_9  and  C9_10
REMARK    7  A    between atoms: C9_10  and  C10_11
REMARK    8  A    between atoms: N2_13  and  C11_14
REMARK    9  A    between atoms: C13_16  and  C14_17
REMARK   10  A    between atoms: C17_23  and  N3_24
REMARK                            x       y       z     vdW  Elec       q    Type
REMARK                         _______ _______ _______ _____ _____    ______ ____
ROOT
ATOM      1  C11 UNL     1       7.667   9.404  27.807  0.00  0.00    +0.055 A 
ATOM      2  C12 UNL     1       7.203   8.111  28.112  0.00  0.00    +0.037 A 
ATOM      3  C13 UNL     1       7.333   7.585  29.408  0.00  0.00    +0.057 A 
ATOM      4  C15 UNL     1       7.963   8.355  30.396  0.00  0.00    +0.014 A 
ATOM      5  C16 UNL     1       8.413   9.646  30.107  0.00  0.00    +0.025 A 
ATOM      6  C17 UNL     1       8.271  10.177  28.819  0.00  0.00    +0.051 A 
ENDROOT
BRANCH   6   7
ATOM      7  N3  UNL     1       8.785  11.485  28.524  0.00  0.00    -0.324 N 
ATOM      8  C18 UNL     1      10.230  11.668  28.368  0.00  0.00    +0.133 C 
ATOM      9  C19 UNL     1      10.501  12.892  27.485  0.00  0.00    +0.178 C 
ATOM     10  O2  UNL     1       9.810  14.025  27.974  0.00  0.00    -0.377 OA
ATOM     11  C20 UNL     1       8.413  13.817  27.876  0.00  0.00    +0.178 C 
ATOM     12  C21 UNL     1       7.968  12.670  28.791  0.00  0.00    +0.133 C 
ENDBRANCH   6   7
BRANCH   1  15
ATOM     13  C10 UNL     1       8.362   9.840  25.407  0.00  0.00    +0.218 C 
ATOM     14  O1  UNL     1       9.561   9.508  25.610  0.00  0.00    -0.275 OA
ATOM     15  N2  UNL     1       7.446   9.975  26.504  0.00  0.00    -0.284 N 
ATOM     16  H15 UNL     1       6.574  10.530  26.346  0.00  0.00    +0.155 HD
BRANCH  13  17
ATOM     17  C9  UNL     1       7.886  10.077  24.005  0.00  0.00    +0.105 C 
BRANCH  17  18
ATOM     18  C8  UNL     1       9.073  10.080  23.038  0.00  0.00    +0.105 C 
BRANCH  18  22
ATOM     19  C5  UNL     1       8.553   6.961  21.421  0.00  0.00    +0.131 A 
ATOM     20  C6  UNL     1       9.391   7.580  20.515  0.00  0.00    +0.156 A 
ATOM     21  N1  UNL     1       9.703   8.807  20.971  0.00  0.00    -0.221 NA
ATOM     22  C7  UNL     1       9.044   8.879  22.146  0.00  0.00    +0.196 A 
ATOM     23  O3  UNL     1       8.363   7.791  22.418  0.00  0.00    -0.444 OA
BRANCH  19  25
ATOM     24  C1  UNL     1       7.647   5.062  22.745  0.00  0.00    +0.019 C 
ATOM     25  C2  UNL     1       7.976   5.565  21.329  0.00  0.00    +0.022 C 
ATOM     26  C3  UNL     1       6.688   5.582  20.483  0.00  0.00    +0.019 C 
ATOM     27  C4  UNL     1       8.995   4.617  20.663  0.00  0.00    +0.019 C 
ENDBRANCH  19  25
ENDBRANCH  18  22
ENDBRANCH  17  18
ENDBRANCH  13  17
ENDBRANCH   1  15
BRANCH   3  28
ATOM     28  C14 UNL     1       6.892   6.175  29.712  0.00  0.00    +0.417 C 
ATOM     29  F1  UNL     1       6.143   5.657  28.670  0.00  0.00    -0.166 F 
ATOM     30  F2  UNL     1       8.007   5.382  29.903  0.00  0.00    -0.166 F 
ATOM     31  F3  UNL     1       6.116   6.144  30.859  0.00  0.00    -0.166 F 
ENDBRANCH   3  28
TORSDOF 7
ENDMDL
MODEL 6
REMARK VINA RESULT:    -6.042      5.321      7.694
REMARK INTER + INTRA:         -10.062
REMARK INTER:                  -8.832
REMARK INTRA:                  -1.229
REMARK UNBOUND:                -1.548
REMARK  Name = /home/qwerty/github/datacon2025hack/step_04_hit_selection/docking/ligands/lig_230.pdb
REMARK  10 active torsions:
REMARK  status: ('A' for Active; 'I' for Inactive)
REMARK    1  A    between atoms: C1_1  and  C2_2
REMARK    2  A    between atoms: C2_2  and  C3_3
REMARK    3  A    between atoms: C2_2  and  C4_4
REMARK    4  A    between atoms: C2_2  and  C5_5
REMARK    5  A    between atoms: C7_8  and  C8_9
REMARK    6  A    between atoms: C8_9  and  C9_10
REMARK    7  A    between atoms: C9_10  and  C10_11
REMARK    8  A    between atoms: N2_13  and  C11_14
REMARK    9  A    between atoms: C13_16  and  C14_17
REMARK   10  A    between atoms: C17_23  and  N3_24
REMARK                            x       y       z     vdW  Elec       q    Type
REMARK                         _______ _______ _______ _____ _____    ______ ____
ROOT
ATOM      1  C11 UNL     1      12.085  14.161  31.063  0.00  0.00    +0.055 A 
ATOM      2  C12 UNL     1      11.324  14.110  32.246  0.00  0.00    +0.037 A 
ATOM      3  C13 UNL     1      11.939  13.885  33.490  0.00  0.00    +0.057 A 
ATOM      4  C15 UNL     1      13.325  13.680  33.537  0.00  0.00    +0.014 A 
ATOM      5  C16 UNL     1      14.090  13.743  32.369  0.00  0.00    +0.025 A 
ATOM      6  C17 UNL     1      13.481  13.983  31.131  0.00  0.00    +0.051 A 
ENDROOT
BRANCH   6   7
ATOM      7  N3  UNL     1      14.273  13.994  29.933  0.00  0.00    -0.324 N 
ATOM      8  C18 UNL     1      14.669  12.722  29.325  0.00  0.00    +0.133 C 
ATOM      9  C19 UNL     1      14.929  12.927  27.828  0.00  0.00    +0.178 C 
ATOM     10  O2  UNL     1      15.836  13.992  27.618  0.00  0.00    -0.377 OA
ATOM     11  C20 UNL     1      15.258  15.210  28.050  0.00  0.00    +0.178 C 
ATOM     12  C21 UNL     1      15.025  15.195  29.565  0.00  0.00    +0.133 C 
ENDBRANCH   6   7
BRANCH   1  15
ATOM     13  C10 UNL     1      10.949  13.507  28.891  0.00  0.00    +0.218 C 
ATOM     14  O1  UNL     1      11.310  12.302  28.973  0.00  0.00    -0.275 OA
ATOM     15  N2  UNL     1      11.463  14.487  29.806  0.00  0.00    -0.284 N 
ATOM     16  H15 UNL     1      11.391  15.494  29.533  0.00  0.00    +0.155 HD
BRANCH  13  17
ATOM     17  C9  UNL     1       9.959  13.915  27.842  0.00  0.00    +0.105 C 
BRANCH  17  18
ATOM     18  C8  UNL     1       8.532  13.649  28.331  0.00  0.00    +0.105 C 
BRANCH  18  22
ATOM     19  C5  UNL     1       8.003  10.235  27.507  0.00  0.00    +0.131 A 
ATOM     20  C6  UNL     1       7.585  10.246  28.822  0.00  0.00    +0.156 A 
ATOM     21  N1  UNL     1       7.718  11.491  29.316  0.00  0.00    -0.221 NA
ATOM     22  C7  UNL     1       8.205  12.190  28.270  0.00  0.00    +0.196 A 
ATOM     23  O3  UNL     1       8.374  11.454  27.198  0.00  0.00    -0.444 OA
BRANCH  19  25
ATOM     24  C1  UNL     1       7.516   9.527  25.174  0.00  0.00    +0.019 C 
ATOM     25  C2  UNL     1       8.003   9.058  26.556  0.00  0.00    +0.022 C 
ATOM     26  C3  UNL     1       9.428   8.486  26.427  0.00  0.00    +0.019 C 
ATOM     27  C4  UNL     1       7.071   7.951  27.089  0.00  0.00    +0.019 C 
ENDBRANCH  19  25
ENDBRANCH  18  22
ENDBRANCH  17  18
ENDBRANCH  13  17
ENDBRANCH   1  15
BRANCH   3  28
ATOM     28  C14 UNL     1      11.112  13.768  34.745  0.00  0.00    +0.417 C 
ATOM     29  F1  UNL     1       9.993  14.579  34.676  0.00  0.00    -0.166 F 
ATOM     30  F2  UNL     1      10.707  12.456  34.901  0.00  0.00    -0.166 F 
ATOM     31  F3  UNL     1      11.852  14.146  35.854  0.00  0.00    -0.166 F 
ENDBRANCH   3  28
TORSDOF 7
ENDMDL
MODEL 7
REMARK VINA RESULT:    -5.942     14.541     17.114
REMARK INTER + INTRA:          -9.921
REMARK INTER:                  -8.495
REMARK INTRA:                  -1.425
REMARK UNBOUND:                -1.548
REMARK  Name = /home/qwerty/github/datacon2025hack/step_04_hit_selection/docking/ligands/lig_230.pdb
REMARK  10 active torsions:
REMARK  status: ('A' for Active; 'I' for Inactive)
REMARK    1  A    between atoms: C1_1  and  C2_2
REMARK    2  A    between atoms: C2_2  and  C3_3
REMARK    3  A    between atoms: C2_2  and  C4_4
REMARK    4  A    between atoms: C2_2  and  C5_5
REMARK    5  A    between atoms: C7_8  and  C8_9
REMARK    6  A    between atoms: C8_9  and  C9_10
REMARK    7  A    between atoms: C9_10  and  C10_11
REMARK    8  A    between atoms: N2_13  and  C11_14
REMARK    9  A    between atoms: C13_16  and  C14_17
REMARK   10  A    between atoms: C17_23  and  N3_24
REMARK                            x       y       z     vdW  Elec       q    Type
REMARK                         _______ _______ _______ _____ _____    ______ ____
ROOT
ATOM      1  C11 UNL     1      21.767   2.583  31.913  0.00  0.00    +0.055 A 
ATOM      2  C12 UNL     1      22.550   2.169  30.819  0.00  0.00    +0.037 A 
ATOM      3  C13 UNL     1      21.955   1.590  29.684  0.00  0.00    +0.057 A 
ATOM      4  C15 UNL     1      20.566   1.401  29.665  0.00  0.00    +0.014 A 
ATOM      5  C16 UNL     1      19.779   1.823  30.740  0.00  0.00    +0.025 A 
ATOM      6  C17 UNL     1      20.369   2.413  31.865  0.00  0.00    +0.051 A 
ENDROOT
BRANCH   6   7
ATOM      7  N3  UNL     1      19.553   2.794  32.984  0.00  0.00    -0.324 N 
ATOM      8  C18 UNL     1      19.042   1.757  33.884  0.00  0.00    +0.133 C 
ATOM      9  C19 UNL     1      18.766   2.365  35.264  0.00  0.00    +0.178 C 
ATOM     10  O2  UNL     1      17.943   3.510  35.152  0.00  0.00    -0.377 OA
ATOM     11  C20 UNL     1      18.627   4.527  34.444  0.00  0.00    +0.178 C 
ATOM     12  C21 UNL     1      18.892   4.100  32.996  0.00  0.00    +0.133 C 
ENDBRANCH   6   7
BRANCH   1  15
ATOM     13  C10 UNL     1      22.536   4.684  33.108  0.00  0.00    +0.218 C 
ATOM     14  O1  UNL     1      22.475   5.393  32.068  0.00  0.00    -0.275 OA
ATOM     15  N2  UNL     1      22.370   3.260  33.031  0.00  0.00    -0.284 N 
ATOM     16  H15 UNL     1      22.719   2.684  33.832  0.00  0.00    +0.155 HD
BRANCH  13  17
ATOM     17  C9  UNL     1      22.764   5.336  34.439  0.00  0.00    +0.105 C 
BRANCH  17  18
ATOM     18  C8  UNL     1      22.929   6.848  34.263  0.00  0.00    +0.105 C 
BRANCH  18  22
ATOM     19  C5  UNL     1      20.195   7.991  36.220  0.00  0.00    +0.131 A 
ATOM     20  C6  UNL     1      20.943   9.147  36.131  0.00  0.00    +0.156 A 
ATOM     21  N1  UNL     1      22.049   8.901  35.406  0.00  0.00    -0.221 NA
ATOM     22  C7  UNL     1      21.921   7.599  35.076  0.00  0.00    +0.196 A 
ATOM     23  O3  UNL     1      20.826   7.056  35.553  0.00  0.00    -0.444 OA
BRANCH  19  25
ATOM     24  C1  UNL     1      18.850   6.456  37.640  0.00  0.00    +0.019 C 
ATOM     25  C2  UNL     1      18.862   7.813  36.917  0.00  0.00    +0.022 C 
ATOM     26  C3  UNL     1      18.652   8.941  37.946  0.00  0.00    +0.019 C 
ATOM     27  C4  UNL     1      17.718   7.864  35.884  0.00  0.00    +0.019 C 
ENDBRANCH  19  25
ENDBRANCH  18  22
ENDBRANCH  17  18
ENDBRANCH  13  17
ENDBRANCH   1  15
BRANCH   3  28
ATOM     28  C14 UNL     1      22.804   1.090  28.543  0.00  0.00    +0.417 C 
ATOM     29  F1  UNL     1      24.067   0.738  28.986  0.00  0.00    -0.166 F 
ATOM     30  F2  UNL     1      22.200  -0.017  27.979  0.00  0.00    -0.166 F 
ATOM     31  F3  UNL     1      22.945   2.070  27.574  0.00  0.00    -0.166 F 
ENDBRANCH   3  28
TORSDOF 7
ENDMDL
MODEL 8
REMARK VINA RESULT:    -5.861     13.817     15.040
REMARK INTER + INTRA:          -9.807
REMARK INTER:                  -8.428
REMARK INTRA:                  -1.379
REMARK UNBOUND:                -1.548
REMARK  Name = /home/qwerty/github/datacon2025hack/step_04_hit_selection/docking/ligands/lig_230.pdb
REMARK  10 active torsions:
REMARK  status: ('A' for Active; 'I' for Inactive)
REMARK    1  A    between atoms: C1_1  and  C2_2
REMARK    2  A    between atoms: C2_2  and  C3_3
REMARK    3  A    between atoms: C2_2  and  C4_4
REMARK    4  A    between atoms: C2_2  and  C5_5
REMARK    5  A    between atoms: C7_8  and  C8_9
REMARK    6  A    between atoms: C8_9  and  C9_10
REMARK    7  A    between atoms: C9_10  and  C10_11
REMARK    8  A    between atoms: N2_13  and  C11_14
REMARK    9  A    between atoms: C13_16  and  C14_17
REMARK   10  A    between atoms: C17_23  and  N3_24
REMARK                            x       y       z     vdW  Elec       q    Type
REMARK                         _______ _______ _______ _____ _____    ______ ____
ROOT
ATOM      1  C11 UNL     1      22.478  13.268  22.210  0.00  0.00    +0.055 A 
ATOM      2  C12 UNL     1      23.369  13.890  23.104  0.00  0.00    +0.037 A 
ATOM      3  C13 UNL     1      22.934  14.918  23.958  0.00  0.00    +0.057 A 
ATOM      4  C15 UNL     1      21.600  15.342  23.889  0.00  0.00    +0.014 A 
ATOM      5  C16 UNL     1      20.704  14.721  23.015  0.00  0.00    +0.025 A 
ATOM      6  C17 UNL     1      21.133  13.687  22.173  0.00  0.00    +0.051 A 
ENDROOT
BRANCH   6   7
ATOM      7  N3  UNL     1      20.213  13.093  21.244  0.00  0.00    -0.324 N 
ATOM      8  C18 UNL     1      20.030  13.706  19.926  0.00  0.00    +0.133 C 
ATOM      9  C19 UNL     1      19.547  12.647  18.929  0.00  0.00    +0.178 C 
ATOM     10  O2  UNL     1      18.411  11.970  19.429  0.00  0.00    -0.377 OA
ATOM     11  C20 UNL     1      18.759  11.235  20.588  0.00  0.00    +0.178 C 
ATOM     12  C21 UNL     1      19.177  12.176  21.724  0.00  0.00    +0.133 C 
ENDBRANCH   6   7
BRANCH   1  15
ATOM     13  C10 UNL     1      23.569  12.288  20.141  0.00  0.00    +0.218 C 
ATOM     14  O1  UNL     1      23.518  13.373  19.502  0.00  0.00    -0.275 OA
ATOM     15  N2  UNL     1      22.904  12.153  21.406  0.00  0.00    -0.284 N 
ATOM     16  H15 UNL     1      22.711  11.186  21.754  0.00  0.00    +0.155 HD
BRANCH  13  17
ATOM     17  C9  UNL     1      24.349  11.135  19.582  0.00  0.00    +0.105 C 
BRANCH  17  18
ATOM     18  C8  UNL     1      23.396  10.026  19.125  0.00  0.00    +0.105 C 
BRANCH  18  22
ATOM     19  C5  UNL     1      22.643   7.331  21.310  0.00  0.00    +0.131 A 
ATOM     20  C6  UNL     1      24.012   7.408  21.466  0.00  0.00    +0.156 A 
ATOM     21  N1  UNL     1      24.488   8.401  20.693  0.00  0.00    -0.221 NA
ATOM     22  C7  UNL     1      23.379   8.894  20.102  0.00  0.00    +0.196 A 
ATOM     23  O3  UNL     1      22.285   8.266  20.464  0.00  0.00    -0.444 OA
BRANCH  19  25
ATOM     24  C1  UNL     1      20.365   7.104  22.280  0.00  0.00    +0.019 C 
ATOM     25  C2  UNL     1      21.694   6.379  22.007  0.00  0.00    +0.022 C 
ATOM     26  C3  UNL     1      21.431   5.151  21.114  0.00  0.00    +0.019 C 
ATOM     27  C4  UNL     1      22.310   5.903  23.338  0.00  0.00    +0.019 C 
ENDBRANCH  19  25
ENDBRANCH  18  22
ENDBRANCH  17  18
ENDBRANCH  13  17
ENDBRANCH   1  15
BRANCH   3  28
ATOM     28  C14 UNL     1      23.908  15.623  24.868  0.00  0.00    +0.417 C 
ATOM     29  F1  UNL     1      23.473  16.904  25.159  0.00  0.00    -0.166 F 
ATOM     30  F2  UNL     1      24.027  14.910  26.045  0.00  0.00    -0.166 F 
ATOM     31  F3  UNL     1      25.154  15.717  24.270  0.00  0.00    -0.166 F 
ENDBRANCH   3  28
TORSDOF 7
ENDMDL
MODEL 9
REMARK VINA RESULT:    -5.843      8.170     11.717
REMARK INTER + INTRA:          -9.782
REMARK INTER:                  -8.774
REMARK INTRA:                  -1.008
REMARK UNBOUND:                -1.548
REMARK  Name = /home/qwerty/github/datacon2025hack/step_04_hit_selection/docking/ligands/lig_230.pdb
REMARK  10 active torsions:
REMARK  status: ('A' for Active; 'I' for Inactive)
REMARK    1  A    between atoms: C1_1  and  C2_2
REMARK    2  A    between atoms: C2_2  and  C3_3
REMARK    3  A    between atoms: C2_2  and  C4_4
REMARK    4  A    between atoms: C2_2  and  C5_5
REMARK    5  A    between atoms: C7_8  and  C8_9
REMARK    6  A    between atoms: C8_9  and  C9_10
REMARK    7  A    between atoms: C9_10  and  C10_11
REMARK    8  A    between atoms: N2_13  and  C11_14
REMARK    9  A    between atoms: C13_16  and  C14_17
REMARK   10  A    between atoms: C17_23  and  N3_24
REMARK                            x       y       z     vdW  Elec       q    Type
REMARK                         _______ _______ _______ _____ _____    ______ ____
ROOT
ATOM      1  C11 UNL     1      11.569  13.455  30.408  0.00  0.00    +0.055 A 
ATOM      2  C12 UNL     1      10.169  13.326  30.338  0.00  0.00    +0.037 A 
ATOM      3  C13 UNL     1       9.490  13.486  29.119  0.00  0.00    +0.057 A 
ATOM      4  C15 UNL     1      10.223  13.807  27.967  0.00  0.00    +0.014 A 
ATOM      5  C16 UNL     1      11.614  13.923  28.024  0.00  0.00    +0.025 A 
ATOM      6  C17 UNL     1      12.294  13.749  29.236  0.00  0.00    +0.051 A 
ENDROOT
BRANCH   6   7
ATOM      7  N3  UNL     1      13.719  13.922  29.288  0.00  0.00    -0.324 N 
ATOM      8  C18 UNL     1      14.588  12.747  29.174  0.00  0.00    +0.133 C 
ATOM      9  C19 UNL     1      15.959  13.172  28.639  0.00  0.00    +0.178 C 
ATOM     10  O2  UNL     1      16.492  14.230  29.411  0.00  0.00    -0.377 OA
ATOM     11  C20 UNL     1      15.683  15.383  29.273  0.00  0.00    +0.178 C 
ATOM     12  C21 UNL     1      14.288  15.143  29.860  0.00  0.00    +0.133 C 
ENDBRANCH   6   7
BRANCH   1  15
ATOM     13  C10 UNL     1      12.265  14.090  32.763  0.00  0.00    +0.218 C 
ATOM     14  O1  UNL     1      11.933  15.298  32.621  0.00  0.00    -0.275 OA
ATOM     15  N2  UNL     1      12.269  13.197  31.639  0.00  0.00    -0.284 N 
ATOM     16  H15 UNL     1      12.824  12.314  31.720  0.00  0.00    +0.155 HD
BRANCH  13  17
ATOM     17  C9  UNL     1      12.640  13.579  34.121  0.00  0.00    +0.105 C 
BRANCH  17  18
ATOM     18  C8  UNL     1      13.584  14.566  34.814  0.00  0.00    +0.105 C 
BRANCH  18  22
ATOM     19  C5  UNL     1      16.652  12.934  35.546  0.00  0.00    +0.131 A 
ATOM     20  C6  UNL     1      16.060  12.931  36.792  0.00  0.00    +0.156 A 
ATOM     21  N1  UNL     1      14.856  13.525  36.709  0.00  0.00    -0.221 NA
ATOM     22  C7  UNL     1      14.763  13.860  35.405  0.00  0.00    +0.196 A 
ATOM     23  O3  UNL     1      15.822  13.511  34.712  0.00  0.00    -0.444 OA
BRANCH  19  25
ATOM     24  C1  UNL     1      18.915  12.363  36.402  0.00  0.00    +0.019 C 
ATOM     25  C2  UNL     1      17.996  12.348  35.169  0.00  0.00    +0.022 C 
ATOM     26  C3  UNL     1      17.819  10.896  34.683  0.00  0.00    +0.019 C 
ATOM     27  C4  UNL     1      18.632  13.177  34.035  0.00  0.00    +0.019 C 
ENDBRANCH  19  25
ENDBRANCH  18  22
ENDBRANCH  17  18
ENDBRANCH  13  17
ENDBRANCH   1  15
BRANCH   3  28
ATOM     28  C14 UNL     1       7.985  13.410  29.063  0.00  0.00    +0.417 C 
ATOM     29  F1  UNL     1       7.546  12.122  29.313  0.00  0.00    -0.166 F 
ATOM     30  F2  UNL     1       7.452  14.259  30.014  0.00  0.00    -0.166 F 
ATOM     31  F3  UNL     1       7.523  13.788  27.812  0.00  0.00    -0.166 F 
ENDBRANCH   3  28
TORSDOF 7
ENDMDL
