REMARK  Name = /home/qwerty/github/datacon2025hack/step_04_hit_selection/docking/ligands/lig_583.pdb
REMARK  5 active torsions:
REMARK  status: ('A' for Active; 'I' for Inactive)
REMARK    1  A    between atoms: C1_1  and  C2_2
REMARK    2  A    between atoms: C2_2  and  C3_3
REMARK    3  A    between atoms: C2_2  and  N1_9
REMARK    4  A    between atoms: C11_12  and  N2_13
REMARK    5  A    between atoms: C12_14  and  C13_16
REMARK                            x       y       z     vdW  Elec       q    Type
REMARK                         _______ _______ _______ _____ _____    ______ ____
ROOT
ATOM      1  N1  UNL     1      -1.125  -0.602   0.367  0.00  0.00    -0.294 NA
ATOM      2  C9  UNL     1      -1.304  -0.107   1.746  0.00  0.00    +0.087 C 
ATOM      3  C10 UNL     1      -0.183  -0.682   2.607  0.00  0.00    +0.039 C 
ATOM      4  C11 UNL     1       0.720  -1.432   1.641  0.00  0.00    +0.088 C 
ATOM      5  C19 UNL     1      -0.198  -1.736   0.471  0.00  0.00    +0.107 C 
ENDROOT
BRANCH   4   6
ATOM      6  N2  UNL     1       1.838  -0.590   1.199  0.00  0.00    -0.307 N 
ATOM      7  C12 UNL     1       2.998  -1.143   0.558  0.00  0.00    +0.245 C 
ATOM      8  O1  UNL     1       3.138  -2.394   0.477  0.00  0.00    -0.270 OA
ATOM      9  H15 UNL     1       1.793   0.445   1.341  0.00  0.00    +0.149 HD
BRANCH   7  10
ATOM     10  C13 UNL     1       4.019  -0.253  -0.034  0.00  0.00    +0.053 A 
ATOM     11  C14 UNL     1       3.601   0.858  -0.790  0.00  0.00    +0.055 A 
ATOM     12  C15 UNL     1       4.538   1.707  -1.385  0.00  0.00    +0.159 A 
ATOM     13  F1  UNL     1       4.118   2.767  -2.120  0.00  0.00    -0.202 F 
ATOM     14  C16 UNL     1       5.904   1.460  -1.230  0.00  0.00    +0.159 A 
ATOM     15  F2  UNL     1       6.814   2.283  -1.808  0.00  0.00    -0.202 F 
ATOM     16  C17 UNL     1       6.334   0.366  -0.475  0.00  0.00    +0.056 A 
ATOM     17  C18 UNL     1       5.405  -0.494   0.126  0.00  0.00    +0.028 A 
ATOM     18  I1  UNL     1       6.181  -2.069   1.322  0.00  0.00    -0.043 I 
ENDBRANCH   7  10
ENDBRANCH   4   6
BRANCH   1  20
ATOM     19  C1  UNL     1      -2.184  -1.481  -1.714  0.00  0.00    +0.029 C 
ATOM     20  C2  UNL     1      -2.411  -0.959  -0.286  0.00  0.00    +0.084 C 
BRANCH  20  21
ATOM     21  C3  UNL     1      -3.328   0.251  -0.355  0.00  0.00    -0.031 A 
ATOM     22  C4  UNL     1      -4.667   0.149   0.057  0.00  0.00    +0.005 A 
ATOM     23  C5  UNL     1      -5.515   1.258  -0.013  0.00  0.00    +0.000 A 
ATOM     24  C6  UNL     1      -5.039   2.474  -0.511  0.00  0.00    +0.000 A 
ATOM     25  C7  UNL     1      -3.711   2.585  -0.931  0.00  0.00    +0.000 A 
ATOM     26  C8  UNL     1      -2.859   1.479  -0.859  0.00  0.00    +0.005 A 
ENDBRANCH  20  21
ENDBRANCH   1  20
TORSDOF 4
