REMARK  Name = /home/qwerty/github/datacon2025hack/step_04_hit_selection/docking/ligands/lig_296.pdb
REMARK  4 active torsions:
REMARK  status: ('A' for Active; 'I' for Inactive)
REMARK    1  A    between atoms: C1_1  and  C2_2
REMARK    2  A    between atoms: C8_9  and  C9_11
REMARK    3  A    between atoms: C15_19  and  C16_20
REMARK    4  A    between atoms: C21_26  and  C22_27
REMARK                            x       y       z     vdW  Elec       q    Type
REMARK                         _______ _______ _______ _____ _____    ______ ____
ROOT
ATOM      1  C1  UNL     1       3.104  -2.160  -4.241  0.00  0.00    +0.044 C 
ATOM      2  C2  UNL     1       3.299  -1.394  -2.966  0.00  0.00    -0.049 A 
ATOM      3  C3  UNL     1       4.575  -1.335  -2.362  0.00  0.00    +0.004 A 
ATOM      4  C4  UNL     1       4.778  -0.571  -1.202  0.00  0.00    +0.006 A 
ATOM      5  C5  UNL     1       3.693   0.118  -0.658  0.00  0.00    -0.017 A 
ATOM      6  C6  UNL     1       2.452   0.058  -1.233  0.00  0.00    +0.041 A 
ATOM      7  C7  UNL     1       2.229  -0.665  -2.409  0.00  0.00    +0.027 A 
ATOM      8  N1  UNL     1       1.528   0.884  -0.543  0.00  0.00    -0.263 N 
ATOM      9  C8  UNL     1       0.120   0.996  -0.782  0.00  0.00    +0.306 C 
ATOM     10  O1  UNL     1      -0.391   2.140  -0.899  0.00  0.00    -0.265 OA
ATOM     11  C20 UNL     1       2.235   1.613   0.509  0.00  0.00    +0.127 C 
ATOM     12  C21 UNL     1       3.680   1.034   0.524  0.00  0.00    +0.069 C 
ENDROOT
BRANCH   9  13
ATOM     13  C9  UNL     1      -0.738  -0.203  -0.849  0.00  0.00    +0.302 C 
ATOM     14  O2  UNL     1      -0.223  -1.350  -0.776  0.00  0.00    -0.265 OA
ATOM     15  N2  UNL     1      -2.156  -0.089  -0.986  0.00  0.00    -0.287 N 
ATOM     16  C10 UNL     1      -3.241  -0.958  -1.502  0.00  0.00    +0.117 C 
ATOM     17  C11 UNL     1      -4.328   0.049  -1.313  0.00  0.00    +0.008 C 
ATOM     18  C12 UNL     1      -5.617  -0.346  -0.606  0.00  0.00    +0.010 C 
ATOM     19  C13 UNL     1      -6.385   0.097  -1.855  0.00  0.00    +0.001 C 
ATOM     20  C14 UNL     1      -5.086   0.525  -2.543  0.00  0.00    +0.010 C 
ATOM     21  C15 UNL     1      -3.233   0.904  -0.737  0.00  0.00    +0.113 C 
BRANCH  21  22
ATOM     22  C16 UNL     1      -3.358   1.275   0.768  0.00  0.00    +0.139 C 
ATOM     23  C17 UNL     1      -3.370   0.087   1.735  0.00  0.00    +0.036 C 
ATOM     24  C18 UNL     1      -2.655   0.627   2.932  0.00  0.00    +0.031 C 
ATOM     25  C19 UNL     1      -1.747   1.676   2.335  0.00  0.00    +0.160 C 
ATOM     26  O3  UNL     1      -2.305   2.143   1.129  0.00  0.00    -0.375 OA
ENDBRANCH  21  22
ENDBRANCH   9  13
BRANCH  12  27
ATOM     27  C22 UNL     1       3.987   0.282   1.803  0.00  0.00    -0.036 A 
ATOM     28  C23 UNL     1       5.060   0.686   2.616  0.00  0.00    +0.004 A 
ATOM     29  C24 UNL     1       5.349  -0.002   3.799  0.00  0.00    +0.003 A 
ATOM     30  C25 UNL     1       4.569  -1.096   4.182  0.00  0.00    +0.038 A 
ATOM     31  C26 UNL     1       3.499  -1.507   3.383  0.00  0.00    +0.124 A 
ATOM     32  F1  UNL     1       2.743  -2.568   3.757  0.00  0.00    -0.205 F 
ATOM     33  C27 UNL     1       3.207  -0.823   2.199  0.00  0.00    +0.042 A 
ENDBRANCH  12  27
TORSDOF 3
