MODEL 1
REMARK VINA RESULT:    -7.113      0.000      0.000
REMARK INTER + INTRA:          -8.870
REMARK INTER:                  -8.361
REMARK INTRA:                  -0.509
REMARK UNBOUND:                -0.509
REMARK  Name = /home/qwerty/github/datacon2025hack/step_04_hit_selection/docking/ligands/lig_793.pdb
REMARK  3 active torsions:
REMARK  status: ('A' for Active; 'I' for Inactive)
REMARK    1  A    between atoms: C1_2  and  C15_20
REMARK    2  A    between atoms: N1_3  and  C2_4
REMARK    3  A    between atoms: C6_9  and  C7_10
REMARK                            x       y       z     vdW  Elec       q    Type
REMARK                         _______ _______ _______ _____ _____    ______ ____
ROOT
ATOM      1  C2  UNL     1      10.322   4.726  21.575  0.00  0.00    +0.036 A 
ATOM      2  C3  UNL     1       9.544   3.613  21.990  0.00  0.00    +0.025 A 
ATOM      3  C4  UNL     1      10.117   2.332  22.096  0.00  0.00    +0.029 A 
ATOM      4  C5  UNL     1      11.463   2.199  21.768  0.00  0.00    +0.067 A 
ATOM      5  N2  UNL     1      12.215   1.092  21.776  0.00  0.00    -0.338 N 
ATOM      6  C6  UNL     1      13.434   1.519  21.348  0.00  0.00    +0.139 A 
ATOM      7  N3  UNL     1      13.466   2.853  21.073  0.00  0.00    -0.228 NA
ATOM      8  C13 UNL     1      12.214   3.253  21.349  0.00  0.00    +0.091 A 
ATOM      9  C14 UNL     1      11.683   4.535  21.231  0.00  0.00    +0.053 A 
ATOM     10  H4  UNL     1      11.906   0.130  22.036  0.00  0.00    +0.167 HD
ENDROOT
BRANCH   6  11
ATOM     11  C7  UNL     1      14.619   0.640  21.182  0.00  0.00    +0.019 A 
ATOM     12  C8  UNL     1      15.361   0.625  19.985  0.00  0.00    +0.011 A 
ATOM     13  C9  UNL     1      16.473  -0.210  19.850  0.00  0.00    +0.002 A 
ATOM     14  C10 UNL     1      16.858  -1.043  20.902  0.00  0.00    +0.020 A 
ATOM     15  C11 UNL     1      16.130  -1.042  22.095  0.00  0.00    +0.042 A 
ATOM     16 CL1  UNL     1      16.614  -2.088  23.417  0.00  0.00    -0.084 Cl
ATOM     17  C12 UNL     1      15.016  -0.207  22.235  0.00  0.00    +0.031 A 
ENDBRANCH   6  11
BRANCH   1  20
ATOM     18  O1  UNL     1      10.247   6.766  23.598  0.00  0.00    -0.270 OA
ATOM     19  C1  UNL     1       9.729   7.024  22.478  0.00  0.00    +0.248 C 
ATOM     20  N1  UNL     1       9.695   6.012  21.453  0.00  0.00    -0.281 N 
ATOM     21  H1  UNL     1       9.147   6.187  20.582  0.00  0.00    +0.155 HD
BRANCH  19  22
ATOM     22  C15 UNL     1       9.157   8.372  22.248  0.00  0.00    +0.037 A 
ATOM     23  C16 UNL     1       8.285   8.971  23.178  0.00  0.00    +0.016 A 
ATOM     24  C17 UNL     1       7.763  10.246  22.940  0.00  0.00    +0.039 A 
ATOM     25  C18 UNL     1       8.110  10.941  21.779  0.00  0.00    +0.123 A 
ATOM     26  F1  UNL     1       7.603  12.179  21.552  0.00  0.00    -0.205 F 
ATOM     27  C19 UNL     1       8.984  10.364  20.856  0.00  0.00    +0.039 A 
ATOM     28  C20 UNL     1       9.510   9.090  21.089  0.00  0.00    +0.016 A 
ENDBRANCH  19  22
ENDBRANCH   1  20
TORSDOF 3
ENDMDL
MODEL 2
REMARK VINA RESULT:    -7.057     10.147     12.215
REMARK INTER + INTRA:          -8.804
REMARK INTER:                  -8.312
REMARK INTRA:                  -0.492
REMARK UNBOUND:                -0.509
REMARK  Name = /home/qwerty/github/datacon2025hack/step_04_hit_selection/docking/ligands/lig_793.pdb
REMARK  3 active torsions:
REMARK  status: ('A' for Active; 'I' for Inactive)
REMARK    1  A    between atoms: C1_2  and  C15_20
REMARK    2  A    between atoms: N1_3  and  C2_4
REMARK    3  A    between atoms: C6_9  and  C7_10
REMARK                            x       y       z     vdW  Elec       q    Type
REMARK                         _______ _______ _______ _____ _____    ______ ____
ROOT
ATOM      1  C2  UNL     1      17.375   9.077  19.113  0.00  0.00    +0.036 A 
ATOM      2  C3  UNL     1      16.413  10.119  19.171  0.00  0.00    +0.025 A 
ATOM      3  C4  UNL     1      16.812  11.466  19.246  0.00  0.00    +0.029 A 
ATOM      4  C5  UNL     1      18.177  11.732  19.273  0.00  0.00    +0.067 A 
ATOM      5  N2  UNL     1      18.791  12.919  19.356  0.00  0.00    -0.338 N 
ATOM      6  C6  UNL     1      20.115  12.604  19.372  0.00  0.00    +0.139 A 
ATOM      7  N3  UNL     1      20.346  11.264  19.304  0.00  0.00    -0.228 NA
ATOM      8  C13 UNL     1      19.109  10.743  19.240  0.00  0.00    +0.091 A 
ATOM      9  C14 UNL     1      18.754   9.398  19.166  0.00  0.00    +0.053 A 
ATOM     10  H4  UNL     1      18.334  13.855  19.414  0.00  0.00    +0.167 HD
ENDROOT
BRANCH   6  11
ATOM     11  C7  UNL     1      21.212  13.601  19.464  0.00  0.00    +0.019 A 
ATOM     12  C8  UNL     1      21.371  14.610  18.494  0.00  0.00    +0.011 A 
ATOM     13  C9  UNL     1      22.411  15.537  18.599  0.00  0.00    +0.002 A 
ATOM     14  C10 UNL     1      23.306  15.470  19.669  0.00  0.00    +0.020 A 
ATOM     15  C11 UNL     1      23.163  14.473  20.637  0.00  0.00    +0.042 A 
ATOM     16 CL1  UNL     1      24.288  14.389  21.980  0.00  0.00    -0.084 Cl
ATOM     17  C12 UNL     1      22.124  13.542  20.535  0.00  0.00    +0.031 A 
ENDBRANCH   6  11
BRANCH   1  20
ATOM     18  O1  UNL     1      16.922   7.369  21.380  0.00  0.00    -0.270 OA
ATOM     19  C1  UNL     1      16.664   6.912  20.234  0.00  0.00    +0.248 C 
ATOM     20  N1  UNL     1      16.928   7.712  19.065  0.00  0.00    -0.281 N 
ATOM     21  H1  UNL     1      16.839   7.279  18.119  0.00  0.00    +0.155 HD
BRANCH  19  22
ATOM     22  C15 UNL     1      16.098   5.546  20.119  0.00  0.00    +0.037 A 
ATOM     23  C16 UNL     1      14.726   5.335  19.877  0.00  0.00    +0.016 A 
ATOM     24  C17 UNL     1      14.218   4.038  19.768  0.00  0.00    +0.039 A 
ATOM     25  C18 UNL     1      15.069   2.938  19.890  0.00  0.00    +0.123 A 
ATOM     26  F1  UNL     1      14.573   1.680  19.782  0.00  0.00    -0.205 F 
ATOM     27  C19 UNL     1      16.433   3.133  20.116  0.00  0.00    +0.039 A 
ATOM     28  C20 UNL     1      16.947   4.429  20.225  0.00  0.00    +0.016 A 
ENDBRANCH  19  22
ENDBRANCH   1  20
TORSDOF 3
ENDMDL
MODEL 3
REMARK VINA RESULT:    -7.057      2.309      3.208
REMARK INTER + INTRA:          -8.804
REMARK INTER:                  -8.306
REMARK INTRA:                  -0.497
REMARK UNBOUND:                -0.509
REMARK  Name = /home/qwerty/github/datacon2025hack/step_04_hit_selection/docking/ligands/lig_793.pdb
REMARK  3 active torsions:
REMARK  status: ('A' for Active; 'I' for Inactive)
REMARK    1  A    between atoms: C1_2  and  C15_20
REMARK    2  A    between atoms: N1_3  and  C2_4
REMARK    3  A    between atoms: C6_9  and  C7_10
REMARK                            x       y       z     vdW  Elec       q    Type
REMARK                         _______ _______ _______ _____ _____    ______ ____
ROOT
ATOM      1  C2  UNL     1      13.547   5.053  20.758  0.00  0.00    +0.036 A 
ATOM      2  C3  UNL     1      14.396   4.734  19.667  0.00  0.00    +0.025 A 
ATOM      3  C4  UNL     1      15.134   3.537  19.654  0.00  0.00    +0.029 A 
ATOM      4  C5  UNL     1      15.009   2.691  20.752  0.00  0.00    +0.067 A 
ATOM      5  N2  UNL     1      15.616   1.519  20.972  0.00  0.00    -0.338 N 
ATOM      6  C6  UNL     1      15.161   1.136  22.196  0.00  0.00    +0.139 A 
ATOM      7  N3  UNL     1      14.293   2.031  22.746  0.00  0.00    -0.228 NA
ATOM      8  C13 UNL     1      14.216   2.995  21.814  0.00  0.00    +0.091 A 
ATOM      9  C14 UNL     1      13.470   4.171  21.864  0.00  0.00    +0.053 A 
ATOM     10  H4  UNL     1      16.294   1.040  20.341  0.00  0.00    +0.167 HD
ENDROOT
BRANCH   6  11
ATOM     11  C7  UNL     1      15.561  -0.117  22.886  0.00  0.00    +0.019 A 
ATOM     12  C8  UNL     1      16.790  -0.747  22.609  0.00  0.00    +0.011 A 
ATOM     13  C9  UNL     1      17.146  -1.926  23.269  0.00  0.00    +0.002 A 
ATOM     14  C10 UNL     1      16.283  -2.493  24.209  0.00  0.00    +0.020 A 
ATOM     15  C11 UNL     1      15.060  -1.881  24.491  0.00  0.00    +0.042 A 
ATOM     16 CL1  UNL     1      13.976  -2.594  25.673  0.00  0.00    -0.084 Cl
ATOM     17  C12 UNL     1      14.699  -0.700  23.833  0.00  0.00    +0.031 A 
ENDBRANCH   6  11
BRANCH   1  20
ATOM     18  O1  UNL     1      10.818   5.423  19.933  0.00  0.00    -0.270 OA
ATOM     19  C1  UNL     1      11.444   6.425  20.374  0.00  0.00    +0.248 C 
ATOM     20  N1  UNL     1      12.830   6.299  20.747  0.00  0.00    -0.281 N 
ATOM     21  H1  UNL     1      13.376   7.157  20.981  0.00  0.00    +0.155 HD
BRANCH  19  22
ATOM     22  C15 UNL     1      10.731   7.720  20.489  0.00  0.00    +0.037 A 
ATOM     23  C16 UNL     1      11.234   8.893  19.893  0.00  0.00    +0.016 A 
ATOM     24  C17 UNL     1      10.540  10.101  20.012  0.00  0.00    +0.039 A 
ATOM     25  C18 UNL     1       9.336  10.153  20.717  0.00  0.00    +0.123 A 
ATOM     26  F1  UNL     1       8.664  11.326  20.830  0.00  0.00    -0.205 F 
ATOM     27  C19 UNL     1       8.820   8.994  21.302  0.00  0.00    +0.039 A 
ATOM     28  C20 UNL     1       9.509   7.783  21.185  0.00  0.00    +0.016 A 
ENDBRANCH  19  22
ENDBRANCH   1  20
TORSDOF 3
ENDMDL
MODEL 4
REMARK VINA RESULT:    -6.964     16.110     16.836
REMARK INTER + INTRA:          -8.694
REMARK INTER:                  -8.196
REMARK INTRA:                  -0.498
REMARK UNBOUND:                -0.509
REMARK  Name = /home/qwerty/github/datacon2025hack/step_04_hit_selection/docking/ligands/lig_793.pdb
REMARK  3 active torsions:
REMARK  status: ('A' for Active; 'I' for Inactive)
REMARK    1  A    between atoms: C1_2  and  C15_20
REMARK    2  A    between atoms: N1_3  and  C2_4
REMARK    3  A    between atoms: C6_9  and  C7_10
REMARK                            x       y       z     vdW  Elec       q    Type
REMARK                         _______ _______ _______ _____ _____    ______ ____
ROOT
ATOM      1  C2  UNL     1      17.209  11.733  35.613  0.00  0.00    +0.036 A 
ATOM      2  C3  UNL     1      18.117  12.639  36.222  0.00  0.00    +0.025 A 
ATOM      3  C4  UNL     1      19.466  12.287  36.414  0.00  0.00    +0.029 A 
ATOM      4  C5  UNL     1      19.867  11.021  35.999  0.00  0.00    +0.067 A 
ATOM      5  N2  UNL     1      21.079  10.461  36.091  0.00  0.00    -0.338 N 
ATOM      6  C6  UNL     1      20.909   9.218  35.565  0.00  0.00    +0.139 A 
ATOM      7  N3  UNL     1      19.632   8.983  35.151  0.00  0.00    -0.228 NA
ATOM      8  C13 UNL     1      19.002  10.136  35.435  0.00  0.00    +0.091 A 
ATOM      9  C14 UNL     1      17.660  10.446  35.228  0.00  0.00    +0.053 A 
ATOM     10  H4  UNL     1      21.937  10.895  36.495  0.00  0.00    +0.167 HD
ENDROOT
BRANCH   6  11
ATOM     11  C7  UNL     1      21.985   8.201  35.451  0.00  0.00    +0.019 A 
ATOM     12  C8  UNL     1      22.270   7.312  36.507  0.00  0.00    +0.011 A 
ATOM     13  C9  UNL     1      23.288   6.363  36.379  0.00  0.00    +0.002 A 
ATOM     14  C10 UNL     1      24.035   6.289  35.202  0.00  0.00    +0.020 A 
ATOM     15  C11 UNL     1      23.766   7.166  34.148  0.00  0.00    +0.042 A 
ATOM     16 CL1  UNL     1      24.706   7.072  32.670  0.00  0.00    -0.084 Cl
ATOM     17  C12 UNL     1      22.748   8.118  34.271  0.00  0.00    +0.031 A 
ENDBRANCH   6  11
BRANCH   1  20
ATOM     18  O1  UNL     1      15.116  11.326  37.540  0.00  0.00    -0.270 OA
ATOM     19  C1  UNL     1      14.830  11.940  36.477  0.00  0.00    +0.248 C 
ATOM     20  N1  UNL     1      15.833  12.118  35.459  0.00  0.00    -0.281 N 
ATOM     21  H1  UNL     1      15.555  12.506  34.530  0.00  0.00    +0.155 HD
BRANCH  19  22
ATOM     22  C15 UNL     1      13.453  12.460  36.299  0.00  0.00    +0.037 A 
ATOM     23  C16 UNL     1      13.199  13.644  35.579  0.00  0.00    +0.016 A 
ATOM     24  C17 UNL     1      11.891  14.111  35.421  0.00  0.00    +0.039 A 
ATOM     25  C18 UNL     1      10.821  13.401  35.971  0.00  0.00    +0.123 A 
ATOM     26  F1  UNL     1       9.553  13.856  35.814  0.00  0.00    -0.205 F 
ATOM     27  C19 UNL     1      11.058  12.220  36.676  0.00  0.00    +0.039 A 
ATOM     28  C20 UNL     1      12.364  11.747  36.836  0.00  0.00    +0.016 A 
ENDBRANCH  19  22
ENDBRANCH   1  20
TORSDOF 3
ENDMDL
MODEL 5
REMARK VINA RESULT:    -6.725     12.570     14.007
REMARK INTER + INTRA:          -8.414
REMARK INTER:                  -7.932
REMARK INTRA:                  -0.482
REMARK UNBOUND:                -0.509
REMARK  Name = /home/qwerty/github/datacon2025hack/step_04_hit_selection/docking/ligands/lig_793.pdb
REMARK  3 active torsions:
REMARK  status: ('A' for Active; 'I' for Inactive)
REMARK    1  A    between atoms: C1_2  and  C15_20
REMARK    2  A    between atoms: N1_3  and  C2_4
REMARK    3  A    between atoms: C6_9  and  C7_10
REMARK                            x       y       z     vdW  Elec       q    Type
REMARK                         _______ _______ _______ _____ _____    ______ ____
ROOT
ATOM      1  C2  UNL     1      15.354  15.352  28.300  0.00  0.00    +0.036 A 
ATOM      2  C3  UNL     1      15.851  16.141  29.370  0.00  0.00    +0.025 A 
ATOM      3  C4  UNL     1      17.228  16.400  29.495  0.00  0.00    +0.029 A 
ATOM      4  C5  UNL     1      18.077  15.845  28.542  0.00  0.00    +0.067 A 
ATOM      5  N2  UNL     1      19.410  15.938  28.462  0.00  0.00    -0.338 N 
ATOM      6  C6  UNL     1      19.726  15.194  27.368  0.00  0.00    +0.139 A 
ATOM      7  N3  UNL     1      18.637  14.640  26.765  0.00  0.00    -0.228 NA
ATOM      8  C13 UNL     1      17.616  15.070  27.525  0.00  0.00    +0.091 A 
ATOM      9  C14 UNL     1      16.260  14.790  27.368  0.00  0.00    +0.053 A 
ATOM     10  H4  UNL     1      20.040  16.453  29.114  0.00  0.00    +0.167 HD
ENDROOT
BRANCH   6  11
ATOM     11  C7  UNL     1      21.109  14.984  26.867  0.00  0.00    +0.019 A 
ATOM     12  C8  UNL     1      21.500  15.419  25.585  0.00  0.00    +0.011 A 
ATOM     13  C9  UNL     1      22.806  15.211  25.135  0.00  0.00    +0.002 A 
ATOM     14  C10 UNL     1      23.737  14.567  25.952  0.00  0.00    +0.020 A 
ATOM     15  C11 UNL     1      23.363  14.127  27.224  0.00  0.00    +0.042 A 
ATOM     16 CL1  UNL     1      24.533  13.317  28.249  0.00  0.00    -0.084 Cl
ATOM     17  C12 UNL     1      22.056  14.333  27.680  0.00  0.00    +0.031 A 
ENDBRANCH   6  11
BRANCH   1  20
ATOM     18  O1  UNL     1      13.969  13.190  29.592  0.00  0.00    -0.270 OA
ATOM     19  C1  UNL     1      13.286  14.019  28.932  0.00  0.00    +0.248 C 
ATOM     20  N1  UNL     1      13.943  15.087  28.222  0.00  0.00    -0.281 N 
ATOM     21  H1  UNL     1      13.388  15.686  27.572  0.00  0.00    +0.155 HD
BRANCH  19  22
ATOM     22  C15 UNL     1      11.812  13.867  28.898  0.00  0.00    +0.037 A 
ATOM     23  C16 UNL     1      11.089  13.959  27.692  0.00  0.00    +0.016 A 
ATOM     24  C17 UNL     1       9.699  13.806  27.686  0.00  0.00    +0.039 A 
ATOM     25  C18 UNL     1       9.016  13.552  28.877  0.00  0.00    +0.123 A 
ATOM     26  F1  UNL     1       7.667  13.403  28.868  0.00  0.00    -0.205 F 
ATOM     27  C19 UNL     1       9.722  13.446  30.077  0.00  0.00    +0.039 A 
ATOM     28  C20 UNL     1      11.111  13.596  30.089  0.00  0.00    +0.016 A 
ENDBRANCH  19  22
ENDBRANCH   1  20
TORSDOF 3
ENDMDL
MODEL 6
REMARK VINA RESULT:    -6.521      5.598      6.535
REMARK INTER + INTRA:          -8.174
REMARK INTER:                  -7.674
REMARK INTRA:                  -0.500
REMARK UNBOUND:                -0.509
REMARK  Name = /home/qwerty/github/datacon2025hack/step_04_hit_selection/docking/ligands/lig_793.pdb
REMARK  3 active torsions:
REMARK  status: ('A' for Active; 'I' for Inactive)
REMARK    1  A    between atoms: C1_2  and  C15_20
REMARK    2  A    between atoms: N1_3  and  C2_4
REMARK    3  A    between atoms: C6_9  and  C7_10
REMARK                            x       y       z     vdW  Elec       q    Type
REMARK                         _______ _______ _______ _____ _____    ______ ____
ROOT
ATOM      1  C2  UNL     1      16.187   5.389  20.025  0.00  0.00    +0.036 A 
ATOM      2  C3  UNL     1      14.917   4.987  19.535  0.00  0.00    +0.025 A 
ATOM      3  C4  UNL     1      14.360   3.749  19.905  0.00  0.00    +0.029 A 
ATOM      4  C5  UNL     1      15.105   2.935  20.753  0.00  0.00    +0.067 A 
ATOM      5  N2  UNL     1      14.796   1.721  21.224  0.00  0.00    -0.338 N 
ATOM      6  C6  UNL     1      15.876   1.374  21.976  0.00  0.00    +0.139 A 
ATOM      7  N3  UNL     1      16.848   2.329  21.987  0.00  0.00    -0.228 NA
ATOM      8  C13 UNL     1      16.333   3.298  21.211  0.00  0.00    +0.091 A 
ATOM      9  C14 UNL     1      16.917   4.515  20.868  0.00  0.00    +0.053 A 
ATOM     10  H4  UNL     1      13.926   1.180  21.028  0.00  0.00    +0.167 HD
ENDROOT
BRANCH   6  11
ATOM     11  C7  UNL     1      16.009   0.090  22.709  0.00  0.00    +0.019 A 
ATOM     12  C8  UNL     1      17.093  -0.780  22.476  0.00  0.00    +0.011 A 
ATOM     13  C9  UNL     1      17.198  -1.984  23.177  0.00  0.00    +0.002 A 
ATOM     14  C10 UNL     1      16.227  -2.338  24.116  0.00  0.00    +0.020 A 
ATOM     15  C11 UNL     1      15.145  -1.487  24.355  0.00  0.00    +0.042 A 
ATOM     16 CL1  UNL     1      13.925  -1.932  25.534  0.00  0.00    -0.084 Cl
ATOM     17  C12 UNL     1      15.035  -0.280  23.655  0.00  0.00    +0.031 A 
ENDBRANCH   6  11
BRANCH   1  20
ATOM     18  O1  UNL     1      15.915   7.894  21.407  0.00  0.00    -0.270 OA
ATOM     19  C1  UNL     1      16.615   7.870  20.358  0.00  0.00    +0.248 C 
ATOM     20  N1  UNL     1      16.734   6.649  19.603  0.00  0.00    -0.281 N 
ATOM     21  H1  UNL     1      17.201   6.670  18.670  0.00  0.00    +0.155 HD
BRANCH  19  22
ATOM     22  C15 UNL     1      17.296   9.113  19.924  0.00  0.00    +0.037 A 
ATOM     23  C16 UNL     1      16.570  10.274  19.593  0.00  0.00    +0.016 A 
ATOM     24  C17 UNL     1      17.237  11.435  19.191  0.00  0.00    +0.039 A 
ATOM     25  C18 UNL     1      18.631  11.456  19.121  0.00  0.00    +0.123 A 
ATOM     26  F1  UNL     1      19.275  12.585  18.732  0.00  0.00    -0.205 F 
ATOM     27  C19 UNL     1      19.363  10.316  19.459  0.00  0.00    +0.039 A 
ATOM     28  C20 UNL     1      18.702   9.152  19.863  0.00  0.00    +0.016 A 
ENDBRANCH  19  22
ENDBRANCH   1  20
TORSDOF 3
ENDMDL
MODEL 7
REMARK VINA RESULT:    -6.447     13.237     15.127
REMARK INTER + INTRA:          -8.087
REMARK INTER:                  -7.581
REMARK INTRA:                  -0.506
REMARK UNBOUND:                -0.509
REMARK  Name = /home/qwerty/github/datacon2025hack/step_04_hit_selection/docking/ligands/lig_793.pdb
REMARK  3 active torsions:
REMARK  status: ('A' for Active; 'I' for Inactive)
REMARK    1  A    between atoms: C1_2  and  C15_20
REMARK    2  A    between atoms: N1_3  and  C2_4
REMARK    3  A    between atoms: C6_9  and  C7_10
REMARK                            x       y       z     vdW  Elec       q    Type
REMARK                         _______ _______ _______ _____ _____    ______ ____
ROOT
ATOM      1  C2  UNL     1      12.567  13.319  33.201  0.00  0.00    +0.036 A 
ATOM      2  C3  UNL     1      12.719  14.407  34.101  0.00  0.00    +0.025 A 
ATOM      3  C4  UNL     1      13.699  14.378  35.109  0.00  0.00    +0.029 A 
ATOM      4  C5  UNL     1      14.498  13.242  35.197  0.00  0.00    +0.067 A 
ATOM      5  N2  UNL     1      15.475  12.979  36.073  0.00  0.00    -0.338 N 
ATOM      6  C6  UNL     1      15.901  11.734  35.728  0.00  0.00    +0.139 A 
ATOM      7  N3  UNL     1      15.222  11.211  34.669  0.00  0.00    -0.228 NA
ATOM      8  C13 UNL     1      14.349  12.184  34.356  0.00  0.00    +0.091 A 
ATOM      9  C14 UNL     1      13.390  12.175  33.346  0.00  0.00    +0.053 A 
ATOM     10  H4  UNL     1      15.802  13.598  36.846  0.00  0.00    +0.167 HD
ENDROOT
BRANCH   6  11
ATOM     11  C7  UNL     1      16.986  10.996  36.424  0.00  0.00    +0.019 A 
ATOM     12  C8  UNL     1      16.780  10.407  37.688  0.00  0.00    +0.011 A 
ATOM     13  C9  UNL     1      17.815   9.718  38.325  0.00  0.00    +0.002 A 
ATOM     14  C10 UNL     1      19.066   9.608  37.715  0.00  0.00    +0.020 A 
ATOM     15  C11 UNL     1      19.286  10.189  36.464  0.00  0.00    +0.042 A 
ATOM     16 CL1  UNL     1      20.858  10.051  35.699  0.00  0.00    -0.084 Cl
ATOM     17  C12 UNL     1      18.253  10.881  35.822  0.00  0.00    +0.031 A 
ENDBRANCH   6  11
BRANCH   1  20
ATOM     18  O1  UNL     1      12.864  14.324  30.525  0.00  0.00    -0.270 OA
ATOM     19  C1  UNL     1      11.748  13.840  30.854  0.00  0.00    +0.248 C 
ATOM     20  N1  UNL     1      11.536  13.375  32.202  0.00  0.00    -0.281 N 
ATOM     21  H1  UNL     1      10.574  13.103  32.502  0.00  0.00    +0.155 HD
BRANCH  19  22
ATOM     22  C15 UNL     1      10.670  13.769  29.838  0.00  0.00    +0.037 A 
ATOM     23  C16 UNL     1      10.937  13.953  28.467  0.00  0.00    +0.016 A 
ATOM     24  C17 UNL     1       9.905  13.876  27.528  0.00  0.00    +0.039 A 
ATOM     25  C18 UNL     1       8.598  13.607  27.942  0.00  0.00    +0.123 A 
ATOM     26  F1  UNL     1       7.598  13.532  27.028  0.00  0.00    -0.205 F 
ATOM     27  C19 UNL     1       8.322  13.410  29.296  0.00  0.00    +0.039 A 
ATOM     28  C20 UNL     1       9.351  13.484  30.240  0.00  0.00    +0.016 A 
ENDBRANCH  19  22
ENDBRANCH   1  20
TORSDOF 3
ENDMDL
MODEL 8
REMARK VINA RESULT:    -6.426      8.659      9.401
REMARK INTER + INTRA:          -8.062
REMARK INTER:                  -7.585
REMARK INTRA:                  -0.477
REMARK UNBOUND:                -0.509
REMARK  Name = /home/qwerty/github/datacon2025hack/step_04_hit_selection/docking/ligands/lig_793.pdb
REMARK  3 active torsions:
REMARK  status: ('A' for Active; 'I' for Inactive)
REMARK    1  A    between atoms: C1_2  and  C15_20
REMARK    2  A    between atoms: N1_3  and  C2_4
REMARK    3  A    between atoms: C6_9  and  C7_10
REMARK                            x       y       z     vdW  Elec       q    Type
REMARK                         _______ _______ _______ _____ _____    ______ ____
ROOT
ATOM      1  C2  UNL     1       7.074   5.894  28.842  0.00  0.00    +0.036 A 
ATOM      2  C3  UNL     1       5.800   5.298  28.644  0.00  0.00    +0.025 A 
ATOM      3  C4  UNL     1       5.562   3.964  29.020  0.00  0.00    +0.029 A 
ATOM      4  C5  UNL     1       6.621   3.254  29.578  0.00  0.00    +0.067 A 
ATOM      5  N2  UNL     1       6.641   1.982  29.995  0.00  0.00    -0.338 N 
ATOM      6  C6  UNL     1       7.919   1.795  30.422  0.00  0.00    +0.139 A 
ATOM      7  N3  UNL     1       8.696   2.905  30.284  0.00  0.00    -0.228 NA
ATOM      8  C13 UNL     1       7.851   3.806  29.754  0.00  0.00    +0.091 A 
ATOM      9  C14 UNL     1       8.126   5.123  29.394  0.00  0.00    +0.053 A 
ATOM     10  H4  UNL     1       5.848   1.305  29.968  0.00  0.00    +0.167 HD
ENDROOT
BRANCH   6  11
ATOM     11  C7  UNL     1       8.440   0.519  30.976  0.00  0.00    +0.019 A 
ATOM     12  C8  UNL     1       8.348   0.224  32.350  0.00  0.00    +0.011 A 
ATOM     13  C9  UNL     1       8.845  -0.983  32.850  0.00  0.00    +0.002 A 
ATOM     14  C10 UNL     1       9.441  -1.908  31.990  0.00  0.00    +0.020 A 
ATOM     15  C11 UNL     1       9.542  -1.627  30.625  0.00  0.00    +0.042 A 
ATOM     16 CL1  UNL     1      10.290  -2.789  29.546  0.00  0.00    -0.084 Cl
ATOM     17  C12 UNL     1       9.046  -0.420  30.120  0.00  0.00    +0.031 A 
ENDBRANCH   6  11
BRANCH   1  20
ATOM     18  O1  UNL     1       7.131   8.205  30.551  0.00  0.00    -0.270 OA
ATOM     19  C1  UNL     1       7.359   8.372  29.322  0.00  0.00    +0.248 C 
ATOM     20  N1  UNL     1       7.285   7.251  28.420  0.00  0.00    -0.281 N 
ATOM     21  H1  UNL     1       7.340   7.420  27.391  0.00  0.00    +0.155 HD
BRANCH  19  22
ATOM     22  C15 UNL     1       7.690   9.732  28.834  0.00  0.00    +0.037 A 
ATOM     23  C16 UNL     1       7.994   9.976  27.481  0.00  0.00    +0.016 A 
ATOM     24  C17 UNL     1       8.298  11.269  27.045  0.00  0.00    +0.039 A 
ATOM     25  C18 UNL     1       8.294  12.334  27.948  0.00  0.00    +0.123 A 
ATOM     26  F1  UNL     1       8.588  13.588  27.522  0.00  0.00    -0.205 F 
ATOM     27  C19 UNL     1       7.981  12.108  29.290  0.00  0.00    +0.039 A 
ATOM     28  C20 UNL     1       7.675  10.817  29.732  0.00  0.00    +0.016 A 
ENDBRANCH  19  22
ENDBRANCH   1  20
TORSDOF 3
ENDMDL
MODEL 9
REMARK VINA RESULT:    -6.365     10.303     13.275
REMARK INTER + INTRA:          -7.990
REMARK INTER:                  -7.496
REMARK INTRA:                  -0.494
REMARK UNBOUND:                -0.509
REMARK  Name = /home/qwerty/github/datacon2025hack/step_04_hit_selection/docking/ligands/lig_793.pdb
REMARK  3 active torsions:
REMARK  status: ('A' for Active; 'I' for Inactive)
REMARK    1  A    between atoms: C1_2  and  C15_20
REMARK    2  A    between atoms: N1_3  and  C2_4
REMARK    3  A    between atoms: C6_9  and  C7_10
REMARK                            x       y       z     vdW  Elec       q    Type
REMARK                         _______ _______ _______ _____ _____    ______ ____
ROOT
ATOM      1  C2  UNL     1      21.213   5.051  23.068  0.00  0.00    +0.036 A 
ATOM      2  C3  UNL     1      20.663   4.475  21.893  0.00  0.00    +0.025 A 
ATOM      3  C4  UNL     1      20.218   5.286  20.833  0.00  0.00    +0.029 A 
ATOM      4  C5  UNL     1      20.325   6.665  20.988  0.00  0.00    +0.067 A 
ATOM      5  N2  UNL     1      19.958   7.629  20.135  0.00  0.00    -0.338 N 
ATOM      6  C6  UNL     1      20.259   8.782  20.791  0.00  0.00    +0.139 A 
ATOM      7  N3  UNL     1      20.798   8.570  22.024  0.00  0.00    -0.228 NA
ATOM      8  C13 UNL     1      20.829   7.230  22.118  0.00  0.00    +0.091 A 
ATOM      9  C14 UNL     1      21.280   6.461  23.188  0.00  0.00    +0.053 A 
ATOM     10  H4  UNL     1      19.525   7.498  19.195  0.00  0.00    +0.167 HD
ENDROOT
BRANCH   6  11
ATOM     11  C7  UNL     1      20.024  10.143  20.245  0.00  0.00    +0.019 A 
ATOM     12  C8  UNL     1      18.774  10.516  19.713  0.00  0.00    +0.011 A 
ATOM     13  C9  UNL     1      18.575  11.801  19.204  0.00  0.00    +0.002 A 
ATOM     14  C10 UNL     1      19.618  12.731  19.215  0.00  0.00    +0.020 A 
ATOM     15  C11 UNL     1      20.864  12.374  19.736  0.00  0.00    +0.042 A 
ATOM     16 CL1  UNL     1      22.173  13.542  19.750  0.00  0.00    -0.084 Cl
ATOM     17  C12 UNL     1      21.068  11.088  20.248  0.00  0.00    +0.031 A 
ENDBRANCH   6  11
BRANCH   1  20
ATOM     18  O1  UNL     1      19.592   4.209  25.288  0.00  0.00    -0.270 OA
ATOM     19  C1  UNL     1      20.765   3.752  25.204  0.00  0.00    +0.248 C 
ATOM     20  N1  UNL     1      21.631   4.190  24.140  0.00  0.00    -0.281 N 
ATOM     21  H1  UNL     1      22.638   3.914  24.155  0.00  0.00    +0.155 HD
BRANCH  19  22
ATOM     22  C15 UNL     1      21.226   2.775  26.219  0.00  0.00    +0.037 A 
ATOM     23  C16 UNL     1      20.576   1.539  26.400  0.00  0.00    +0.016 A 
ATOM     24  C17 UNL     1      21.034   0.632  27.360  0.00  0.00    +0.039 A 
ATOM     25  C18 UNL     1      22.147   0.941  28.144  0.00  0.00    +0.123 A 
ATOM     26  F1  UNL     1      22.590   0.058  29.074  0.00  0.00    -0.205 F 
ATOM     27  C19 UNL     1      22.809   2.158  27.966  0.00  0.00    +0.039 A 
ATOM     28  C20 UNL     1      22.356   3.068  27.006  0.00  0.00    +0.016 A 
ENDBRANCH  19  22
ENDBRANCH   1  20
TORSDOF 3
ENDMDL
