REMARK  Name = /home/qwerty/github/datacon2025hack/step_04_hit_selection/docking/ligands/lig_286.pdb
REMARK  7 active torsions:
REMARK  status: ('A' for Active; 'I' for Inactive)
REMARK    1  A    between atoms: C1_1  and  C2_2
REMARK    2  A    between atoms: C2_2  and  C3_3
REMARK    3  A    between atoms: C3_3  and  C4_4
REMARK    4  A    between atoms: C3_3  and  C5_5
REMARK    5  A    between atoms: C9_12  and  C10_13
REMARK    6  A    between atoms: N4_20  and  C17_21
REMARK    7  A    between atoms: C17_21  and  C18_22
REMARK                            x       y       z     vdW  Elec       q    Type
REMARK                         _______ _______ _______ _____ _____    ______ ____
ROOT
ATOM      1  C5  UNL     1      -2.088  -1.630  -0.561  0.00  0.00    +0.138 A 
ATOM      2  N1  UNL     1      -1.210  -2.411  -1.223  0.00  0.00    -0.132 NA
ATOM      3  N2  UNL     1      -0.002  -1.919  -1.000  0.00  0.00    -0.113 NA
ATOM      4  C6  UNL     1      -0.156  -0.847  -0.200  0.00  0.00    +0.220 A 
ATOM      5  N3  UNL     1       0.952  -0.047   0.251  0.00  0.00    -0.299 N 
ATOM      6  C7  UNL     1       0.923   1.406   0.338  0.00  0.00    +0.108 C 
ATOM      7  C8  UNL     1       2.378   1.856   0.288  0.00  0.00    +0.028 C 
ATOM      8  C9  UNL     1       3.195   0.613   0.657  0.00  0.00    +0.038 C 
ATOM      9  C16 UNL     1       2.304  -0.578   0.300  0.00  0.00    +0.116 C 
ATOM     10  N4  UNL     1      -1.455  -0.645   0.119  0.00  0.00    -0.294 N 
ENDROOT
BRANCH   8  11
ATOM     11  C10 UNL     1       4.557   0.570  -0.011  0.00  0.00    -0.043 A 
ATOM     12  C11 UNL     1       4.683   0.550  -1.414  0.00  0.00    +0.004 A 
ATOM     13  C12 UNL     1       5.947   0.512  -2.011  0.00  0.00    +0.000 A 
ATOM     14  C13 UNL     1       7.096   0.493  -1.217  0.00  0.00    +0.000 A 
ATOM     15  C14 UNL     1       6.984   0.514   0.175  0.00  0.00    +0.000 A 
ATOM     16  C15 UNL     1       5.722   0.552   0.777  0.00  0.00    +0.004 A 
ENDBRANCH   8  11
BRANCH   1  17
ATOM     17  C3  UNL     1      -3.573  -1.908  -0.514  0.00  0.00    +0.054 C 
ATOM     18  C4  UNL     1      -4.070  -2.376  -1.890  0.00  0.00    +0.015 C 
BRANCH  17  20
ATOM     19  C1  UNL     1      -5.358  -3.083   0.891  0.00  0.00    +0.004 C 
ATOM     20  C2  UNL     1      -3.866  -2.943   0.592  0.00  0.00    +0.007 C 
ENDBRANCH  17  20
ENDBRANCH   1  17
BRANCH  10  21
ATOM     21  C17 UNL     1      -2.039   0.329   1.046  0.00  0.00    +0.168 C 
BRANCH  21  22
ATOM     22  C18 UNL     1      -2.358   1.613   0.344  0.00  0.00    +0.010 A 
ATOM     23  C19 UNL     1      -2.286   2.880   0.909  0.00  0.00    +0.013 A 
ATOM     24  C20 UNL     1      -2.708   3.896   0.044  0.00  0.00    +0.008 A 
ATOM     25  C21 UNL     1      -3.131   3.434  -1.196  0.00  0.00    +0.045 A 
ATOM     26  S1  UNL     1      -2.981   1.760  -1.214  0.00  0.00    -0.100 S 
ENDBRANCH  21  22
ENDBRANCH  10  21
TORSDOF 5
