MODEL 1
REMARK VINA RESULT:    -7.426      0.000      0.000
REMARK INTER + INTRA:         -10.254
REMARK INTER:                  -9.163
REMARK INTRA:                  -1.091
REMARK UNBOUND:                -1.091
REMARK  Name = /home/qwerty/github/datacon2025hack/step_04_hit_selection/docking/ligands/lig_116.pdb
REMARK  7 active torsions:
REMARK  status: ('A' for Active; 'I' for Inactive)
REMARK    1  A    between atoms: C1_1  and  O1_2
REMARK    2  A    between atoms: O1_2  and  C2_3
REMARK    3  A    between atoms: C7_8  and  O2_9
REMARK    4  A    between atoms: O2_9  and  C8_10
REMARK    5  A    between atoms: C9_11  and  C10_12
REMARK    6  A    between atoms: C11_14  and  C12_16
REMARK    7  A    between atoms: C18_24  and  C19_26
REMARK                            x       y       z     vdW  Elec       q    Type
REMARK                         _______ _______ _______ _____ _____    ______ ____
ROOT
ATOM      1  C12 UNL     1      20.239   3.693  32.763  0.00  0.00    +0.076 A 
ATOM      2  C13 UNL     1      20.924   4.670  33.498  0.00  0.00    +0.044 A 
ATOM      3  C14 UNL     1      20.060   5.360  34.352  0.00  0.00    +0.048 A 
ATOM      4  C15 UNL     1      18.786   4.936  34.342  0.00  0.00    +0.013 A 
ATOM      5  S1  UNL     1      18.623   3.636  33.299  0.00  0.00    -0.087 S 
ATOM      6  C16 UNL     1      18.054   5.355  35.562  0.00  0.00    +0.063 C 
ATOM      7  C17 UNL     1      19.132   6.176  36.327  0.00  0.00    +0.119 C 
ATOM      8  N2  UNL     1      20.342   6.151  35.492  0.00  0.00    -0.266 N 
ATOM      9  C18 UNL     1      21.630   6.631  35.908  0.00  0.00    +0.251 C 
ATOM     10  O4  UNL     1      21.914   6.644  37.137  0.00  0.00    -0.270 OA
ENDROOT
BRANCH   1  20
ATOM     11  C2  UNL     1      20.493   2.673  25.402  0.00  0.00    +0.162 A 
ATOM     12  C3  UNL     1      20.917   3.699  26.267  0.00  0.00    +0.053 A 
ATOM     13  C4  UNL     1      21.174   3.428  27.618  0.00  0.00    -0.037 A 
ATOM     14  C5  UNL     1      21.023   2.125  28.112  0.00  0.00    -0.020 A 
ATOM     15  C6  UNL     1      20.611   1.098  27.249  0.00  0.00    +0.055 A 
ATOM     16  C7  UNL     1      20.339   1.368  25.895  0.00  0.00    +0.162 A 
ATOM     17  C9  UNL     1      21.380   1.825  29.553  0.00  0.00    +0.104 C 
ATOM     18  C10 UNL     1      22.862   1.436  29.646  0.00  0.00    +0.033 C 
ATOM     19  N1  UNL     1      21.080   2.971  30.441  0.00  0.00    -0.290 N 
ATOM     20  C11 UNL     1      20.893   2.724  31.857  0.00  0.00    +0.254 C 
ATOM     21  O3  UNL     1      21.303   1.642  32.358  0.00  0.00    -0.269 OA
ATOM     22  C26 UNL     1      21.002   4.351  29.917  0.00  0.00    +0.113 C 
ATOM     23  C27 UNL     1      21.661   4.503  28.543  0.00  0.00    +0.054 C 
BRANCH  11  25
ATOM     24  C1  UNL     1      20.519   4.120  23.359  0.00  0.00    +0.277 C 
ATOM     25  O1  UNL     1      20.220   2.909  24.044  0.00  0.00    -0.491 OA
ENDBRANCH  11  25
BRANCH  16  26
ATOM     26  O2  UNL     1      19.917   0.366  25.006  0.00  0.00    -0.491 OA
ATOM     27  C8  UNL     1      18.688  -0.344  25.114  0.00  0.00    +0.277 C 
ENDBRANCH  16  26
ENDBRANCH   1  20
BRANCH   9  28
ATOM     28  C19 UNL     1      22.621   7.132  34.930  0.00  0.00    +0.041 A 
ATOM     29  C20 UNL     1      23.861   6.463  34.747  0.00  0.00    +0.017 A 
ATOM     30  C21 UNL     1      24.803   6.940  33.818  0.00  0.00    +0.050 A 
ATOM     31  C22 UNL     1      24.473   8.073  33.083  0.00  0.00    +0.166 A 
ATOM     32  C23 UNL     1      23.286   8.710  33.238  0.00  0.00    +0.167 A 
ATOM     33  C24 UNL     1      22.327   8.272  34.146  0.00  0.00    +0.062 A 
ATOM     34  O5  UNL     1      23.230   9.795  32.385  0.00  0.00    -0.453 OA
ATOM     35  C25 UNL     1      24.461   9.845  31.649  0.00  0.00    +0.466 C 
ATOM     36  O6  UNL     1      25.224   8.726  32.124  0.00  0.00    -0.453 OA
ENDBRANCH   9  28
TORSDOF 4
ENDMDL
MODEL 2
REMARK VINA RESULT:    -7.186      1.520      1.990
REMARK INTER + INTRA:          -9.957
REMARK INTER:                  -9.107
REMARK INTRA:                  -0.850
REMARK UNBOUND:                -1.091
REMARK  Name = /home/qwerty/github/datacon2025hack/step_04_hit_selection/docking/ligands/lig_116.pdb
REMARK  7 active torsions:
REMARK  status: ('A' for Active; 'I' for Inactive)
REMARK    1  A    between atoms: C1_1  and  O1_2
REMARK    2  A    between atoms: O1_2  and  C2_3
REMARK    3  A    between atoms: C7_8  and  O2_9
REMARK    4  A    between atoms: O2_9  and  C8_10
REMARK    5  A    between atoms: C9_11  and  C10_12
REMARK    6  A    between atoms: C11_14  and  C12_16
REMARK    7  A    between atoms: C18_24  and  C19_26
REMARK                            x       y       z     vdW  Elec       q    Type
REMARK                         _______ _______ _______ _____ _____    ______ ____
ROOT
ATOM      1  C12 UNL     1      18.872   4.277  34.471  0.00  0.00    +0.076 A 
ATOM      2  C13 UNL     1      19.877   5.099  34.996  0.00  0.00    +0.044 A 
ATOM      3  C14 UNL     1      19.345   6.073  35.845  0.00  0.00    +0.048 A 
ATOM      4  C15 UNL     1      18.016   6.006  36.030  0.00  0.00    +0.013 A 
ATOM      5  S1  UNL     1      17.385   4.705  35.184  0.00  0.00    -0.087 S 
ATOM      6  C16 UNL     1      17.592   6.719  37.259  0.00  0.00    +0.063 C 
ATOM      7  C17 UNL     1      18.939   7.290  37.789  0.00  0.00    +0.119 C 
ATOM      8  N2  UNL     1      19.974   6.863  36.836  0.00  0.00    -0.266 N 
ATOM      9  C18 UNL     1      21.387   7.017  37.044  0.00  0.00    +0.251 C 
ATOM     10  O4  UNL     1      21.833   7.069  38.222  0.00  0.00    -0.270 OA
ENDROOT
BRANCH   1  20
ATOM     11  C2  UNL     1      20.822   3.126  27.389  0.00  0.00    +0.162 A 
ATOM     12  C3  UNL     1      21.444   3.739  28.492  0.00  0.00    +0.053 A 
ATOM     13  C4  UNL     1      21.067   3.401  29.799  0.00  0.00    -0.037 A 
ATOM     14  C5  UNL     1      20.074   2.436  30.014  0.00  0.00    -0.020 A 
ATOM     15  C6  UNL     1      19.461   1.814  28.916  0.00  0.00    +0.055 A 
ATOM     16  C7  UNL     1      19.826   2.160  27.602  0.00  0.00    +0.162 A 
ATOM     17  C9  UNL     1      19.730   2.018  31.428  0.00  0.00    +0.104 C 
ATOM     18  C10 UNL     1      20.629   0.849  31.853  0.00  0.00    +0.033 C 
ATOM     19  N1  UNL     1      19.853   3.148  32.378  0.00  0.00    -0.290 N 
ATOM     20  C11 UNL     1      19.125   3.087  33.630  0.00  0.00    +0.254 C 
ATOM     21  O3  UNL     1      18.686   1.978  34.039  0.00  0.00    -0.269 OA
ATOM     22  C26 UNL     1      20.721   4.309  32.085  0.00  0.00    +0.113 C 
ATOM     23  C27 UNL     1      21.745   4.021  30.983  0.00  0.00    +0.054 C 
BRANCH  11  25
ATOM     24  C1  UNL     1      22.469   3.274  25.509  0.00  0.00    +0.277 C 
ATOM     25  O1  UNL     1      21.169   3.444  26.065  0.00  0.00    -0.491 OA
ENDBRANCH  11  25
BRANCH  16  26
ATOM     26  O2  UNL     1      19.227   1.563  26.480  0.00  0.00    -0.491 OA
ATOM     27  C8  UNL     1      19.668   0.350  25.879  0.00  0.00    +0.277 C 
ENDBRANCH  16  26
ENDBRANCH   1  20
BRANCH   9  28
ATOM     28  C19 UNL     1      22.326   7.141  35.908  0.00  0.00    +0.041 A 
ATOM     29  C20 UNL     1      23.304   6.139  35.663  0.00  0.00    +0.017 A 
ATOM     30  C21 UNL     1      24.196   6.257  34.582  0.00  0.00    +0.050 A 
ATOM     31  C22 UNL     1      24.079   7.374  33.762  0.00  0.00    +0.166 A 
ATOM     32  C23 UNL     1      23.140   8.328  33.977  0.00  0.00    +0.167 A 
ATOM     33  C24 UNL     1      22.238   8.251  35.035  0.00  0.00    +0.062 A 
ATOM     34  O5  UNL     1      23.255   9.313  33.016  0.00  0.00    -0.453 OA
ATOM     35  C25 UNL     1      24.337   8.957  32.143  0.00  0.00    +0.466 C 
ATOM     36  O6  UNL     1      24.833   7.711  32.654  0.00  0.00    -0.453 OA
ENDBRANCH   9  28
TORSDOF 4
ENDMDL
MODEL 3
REMARK VINA RESULT:    -7.112     12.411     16.272
REMARK INTER + INTRA:          -9.866
REMARK INTER:                  -8.919
REMARK INTRA:                  -0.947
REMARK UNBOUND:                -1.091
REMARK  Name = /home/qwerty/github/datacon2025hack/step_04_hit_selection/docking/ligands/lig_116.pdb
REMARK  7 active torsions:
REMARK  status: ('A' for Active; 'I' for Inactive)
REMARK    1  A    between atoms: C1_1  and  O1_2
REMARK    2  A    between atoms: O1_2  and  C2_3
REMARK    3  A    between atoms: C7_8  and  O2_9
REMARK    4  A    between atoms: O2_9  and  C8_10
REMARK    5  A    between atoms: C9_11  and  C10_12
REMARK    6  A    between atoms: C11_14  and  C12_16
REMARK    7  A    between atoms: C18_24  and  C19_26
REMARK                            x       y       z     vdW  Elec       q    Type
REMARK                         _______ _______ _______ _____ _____    ______ ____
ROOT
ATOM      1  C12 UNL     1       9.182   8.456  26.775  0.00  0.00    +0.076 A 
ATOM      2  C13 UNL     1       8.965   8.072  25.445  0.00  0.00    +0.044 A 
ATOM      3  C14 UNL     1       9.356   6.748  25.228  0.00  0.00    +0.048 A 
ATOM      4  C15 UNL     1       9.807   6.100  26.315  0.00  0.00    +0.013 A 
ATOM      5  S1  UNL     1       9.723   7.101  27.656  0.00  0.00    -0.087 S 
ATOM      6  C16 UNL     1       9.750   4.628  26.143  0.00  0.00    +0.063 C 
ATOM      7  C17 UNL     1       9.206   4.487  24.693  0.00  0.00    +0.119 C 
ATOM      8  N2  UNL     1       9.013   5.854  24.187  0.00  0.00    -0.266 N 
ATOM      9  C18 UNL     1       8.351   6.181  22.955  0.00  0.00    +0.251 C 
ATOM     10  O4  UNL     1       7.489   5.388  22.490  0.00  0.00    -0.270 OA
ENDROOT
BRANCH   1  20
ATOM     11  C2  UNL     1      12.710  14.296  29.730  0.00  0.00    +0.162 A 
ATOM     12  C3  UNL     1      12.700  13.696  28.457  0.00  0.00    +0.053 A 
ATOM     13  C4  UNL     1      11.608  12.919  28.048  0.00  0.00    -0.037 A 
ATOM     14  C5  UNL     1      10.510  12.747  28.902  0.00  0.00    -0.020 A 
ATOM     15  C6  UNL     1      10.513  13.355  30.166  0.00  0.00    +0.055 A 
ATOM     16  C7  UNL     1      11.613  14.125  30.588  0.00  0.00    +0.162 A 
ATOM     17  C9  UNL     1       9.301  11.974  28.421  0.00  0.00    +0.104 C 
ATOM     18  C10 UNL     1       8.317  12.931  27.733  0.00  0.00    +0.033 C 
ATOM     19  N1  UNL     1       9.683  10.870  27.510  0.00  0.00    -0.290 N 
ATOM     20  C11 UNL     1       8.769   9.757  27.343  0.00  0.00    +0.254 C 
ATOM     21  O3  UNL     1       7.563   9.888  27.686  0.00  0.00    -0.269 OA
ATOM     22  C26 UNL     1      10.954  10.900  26.755  0.00  0.00    +0.113 C 
ATOM     23  C27 UNL     1      11.568  12.302  26.681  0.00  0.00    +0.054 C 
BRANCH  11  25
ATOM     24  C1  UNL     1      15.092  15.058  29.602  0.00  0.00    +0.277 C 
ATOM     25  O1  UNL     1      13.790  15.076  30.177  0.00  0.00    -0.491 OA
ENDBRANCH  11  25
BRANCH  16  26
ATOM     26  O2  UNL     1      11.652  14.740  31.850  0.00  0.00    -0.491 OA
ATOM     27  C8  UNL     1      11.703  14.039  33.088  0.00  0.00    +0.277 C 
ENDBRANCH  16  26
ENDBRANCH   1  20
BRANCH   9  28
ATOM     28  C19 UNL     1       8.677   7.415  22.207  0.00  0.00    +0.041 A 
ATOM     29  C20 UNL     1       7.839   8.559  22.296  0.00  0.00    +0.017 A 
ATOM     30  C21 UNL     1       8.149   9.732  21.585  0.00  0.00    +0.050 A 
ATOM     31  C22 UNL     1       9.303   9.735  20.809  0.00  0.00    +0.166 A 
ATOM     32  C23 UNL     1      10.119   8.655  20.730  0.00  0.00    +0.167 A 
ATOM     33  C24 UNL     1       9.849   7.475  21.417  0.00  0.00    +0.062 A 
ATOM     34  O5  UNL     1      11.182   8.940  19.895  0.00  0.00    -0.453 OA
ATOM     35  C25 UNL     1      11.022  10.283  19.416  0.00  0.00    +0.466 C 
ATOM     36  O6  UNL     1       9.812  10.755  20.027  0.00  0.00    -0.453 OA
ENDBRANCH   9  28
TORSDOF 4
ENDMDL
MODEL 4
REMARK VINA RESULT:    -7.058     12.147     16.459
REMARK INTER + INTRA:          -9.800
REMARK INTER:                  -9.076
REMARK INTRA:                  -0.724
REMARK UNBOUND:                -1.091
REMARK  Name = /home/qwerty/github/datacon2025hack/step_04_hit_selection/docking/ligands/lig_116.pdb
REMARK  7 active torsions:
REMARK  status: ('A' for Active; 'I' for Inactive)
REMARK    1  A    between atoms: C1_1  and  O1_2
REMARK    2  A    between atoms: O1_2  and  C2_3
REMARK    3  A    between atoms: C7_8  and  O2_9
REMARK    4  A    between atoms: O2_9  and  C8_10
REMARK    5  A    between atoms: C9_11  and  C10_12
REMARK    6  A    between atoms: C11_14  and  C12_16
REMARK    7  A    between atoms: C18_24  and  C19_26
REMARK                            x       y       z     vdW  Elec       q    Type
REMARK                         _______ _______ _______ _____ _____    ______ ____
ROOT
ATOM      1  C12 UNL     1       7.918   9.233  24.989  0.00  0.00    +0.076 A 
ATOM      2  C13 UNL     1       8.862   8.534  24.224  0.00  0.00    +0.044 A 
ATOM      3  C14 UNL     1       8.837   8.944  22.889  0.00  0.00    +0.048 A 
ATOM      4  C15 UNL     1       7.973   9.934  22.610  0.00  0.00    +0.013 A 
ATOM      5  S1  UNL     1       7.188  10.420  24.009  0.00  0.00    -0.087 S 
ATOM      6  C16 UNL     1       8.318  10.630  21.348  0.00  0.00    +0.063 C 
ATOM      7  C17 UNL     1       9.565   9.835  20.864  0.00  0.00    +0.119 C 
ATOM      8  N2  UNL     1       9.804   8.787  21.868  0.00  0.00    -0.266 N 
ATOM      9  C18 UNL     1      10.966   7.945  21.906  0.00  0.00    +0.251 C 
ATOM     10  O4  UNL     1      12.045   8.362  21.404  0.00  0.00    -0.270 OA
ENDROOT
BRANCH   1  20
ATOM     11  C2  UNL     1      10.843  12.667  30.900  0.00  0.00    +0.162 A 
ATOM     12  C3  UNL     1      10.020  13.076  29.834  0.00  0.00    +0.053 A 
ATOM     13  C4  UNL     1       9.243  12.140  29.138  0.00  0.00    -0.037 A 
ATOM     14  C5  UNL     1       9.271  10.790  29.511  0.00  0.00    -0.020 A 
ATOM     15  C6  UNL     1      10.081  10.382  30.581  0.00  0.00    +0.055 A 
ATOM     16  C7  UNL     1      10.874  11.315  31.275  0.00  0.00    +0.162 A 
ATOM     17  C9  UNL     1       8.368   9.799  28.807  0.00  0.00    +0.104 C 
ATOM     18  C10 UNL     1       7.016   9.729  29.531  0.00  0.00    +0.033 C 
ATOM     19  N1  UNL     1       8.181  10.148  27.379  0.00  0.00    -0.290 N 
ATOM     20  C11 UNL     1       7.778   9.106  26.456  0.00  0.00    +0.254 C 
ATOM     21  O3  UNL     1       7.277   8.039  26.904  0.00  0.00    -0.269 OA
ATOM     22  C26 UNL     1       8.368  11.531  26.894  0.00  0.00    +0.113 C 
ATOM     23  C27 UNL     1       8.336  12.566  28.022  0.00  0.00    +0.054 C 
BRANCH  11  25
ATOM     24  C1  UNL     1      11.170  14.402  32.675  0.00  0.00    +0.277 C 
ATOM     25  O1  UNL     1      11.640  13.576  31.616  0.00  0.00    -0.491 OA
ENDBRANCH  11  25
BRANCH  16  26
ATOM     26  O2  UNL     1      11.702  10.940  32.345  0.00  0.00    -0.491 OA
ATOM     27  C8  UNL     1      11.277  10.848  33.701  0.00  0.00    +0.277 C 
ENDBRANCH  16  26
ENDBRANCH   1  20
BRANCH   9  28
ATOM     28  C19 UNL     1      10.919   6.590  22.498  0.00  0.00    +0.041 A 
ATOM     29  C20 UNL     1      11.706   6.268  23.636  0.00  0.00    +0.017 A 
ATOM     30  C21 UNL     1      11.661   4.980  24.198  0.00  0.00    +0.050 A 
ATOM     31  C22 UNL     1      10.815   4.044  23.612  0.00  0.00    +0.166 A 
ATOM     32  C23 UNL     1      10.048   4.345  22.535  0.00  0.00    +0.167 A 
ATOM     33  C24 UNL     1      10.062   5.607  21.947  0.00  0.00    +0.062 A 
ATOM     34  O5  UNL     1       9.313   3.234  22.168  0.00  0.00    -0.453 OA
ATOM     35  C25 UNL     1       9.642   2.167  23.069  0.00  0.00    +0.466 C 
ATOM     36  O6  UNL     1      10.602   2.729  23.976  0.00  0.00    -0.453 OA
ENDBRANCH   9  28
TORSDOF 4
ENDMDL
MODEL 5
REMARK VINA RESULT:    -6.859      4.513     11.948
REMARK INTER + INTRA:          -9.554
REMARK INTER:                  -8.696
REMARK INTRA:                  -0.858
REMARK UNBOUND:                -1.091
REMARK  Name = /home/qwerty/github/datacon2025hack/step_04_hit_selection/docking/ligands/lig_116.pdb
REMARK  7 active torsions:
REMARK  status: ('A' for Active; 'I' for Inactive)
REMARK    1  A    between atoms: C1_1  and  O1_2
REMARK    2  A    between atoms: O1_2  and  C2_3
REMARK    3  A    between atoms: C7_8  and  O2_9
REMARK    4  A    between atoms: O2_9  and  C8_10
REMARK    5  A    between atoms: C9_11  and  C10_12
REMARK    6  A    between atoms: C11_14  and  C12_16
REMARK    7  A    between atoms: C18_24  and  C19_26
REMARK                            x       y       z     vdW  Elec       q    Type
REMARK                         _______ _______ _______ _____ _____    ______ ____
ROOT
ATOM      1  C12 UNL     1      18.264   3.664  23.134  0.00  0.00    +0.076 A 
ATOM      2  C13 UNL     1      17.595   2.533  22.650  0.00  0.00    +0.044 A 
ATOM      3  C14 UNL     1      16.508   2.890  21.848  0.00  0.00    +0.048 A 
ATOM      4  C15 UNL     1      16.347   4.211  21.659  0.00  0.00    +0.013 A 
ATOM      5  S1  UNL     1      17.566   5.054  22.441  0.00  0.00    -0.087 S 
ATOM      6  C16 UNL     1      15.518   4.501  20.465  0.00  0.00    +0.063 C 
ATOM      7  C17 UNL     1      15.151   3.074  19.964  0.00  0.00    +0.119 C 
ATOM      8  N2  UNL     1      15.786   2.131  20.897  0.00  0.00    -0.266 N 
ATOM      9  C18 UNL     1      15.856   0.711  20.698  0.00  0.00    +0.251 C 
ATOM     10  O4  UNL     1      15.822   0.251  19.525  0.00  0.00    -0.270 OA
ENDROOT
BRANCH   1  20
ATOM     11  C2  UNL     1      20.038   2.098  30.184  0.00  0.00    +0.162 A 
ATOM     12  C3  UNL     1      19.475   1.361  29.125  0.00  0.00    +0.053 A 
ATOM     13  C4  UNL     1      19.688   1.750  27.796  0.00  0.00    -0.037 A 
ATOM     14  C5  UNL     1      20.479   2.872  27.513  0.00  0.00    -0.020 A 
ATOM     15  C6  UNL     1      21.052   3.601  28.566  0.00  0.00    +0.055 A 
ATOM     16  C7  UNL     1      20.829   3.222  29.903  0.00  0.00    +0.162 A 
ATOM     17  C9  UNL     1      20.771   3.239  26.073  0.00  0.00    +0.104 C 
ATOM     18  C10 UNL     1      22.042   2.517  25.605  0.00  0.00    +0.033 C 
ATOM     19  N1  UNL     1      19.629   2.921  25.185  0.00  0.00    -0.290 N 
ATOM     20  C11 UNL     1      19.518   3.616  23.918  0.00  0.00    +0.254 C 
ATOM     21  O3  UNL     1      20.526   4.208  23.444  0.00  0.00    -0.269 OA
ATOM     22  C26 UNL     1      18.630   1.895  25.553  0.00  0.00    +0.113 C 
ATOM     23  C27 UNL     1      19.123   0.955  26.657  0.00  0.00    +0.054 C 
BRANCH  11  25
ATOM     24  C1  UNL     1      20.378   0.573  32.141  0.00  0.00    +0.277 C 
ATOM     25  O1  UNL     1      19.841   1.741  31.528  0.00  0.00    -0.491 OA
ENDBRANCH  11  25
BRANCH  16  26
ATOM     26  O2  UNL     1      21.380   3.935  30.981  0.00  0.00    -0.491 OA
ATOM     27  C8  UNL     1      21.564   5.346  31.006  0.00  0.00    +0.277 C 
ENDBRANCH  16  26
ENDBRANCH   1  20
BRANCH   9  28
ATOM     28  C19 UNL     1      15.942  -0.226  21.840  0.00  0.00    +0.041 A 
ATOM     29  C20 UNL     1      17.082  -1.056  22.013  0.00  0.00    +0.017 A 
ATOM     30  C21 UNL     1      17.163  -1.946  23.099  0.00  0.00    +0.050 A 
ATOM     31  C22 UNL     1      16.101  -1.974  23.996  0.00  0.00    +0.166 A 
ATOM     32  C23 UNL     1      15.015  -1.175  23.850  0.00  0.00    +0.167 A 
ATOM     33  C24 UNL     1      14.894  -0.281  22.790  0.00  0.00    +0.062 A 
ATOM     34  O5  UNL     1      14.125  -1.413  24.879  0.00  0.00    -0.453 OA
ATOM     35  C25 UNL     1      14.686  -2.428  25.724  0.00  0.00    +0.466 C 
ATOM     36  O6  UNL     1      15.948  -2.756  25.125  0.00  0.00    -0.453 OA
ENDBRANCH   9  28
TORSDOF 4
ENDMDL
MODEL 6
REMARK VINA RESULT:    -6.819     11.315     14.075
REMARK INTER + INTRA:          -9.504
REMARK INTER:                  -8.768
REMARK INTRA:                  -0.736
REMARK UNBOUND:                -1.091
REMARK  Name = /home/qwerty/github/datacon2025hack/step_04_hit_selection/docking/ligands/lig_116.pdb
REMARK  7 active torsions:
REMARK  status: ('A' for Active; 'I' for Inactive)
REMARK    1  A    between atoms: C1_1  and  O1_2
REMARK    2  A    between atoms: O1_2  and  C2_3
REMARK    3  A    between atoms: C7_8  and  O2_9
REMARK    4  A    between atoms: O2_9  and  C8_10
REMARK    5  A    between atoms: C9_11  and  C10_12
REMARK    6  A    between atoms: C11_14  and  C12_16
REMARK    7  A    between atoms: C18_24  and  C19_26
REMARK                            x       y       z     vdW  Elec       q    Type
REMARK                         _______ _______ _______ _____ _____    ______ ____
ROOT
ATOM      1  C12 UNL     1      13.851   0.290  25.007  0.00  0.00    +0.076 A 
ATOM      2  C13 UNL     1      14.433   0.437  23.742  0.00  0.00    +0.044 A 
ATOM      3  C14 UNL     1      15.646  -0.250  23.658  0.00  0.00    +0.048 A 
ATOM      4  C15 UNL     1      15.989  -0.942  24.757  0.00  0.00    +0.013 A 
ATOM      5  S1  UNL     1      14.794  -0.794  25.923  0.00  0.00    -0.087 S 
ATOM      6  C16 UNL     1      16.990  -1.995  24.459  0.00  0.00    +0.063 C 
ATOM      7  C17 UNL     1      17.239  -1.789  22.937  0.00  0.00    +0.119 C 
ATOM      8  N2  UNL     1      16.383  -0.668  22.524  0.00  0.00    -0.266 N 
ATOM      9  C18 UNL     1      16.167  -0.266  21.162  0.00  0.00    +0.251 C 
ATOM     10  O4  UNL     1      16.290  -1.119  20.242  0.00  0.00    -0.270 OA
ENDROOT
BRANCH   1  20
ATOM     11  C2  UNL     1       8.915   4.882  21.870  0.00  0.00    +0.162 A 
ATOM     12  C3  UNL     1       9.459   3.634  21.515  0.00  0.00    +0.053 A 
ATOM     13  C4  UNL     1       9.994   2.787  22.496  0.00  0.00    -0.037 A 
ATOM     14  C5  UNL     1       9.975   3.176  23.842  0.00  0.00    -0.020 A 
ATOM     15  C6  UNL     1       9.422   4.415  24.200  0.00  0.00    +0.055 A 
ATOM     16  C7  UNL     1       8.897   5.274  23.217  0.00  0.00    +0.162 A 
ATOM     17  C9  UNL     1      10.481   2.222  24.904  0.00  0.00    +0.104 C 
ATOM     18  C10 UNL     1       9.327   1.332  25.389  0.00  0.00    +0.033 C 
ATOM     19  N1  UNL     1      11.607   1.398  24.408  0.00  0.00    -0.290 N 
ATOM     20  C11 UNL     1      12.513   0.805  25.372  0.00  0.00    +0.254 C 
ATOM     21  O3  UNL     1      12.160   0.710  26.579  0.00  0.00    -0.269 OA
ATOM     22  C26 UNL     1      11.801   1.148  22.964  0.00  0.00    +0.113 C 
ATOM     23  C27 UNL     1      10.545   1.440  22.137  0.00  0.00    +0.054 C 
BRANCH  11  25
ATOM     24  C1  UNL     1       7.017   5.756  20.490  0.00  0.00    +0.277 C 
ATOM     25  O1  UNL     1       8.377   5.759  20.914  0.00  0.00    -0.491 OA
ENDBRANCH  11  25
BRANCH  16  26
ATOM     26  O2  UNL     1       8.344   6.524  23.540  0.00  0.00    -0.491 OA
ATOM     27  C8  UNL     1       9.090   7.637  24.022  0.00  0.00    +0.277 C 
ENDBRANCH  16  26
ENDBRANCH   1  20
BRANCH   9  28
ATOM     28  C19 UNL     1      15.827   1.131  20.813  0.00  0.00    +0.041 A 
ATOM     29  C20 UNL     1      16.807   2.157  20.892  0.00  0.00    +0.017 A 
ATOM     30  C21 UNL     1      16.483   3.485  20.561  0.00  0.00    +0.050 A 
ATOM     31  C22 UNL     1      15.183   3.752  20.145  0.00  0.00    +0.166 A 
ATOM     32  C23 UNL     1      14.244   2.778  20.052  0.00  0.00    +0.167 A 
ATOM     33  C24 UNL     1      14.522   1.452  20.370  0.00  0.00    +0.062 A 
ATOM     34  O5  UNL     1      13.053   3.326  19.616  0.00  0.00    -0.453 OA
ATOM     35  C25 UNL     1      13.256   4.734  19.427  0.00  0.00    +0.466 C 
ATOM     36  O6  UNL     1      14.629   4.962  19.773  0.00  0.00    -0.453 OA
ENDBRANCH   9  28
TORSDOF 4
ENDMDL
MODEL 7
REMARK VINA RESULT:    -6.737      5.927     11.444
REMARK INTER + INTRA:          -9.403
REMARK INTER:                  -8.336
REMARK INTRA:                  -1.067
REMARK UNBOUND:                -1.091
REMARK  Name = /home/qwerty/github/datacon2025hack/step_04_hit_selection/docking/ligands/lig_116.pdb
REMARK  7 active torsions:
REMARK  status: ('A' for Active; 'I' for Inactive)
REMARK    1  A    between atoms: C1_1  and  O1_2
REMARK    2  A    between atoms: O1_2  and  C2_3
REMARK    3  A    between atoms: C7_8  and  O2_9
REMARK    4  A    between atoms: O2_9  and  C8_10
REMARK    5  A    between atoms: C9_11  and  C10_12
REMARK    6  A    between atoms: C11_14  and  C12_16
REMARK    7  A    between atoms: C18_24  and  C19_26
REMARK                            x       y       z     vdW  Elec       q    Type
REMARK                         _______ _______ _______ _____ _____    ______ ____
ROOT
ATOM      1  C12 UNL     1      17.086   1.945  23.840  0.00  0.00    +0.076 A 
ATOM      2  C13 UNL     1      16.572   2.672  22.759  0.00  0.00    +0.044 A 
ATOM      3  C14 UNL     1      16.365   1.852  21.648  0.00  0.00    +0.048 A 
ATOM      4  C15 UNL     1      16.643   0.552  21.837  0.00  0.00    +0.013 A 
ATOM      5  S1  UNL     1      17.136   0.295  23.418  0.00  0.00    -0.087 S 
ATOM      6  C16 UNL     1      15.976  -0.309  20.830  0.00  0.00    +0.063 C 
ATOM      7  C17 UNL     1      15.249   0.736  19.935  0.00  0.00    +0.119 C 
ATOM      8  N2  UNL     1      15.565   2.057  20.498  0.00  0.00    -0.266 N 
ATOM      9  C18 UNL     1      14.948   3.287  20.087  0.00  0.00    +0.251 C 
ATOM     10  O4  UNL     1      13.789   3.258  19.593  0.00  0.00    -0.270 OA
ENDROOT
BRANCH   1  20
ATOM     11  C2  UNL     1      22.511   1.551  28.910  0.00  0.00    +0.162 A 
ATOM     12  C3  UNL     1      22.424   2.061  27.601  0.00  0.00    +0.053 A 
ATOM     13  C4  UNL     1      21.184   2.430  27.064  0.00  0.00    -0.037 A 
ATOM     14  C5  UNL     1      20.021   2.305  27.835  0.00  0.00    -0.020 A 
ATOM     15  C6  UNL     1      20.106   1.809  29.145  0.00  0.00    +0.055 A 
ATOM     16  C7  UNL     1      21.348   1.424  29.684  0.00  0.00    +0.162 A 
ATOM     17  C9  UNL     1      18.697   2.781  27.276  0.00  0.00    +0.104 C 
ATOM     18  C10 UNL     1      18.491   4.261  27.629  0.00  0.00    +0.033 C 
ATOM     19  N1  UNL     1      18.615   2.574  25.812  0.00  0.00    -0.290 N 
ATOM     20  C11 UNL     1      17.306   2.506  25.191  0.00  0.00    +0.254 C 
ATOM     21  O3  UNL     1      16.301   2.945  25.812  0.00  0.00    -0.269 OA
ATOM     22  C26 UNL     1      19.832   2.468  24.980  0.00  0.00    +0.113 C 
ATOM     23  C27 UNL     1      21.081   3.007  25.683  0.00  0.00    +0.054 C 
BRANCH  11  25
ATOM     24  C1  UNL     1      24.476   0.010  29.098  0.00  0.00    +0.277 C 
ATOM     25  O1  UNL     1      23.736   1.165  29.480  0.00  0.00    -0.491 OA
ENDBRANCH  11  25
BRANCH  16  26
ATOM     26  O2  UNL     1      21.468   0.915  30.988  0.00  0.00    -0.491 OA
ATOM     27  C8  UNL     1      20.386   0.397  31.755  0.00  0.00    +0.277 C 
ENDBRANCH  16  26
ENDBRANCH   1  20
BRANCH   9  28
ATOM     28  C19 UNL     1      15.652   4.582  20.209  0.00  0.00    +0.041 A 
ATOM     29  C20 UNL     1      16.871   4.813  19.518  0.00  0.00    +0.017 A 
ATOM     30  C21 UNL     1      17.540   6.044  19.635  0.00  0.00    +0.050 A 
ATOM     31  C22 UNL     1      16.962   7.024  20.434  0.00  0.00    +0.166 A 
ATOM     32  C23 UNL     1      15.790   6.821  21.086  0.00  0.00    +0.167 A 
ATOM     33  C24 UNL     1      15.096   5.617  20.999  0.00  0.00    +0.062 A 
ATOM     34  O5  UNL     1      15.457   7.956  21.799  0.00  0.00    -0.453 OA
ATOM     35  C25 UNL     1      16.485   8.933  21.584  0.00  0.00    +0.466 C 
ATOM     36  O6  UNL     1      17.424   8.298  20.705  0.00  0.00    -0.453 OA
ENDBRANCH   9  28
TORSDOF 4
ENDMDL
MODEL 8
REMARK VINA RESULT:    -6.726     11.663     14.274
REMARK INTER + INTRA:          -9.389
REMARK INTER:                  -8.672
REMARK INTRA:                  -0.717
REMARK UNBOUND:                -1.091
REMARK  Name = /home/qwerty/github/datacon2025hack/step_04_hit_selection/docking/ligands/lig_116.pdb
REMARK  7 active torsions:
REMARK  status: ('A' for Active; 'I' for Inactive)
REMARK    1  A    between atoms: C1_1  and  O1_2
REMARK    2  A    between atoms: O1_2  and  C2_3
REMARK    3  A    between atoms: C7_8  and  O2_9
REMARK    4  A    between atoms: O2_9  and  C8_10
REMARK    5  A    between atoms: C9_11  and  C10_12
REMARK    6  A    between atoms: C11_14  and  C12_16
REMARK    7  A    between atoms: C18_24  and  C19_26
REMARK                            x       y       z     vdW  Elec       q    Type
REMARK                         _______ _______ _______ _____ _____    ______ ____
ROOT
ATOM      1  C12 UNL     1      12.550   1.826  23.819  0.00  0.00    +0.076 A 
ATOM      2  C13 UNL     1      13.454   1.941  22.754  0.00  0.00    +0.044 A 
ATOM      3  C14 UNL     1      14.434   0.947  22.811  0.00  0.00    +0.048 A 
ATOM      4  C15 UNL     1      14.300   0.068  23.818  0.00  0.00    +0.013 A 
ATOM      5  S1  UNL     1      12.925   0.421  24.708  0.00  0.00    -0.087 S 
ATOM      6  C16 UNL     1      15.044  -1.188  23.558  0.00  0.00    +0.063 C 
ATOM      7  C17 UNL     1      15.717  -0.894  22.186  0.00  0.00    +0.119 C 
ATOM      8  N2  UNL     1      15.306   0.466  21.805  0.00  0.00    -0.266 N 
ATOM      9  C18 UNL     1      15.551   1.063  20.523  0.00  0.00    +0.251 C 
ATOM     10  O4  UNL     1      15.686   0.319  19.514  0.00  0.00    -0.270 OA
ENDROOT
BRANCH   1  20
ATOM     11  C2  UNL     1      10.068   8.163  20.824  0.00  0.00    +0.162 A 
ATOM     12  C3  UNL     1      10.362   6.884  20.315  0.00  0.00    +0.053 A 
ATOM     13  C4  UNL     1      10.355   5.765  21.158  0.00  0.00    -0.037 A 
ATOM     14  C5  UNL     1      10.040   5.913  22.516  0.00  0.00    -0.020 A 
ATOM     15  C6  UNL     1       9.736   7.185  23.024  0.00  0.00    +0.055 A 
ATOM     16  C7  UNL     1       9.755   8.314  22.183  0.00  0.00    +0.162 A 
ATOM     17  C9  UNL     1       9.956   4.689  23.403  0.00  0.00    +0.104 C 
ATOM     18  C10 UNL     1       8.527   4.129  23.374  0.00  0.00    +0.033 C 
ATOM     19  N1  UNL     1      10.934   3.652  22.999  0.00  0.00    -0.290 N 
ATOM     20  C11 UNL     1      11.338   2.659  23.975  0.00  0.00    +0.254 C 
ATOM     21  O3  UNL     1      10.635   2.480  25.006  0.00  0.00    -0.269 OA
ATOM     22  C26 UNL     1      11.474   3.597  21.624  0.00  0.00    +0.113 C 
ATOM     23  C27 UNL     1      10.631   4.392  20.622  0.00  0.00    +0.054 C 
BRANCH  11  25
ATOM     24  C1  UNL     1      11.246   9.978  19.564  0.00  0.00    +0.277 C 
ATOM     25  O1  UNL     1      10.072   9.308  20.010  0.00  0.00    -0.491 OA
ENDBRANCH  11  25
BRANCH  16  26
ATOM     26  O2  UNL     1       9.464   9.603  22.660  0.00  0.00    -0.491 OA
ATOM     27  C8  UNL     1       8.150  10.099  22.893  0.00  0.00    +0.277 C 
ENDBRANCH  16  26
ENDBRANCH   1  20
BRANCH   9  28
ATOM     28  C19 UNL     1      15.675   2.528  20.363  0.00  0.00    +0.041 A 
ATOM     29  C20 UNL     1      14.636   3.281  19.752  0.00  0.00    +0.017 A 
ATOM     30  C21 UNL     1      14.754   4.674  19.601  0.00  0.00    +0.050 A 
ATOM     31  C22 UNL     1      15.909   5.284  20.079  0.00  0.00    +0.166 A 
ATOM     32  C23 UNL     1      16.899   4.578  20.678  0.00  0.00    +0.167 A 
ATOM     33  C24 UNL     1      16.823   3.198  20.847  0.00  0.00    +0.062 A 
ATOM     34  O5  UNL     1      17.916   5.435  21.050  0.00  0.00    -0.453 OA
ATOM     35  C25 UNL     1      17.543   6.764  20.658  0.00  0.00    +0.466 C 
ATOM     36  O6  UNL     1      16.254   6.622  20.044  0.00  0.00    -0.453 OA
ENDBRANCH   9  28
TORSDOF 4
ENDMDL
MODEL 9
REMARK VINA RESULT:    -6.709      2.638      9.360
REMARK INTER + INTRA:          -9.369
REMARK INTER:                  -9.233
REMARK INTRA:                  -0.136
REMARK UNBOUND:                -1.091
REMARK  Name = /home/qwerty/github/datacon2025hack/step_04_hit_selection/docking/ligands/lig_116.pdb
REMARK  7 active torsions:
REMARK  status: ('A' for Active; 'I' for Inactive)
REMARK    1  A    between atoms: C1_1  and  O1_2
REMARK    2  A    between atoms: O1_2  and  C2_3
REMARK    3  A    between atoms: C7_8  and  O2_9
REMARK    4  A    between atoms: O2_9  and  C8_10
REMARK    5  A    between atoms: C9_11  and  C10_12
REMARK    6  A    between atoms: C11_14  and  C12_16
REMARK    7  A    between atoms: C18_24  and  C19_26
REMARK                            x       y       z     vdW  Elec       q    Type
REMARK                         _______ _______ _______ _____ _____    ______ ____
ROOT
ATOM      1  C12 UNL     1      21.819   4.452  31.801  0.00  0.00    +0.076 A 
ATOM      2  C13 UNL     1      21.342   3.876  30.616  0.00  0.00    +0.044 A 
ATOM      3  C14 UNL     1      21.098   2.510  30.778  0.00  0.00    +0.048 A 
ATOM      4  C15 UNL     1      21.315   2.033  32.015  0.00  0.00    +0.013 A 
ATOM      5  S1  UNL     1      21.791   3.275  33.033  0.00  0.00    -0.087 S 
ATOM      6  C16 UNL     1      20.609   0.749  32.243  0.00  0.00    +0.063 C 
ATOM      7  C17 UNL     1      19.934   0.494  30.865  0.00  0.00    +0.119 C 
ATOM      8  N2  UNL     1      20.312   1.625  30.003  0.00  0.00    -0.266 N 
ATOM      9  C18 UNL     1      19.755   1.882  28.705  0.00  0.00    +0.251 C 
ATOM     10  O4  UNL     1      18.596   1.461  28.438  0.00  0.00    -0.270 OA
ENDROOT
BRANCH   1  20
ATOM     11  C2  UNL     1      19.694   9.597  36.731  0.00  0.00    +0.162 A 
ATOM     12  C3  UNL     1      20.463   8.421  36.808  0.00  0.00    +0.053 A 
ATOM     13  C4  UNL     1      21.095   7.910  35.666  0.00  0.00    -0.037 A 
ATOM     14  C5  UNL     1      20.976   8.578  34.441  0.00  0.00    -0.020 A 
ATOM     15  C6  UNL     1      20.220   9.758  34.363  0.00  0.00    +0.055 A 
ATOM     16  C7  UNL     1      19.572  10.268  35.504  0.00  0.00    +0.162 A 
ATOM     17  C9  UNL     1      21.727   8.064  33.231  0.00  0.00    +0.104 C 
ATOM     18  C10 UNL     1      23.120   8.707  33.178  0.00  0.00    +0.033 C 
ATOM     19  N1  UNL     1      21.830   6.586  33.238  0.00  0.00    -0.290 N 
ATOM     20  C11 UNL     1      22.064   5.899  31.983  0.00  0.00    +0.254 C 
ATOM     21  O3  UNL     1      22.500   6.546  30.993  0.00  0.00    -0.269 OA
ATOM     22  C26 UNL     1      21.730   5.814  34.494  0.00  0.00    +0.113 C 
ATOM     23  C27 UNL     1      21.945   6.677  35.741  0.00  0.00    +0.054 C 
BRANCH  11  25
ATOM     24  C1  UNL     1      17.743   9.752  38.292  0.00  0.00    +0.277 C 
ATOM     25  O1  UNL     1      19.041  10.136  37.852  0.00  0.00    -0.491 OA
ENDBRANCH  11  25
BRANCH  16  26
ATOM     26  O2  UNL     1      18.800  11.441  35.460  0.00  0.00    -0.491 OA
ATOM     27  C8  UNL     1      19.332  12.749  35.279  0.00  0.00    +0.277 C 
ENDBRANCH  16  26
ENDBRANCH   1  20
BRANCH   9  28
ATOM     28  C19 UNL     1      20.519   2.606  27.666  0.00  0.00    +0.041 A 
ATOM     29  C20 UNL     1      21.801   2.150  27.258  0.00  0.00    +0.017 A 
ATOM     30  C21 UNL     1      22.527   2.839  26.271  0.00  0.00    +0.050 A 
ATOM     31  C22 UNL     1      21.944   3.967  25.704  0.00  0.00    +0.166 A 
ATOM     32  C23 UNL     1      20.715   4.403  26.074  0.00  0.00    +0.167 A 
ATOM     33  C24 UNL     1      19.962   3.751  27.048  0.00  0.00    +0.062 A 
ATOM     34  O5  UNL     1      20.390   5.534  25.352  0.00  0.00    -0.453 OA
ATOM     35  C25 UNL     1      21.486   5.830  24.474  0.00  0.00    +0.466 C 
ATOM     36  O6  UNL     1      22.455   4.803  24.730  0.00  0.00    -0.453 OA
ENDBRANCH   9  28
TORSDOF 4
ENDMDL
