REMARK  Name = /home/qwerty/github/datacon2025hack/step_04_hit_selection/docking/ligands/lig_188.pdb
REMARK  8 active torsions:
REMARK  status: ('A' for Active; 'I' for Inactive)
REMARK    1  A    between atoms: C1_1  and  O1_2
REMARK    2  A    between atoms: O1_2  and  C2_3
REMARK    3  A    between atoms: C5_6  and  C6_7
REMARK    4  A    between atoms: C8_9  and  N1_10
REMARK    5  A    between atoms: N2_13  and  C10_14
REMARK    6  A    between atoms: C10_14  and  C11_15
REMARK    7  A    between atoms: C14_19  and  C15_21
REMARK    8  A    between atoms: C17_23  and  C18_24
REMARK                            x       y       z     vdW  Elec       q    Type
REMARK                         _______ _______ _______ _____ _____    ______ ____
ROOT
ATOM      1  C11 UNL     1      -0.202   2.135   2.318  0.00  0.00    +0.025 C 
ATOM      2  C12 UNL     1      -0.083   0.607   2.337  0.00  0.00    +0.025 C 
ATOM      3  C13 UNL     1       1.335   0.311   1.866  0.00  0.00    +0.108 C 
ATOM      4  N3  UNL     1       1.787   1.515   1.183  0.00  0.00    -0.296 N 
ATOM      5  C14 UNL     1       2.995   1.629   0.403  0.00  0.00    +0.268 C 
ATOM      6  O3  UNL     1       3.194   2.678  -0.267  0.00  0.00    -0.268 OA
ATOM      7  C24 UNL     1       0.843   2.614   1.309  0.00  0.00    +0.113 C 
ENDROOT
BRANCH   5   8
ATOM      8  C15 UNL     1       4.021   0.565   0.359  0.00  0.00    +0.168 A 
ATOM      9  C16 UNL     1       5.159   0.584  -0.424  0.00  0.00    +0.086 A 
ATOM     10  C17 UNL     1       5.801  -0.598  -0.105  0.00  0.00    +0.168 A 
ATOM     11  O4  UNL     1       5.078  -1.233   0.791  0.00  0.00    -0.354 OA
ATOM     12  N4  UNL     1       4.004  -0.563   1.094  0.00  0.00    -0.073 NA
BRANCH  10  13
ATOM     13  C18 UNL     1       7.081  -1.106  -0.649  0.00  0.00    +0.020 A 
ATOM     14  C19 UNL     1       7.848  -0.344  -1.551  0.00  0.00    +0.014 A 
ATOM     15  C20 UNL     1       9.053  -0.845  -2.052  0.00  0.00    +0.039 A 
ATOM     16  C21 UNL     1       9.505  -2.107  -1.660  0.00  0.00    +0.123 A 
ATOM     17  F1  UNL     1      10.671  -2.591  -2.150  0.00  0.00    -0.205 F 
ATOM     18  C22 UNL     1       8.752  -2.870  -0.764  0.00  0.00    +0.039 A 
ATOM     19  C23 UNL     1       7.548  -2.374  -0.260  0.00  0.00    +0.014 A 
ENDBRANCH  10  13
ENDBRANCH   5   8
BRANCH   1  20
ATOM     20  C10 UNL     1      -1.627   2.663   2.051  0.00  0.00    +0.110 C 
BRANCH  20  24
ATOM     21  N1  UNL     1      -3.679   0.622  -0.481  0.00  0.00    -0.266 N 
ATOM     22  C9  UNL     1      -3.242   1.154   0.777  0.00  0.00    +0.304 C 
ATOM     23  O2  UNL     1      -3.753   0.738   1.853  0.00  0.00    -0.253 OA
ATOM     24  N2  UNL     1      -2.195   2.134   0.806  0.00  0.00    -0.299 N 
ATOM     25  H10 UNL     1      -3.049   0.741  -1.306  0.00  0.00    +0.156 HD
ATOM     26  H11 UNL     1      -1.807   2.469  -0.103  0.00  0.00    +0.150 HD
BRANCH  21  33
ATOM     27  C2  UNL     1      -6.062   0.080  -0.061  0.00  0.00    +0.141 A 
ATOM     28  C3  UNL     1      -7.140  -0.815  -0.210  0.00  0.00    +0.048 A 
ATOM     29  C4  UNL     1      -6.976  -2.012  -0.911  0.00  0.00    +0.007 A 
ATOM     30  C5  UNL     1      -5.734  -2.341  -1.469  0.00  0.00    -0.048 A 
ATOM     31  C6  UNL     1      -5.574  -3.603  -2.264  0.00  0.00    +0.044 C 
ATOM     32  C7  UNL     1      -4.660  -1.450  -1.334  0.00  0.00    +0.030 A 
ATOM     33  C8  UNL     1      -4.806  -0.258  -0.608  0.00  0.00    +0.077 A 
BRANCH  27  35
ATOM     34  C1  UNL     1      -7.416   1.768   1.202  0.00  0.00    +0.277 C 
ATOM     35  O1  UNL     1      -6.210   1.313   0.595  0.00  0.00    -0.493 OA
ENDBRANCH  27  35
ENDBRANCH  21  33
ENDBRANCH  20  24
ENDBRANCH   1  20
TORSDOF 6
