MODEL 1
REMARK VINA RESULT:    -7.202      0.000      0.000
REMARK INTER + INTRA:          -9.902
REMARK INTER:                  -8.886
REMARK INTRA:                  -1.016
REMARK UNBOUND:                -1.016
REMARK  Name = /home/qwerty/github/datacon2025hack/step_04_hit_selection/docking/ligands/lig_185.pdb
REMARK  6 active torsions:
REMARK  status: ('A' for Active; 'I' for Inactive)
REMARK    1  A    between atoms: C1_1  and  C2_2
REMARK    2  A    between atoms: N3_8  and  C5_9
REMARK    3  A    between atoms: C5_9  and  C6_10
REMARK    4  A    between atoms: C6_10  and  C7_11
REMARK    5  A    between atoms: C6_10  and  N4_12
REMARK    6  A    between atoms: N6_23  and  C17_24
REMARK                            x       y       z     vdW  Elec       q    Type
REMARK                         _______ _______ _______ _____ _____    ______ ____
ROOT
ATOM      1  C1  UNL     1      21.444   3.590  28.567  0.00  0.00    +0.088 C 
ATOM      2  C2  UNL     1      21.364   3.179  30.004  0.00  0.00    +0.132 A 
ATOM      3  N1  UNL     1      20.780   3.944  30.949  0.00  0.00    -0.198 NA
ATOM      4  C3  UNL     1      20.995   3.220  32.069  0.00  0.00    +0.242 A 
ATOM      5  N2  UNL     1      20.578   3.623  33.381  0.00  0.00    -0.237 N 
ATOM      6  C4  UNL     1      19.814   4.808  33.649  0.00  0.00    +0.306 C 
ATOM      7  O1  UNL     1      19.392   5.522  32.702  0.00  0.00    -0.252 OA
ATOM      8  N3  UNL     1      19.522   5.168  35.006  0.00  0.00    -0.298 N 
ATOM      9  N5  UNL     1      21.670   2.079  31.837  0.00  0.00    -0.128 NA
ATOM     10  N6  UNL     1      21.887   2.051  30.534  0.00  0.00    -0.216 N 
ATOM     11  H4  UNL     1      20.855   3.018  34.187  0.00  0.00    +0.159 HD
ATOM     12  H5  UNL     1      19.974   4.620  35.774  0.00  0.00    +0.150 HD
ENDROOT
BRANCH  10  13
ATOM     13  C17 UNL     1      22.603   0.992  29.875  0.00  0.00    +0.067 A 
ATOM     14  C18 UNL     1      21.940  -0.164  29.426  0.00  0.00    +0.028 A 
ATOM     15  C19 UNL     1      22.656  -1.191  28.803  0.00  0.00    +0.002 A 
ATOM     16  C20 UNL     1      24.040  -1.081  28.637  0.00  0.00    +0.000 A 
ATOM     17  C21 UNL     1      24.711   0.055  29.100  0.00  0.00    +0.002 A 
ATOM     18  C22 UNL     1      23.998   1.084  29.722  0.00  0.00    +0.028 A 
ENDBRANCH  10  13
BRANCH   8  19
ATOM     19  C5  UNL     1      18.785   6.379  35.366  0.00  0.00    +0.124 C 
BRANCH  19  20
ATOM     20  C6  UNL     1      19.730   7.460  35.945  0.00  0.00    +0.071 C 
ATOM     21  C7  UNL     1      19.958   7.218  37.441  0.00  0.00    +0.026 C 
BRANCH  20  22
ATOM     22  N4  UNL     1      21.044   7.582  35.254  0.00  0.00    -0.294 NA
ATOM     23  C8  UNL     1      22.203   7.359  36.139  0.00  0.00    +0.090 C 
ATOM     24  C9  UNL     1      23.425   7.007  35.288  0.00  0.00    +0.051 C 
ATOM     25  C10 UNL     1      23.591   7.949  34.122  0.00  0.00    -0.042 A 
ATOM     26  C11 UNL     1      24.800   7.954  33.408  0.00  0.00    +0.004 A 
ATOM     27  C12 UNL     1      24.963   8.790  32.300  0.00  0.00    +0.000 A 
ATOM     28  C13 UNL     1      23.919   9.622  31.892  0.00  0.00    +0.000 A 
ATOM     29  C14 UNL     1      22.705   9.615  32.585  0.00  0.00    +0.005 A 
ATOM     30  C15 UNL     1      22.523   8.766  33.687  0.00  0.00    -0.030 A 
ATOM     31  C16 UNL     1      21.230   8.816  34.462  0.00  0.00    +0.120 C 
ENDBRANCH  20  22
ENDBRANCH  19  20
ENDBRANCH   8  19
TORSDOF 4
ENDMDL
MODEL 2
REMARK VINA RESULT:    -7.030     13.638     15.275
REMARK INTER + INTRA:          -9.690
REMARK INTER:                  -8.778
REMARK INTRA:                  -0.912
REMARK UNBOUND:                -1.016
REMARK  Name = /home/qwerty/github/datacon2025hack/step_04_hit_selection/docking/ligands/lig_185.pdb
REMARK  6 active torsions:
REMARK  status: ('A' for Active; 'I' for Inactive)
REMARK    1  A    between atoms: C1_1  and  C2_2
REMARK    2  A    between atoms: N3_8  and  C5_9
REMARK    3  A    between atoms: C5_9  and  C6_10
REMARK    4  A    between atoms: C6_10  and  C7_11
REMARK    5  A    between atoms: C6_10  and  N4_12
REMARK    6  A    between atoms: N6_23  and  C17_24
REMARK                            x       y       z     vdW  Elec       q    Type
REMARK                         _______ _______ _______ _____ _____    ______ ____
ROOT
ATOM      1  C1  UNL     1      15.508   3.664  20.658  0.00  0.00    +0.088 C 
ATOM      2  C2  UNL     1      14.231   2.916  20.885  0.00  0.00    +0.132 A 
ATOM      3  N1  UNL     1      13.021   3.510  20.841  0.00  0.00    -0.198 NA
ATOM      4  C3  UNL     1      12.195   2.489  21.156  0.00  0.00    +0.242 A 
ATOM      5  N2  UNL     1      10.770   2.611  21.269  0.00  0.00    -0.237 N 
ATOM      6  C4  UNL     1      10.045   3.816  20.984  0.00  0.00    +0.306 C 
ATOM      7  O1  UNL     1      10.642   4.827  20.527  0.00  0.00    -0.252 OA
ATOM      8  N3  UNL     1       8.630   3.861  21.212  0.00  0.00    -0.298 N 
ATOM      9  N5  UNL     1      12.848   1.334  21.383  0.00  0.00    -0.128 NA
ATOM     10  N6  UNL     1      14.128   1.605  21.196  0.00  0.00    -0.216 N 
ATOM     11  H4  UNL     1      10.233   1.772  21.584  0.00  0.00    +0.159 HD
ATOM     12  H5  UNL     1       8.179   3.048  21.692  0.00  0.00    +0.150 HD
ENDROOT
BRANCH  10  13
ATOM     13  C17 UNL     1      15.172   0.631  21.361  0.00  0.00    +0.067 A 
ATOM     14  C18 UNL     1      15.874   0.124  20.252  0.00  0.00    +0.028 A 
ATOM     15  C19 UNL     1      16.875  -0.836  20.430  0.00  0.00    +0.002 A 
ATOM     16  C20 UNL     1      17.175  -1.309  21.711  0.00  0.00    +0.000 A 
ATOM     17  C21 UNL     1      16.468  -0.827  22.816  0.00  0.00    +0.002 A 
ATOM     18  C22 UNL     1      15.467   0.133  22.642  0.00  0.00    +0.028 A 
ENDBRANCH  10  13
BRANCH   8  19
ATOM     19  C5  UNL     1       7.825   5.060  20.985  0.00  0.00    +0.124 C 
BRANCH  19  20
ATOM     20  C6  UNL     1       7.795   5.962  22.244  0.00  0.00    +0.071 C 
ATOM     21  C7  UNL     1       7.919   5.107  23.510  0.00  0.00    +0.026 C 
BRANCH  20  22
ATOM     22  N4  UNL     1       8.821   7.041  22.270  0.00  0.00    -0.294 NA
ATOM     23  C8  UNL     1       8.702   7.946  23.428  0.00  0.00    +0.090 C 
ATOM     24  C9  UNL     1      10.035   8.666  23.643  0.00  0.00    +0.051 C 
ATOM     25  C10 UNL     1      10.588   9.227  22.356  0.00  0.00    -0.042 A 
ATOM     26  C11 UNL     1      11.644  10.151  22.405  0.00  0.00    +0.004 A 
ATOM     27  C12 UNL     1      12.197  10.654  21.225  0.00  0.00    +0.000 A 
ATOM     28  C13 UNL     1      11.707  10.233  19.988  0.00  0.00    +0.000 A 
ATOM     29  C14 UNL     1      10.668   9.302  19.925  0.00  0.00    +0.005 A 
ATOM     30  C15 UNL     1      10.116   8.775  21.102  0.00  0.00    -0.030 A 
ATOM     31  C16 UNL     1       8.953   7.818  21.019  0.00  0.00    +0.120 C 
ENDBRANCH  20  22
ENDBRANCH  19  20
ENDBRANCH   8  19
TORSDOF 4
ENDMDL
MODEL 3
REMARK VINA RESULT:    -6.924      8.561     11.272
REMARK INTER + INTRA:          -9.559
REMARK INTER:                  -8.929
REMARK INTRA:                  -0.630
REMARK UNBOUND:                -1.016
REMARK  Name = /home/qwerty/github/datacon2025hack/step_04_hit_selection/docking/ligands/lig_185.pdb
REMARK  6 active torsions:
REMARK  status: ('A' for Active; 'I' for Inactive)
REMARK    1  A    between atoms: C1_1  and  C2_2
REMARK    2  A    between atoms: N3_8  and  C5_9
REMARK    3  A    between atoms: C5_9  and  C6_10
REMARK    4  A    between atoms: C6_10  and  C7_11
REMARK    5  A    between atoms: C6_10  and  N4_12
REMARK    6  A    between atoms: N6_23  and  C17_24
REMARK                            x       y       z     vdW  Elec       q    Type
REMARK                         _______ _______ _______ _____ _____    ______ ____
ROOT
ATOM      1  C1  UNL     1      19.718   1.015  25.230  0.00  0.00    +0.088 C 
ATOM      2  C2  UNL     1      20.589   2.200  25.509  0.00  0.00    +0.132 A 
ATOM      3  N1  UNL     1      20.896   3.117  24.569  0.00  0.00    -0.198 NA
ATOM      4  C3  UNL     1      21.729   3.941  25.240  0.00  0.00    +0.242 A 
ATOM      5  N2  UNL     1      22.364   5.089  24.662  0.00  0.00    -0.237 N 
ATOM      6  C4  UNL     1      22.129   5.544  23.321  0.00  0.00    +0.306 C 
ATOM      7  O1  UNL     1      21.262   4.983  22.601  0.00  0.00    -0.252 OA
ATOM      8  N3  UNL     1      22.880   6.653  22.809  0.00  0.00    -0.298 N 
ATOM      9  N5  UNL     1      21.929   3.562  26.516  0.00  0.00    -0.128 NA
ATOM     10  N6  UNL     1      21.198   2.474  26.684  0.00  0.00    -0.216 N 
ATOM     11  H4  UNL     1      23.043   5.620  25.253  0.00  0.00    +0.159 HD
ATOM     12  H5  UNL     1      23.667   7.029  23.387  0.00  0.00    +0.150 HD
ENDROOT
BRANCH  10  13
ATOM     13  C17 UNL     1      21.149   1.740  27.920  0.00  0.00    +0.067 A 
ATOM     14  C18 UNL     1      22.085   0.730  28.203  0.00  0.00    +0.028 A 
ATOM     15  C19 UNL     1      22.011   0.016  29.403  0.00  0.00    +0.002 A 
ATOM     16  C20 UNL     1      20.994   0.291  30.322  0.00  0.00    +0.000 A 
ATOM     17  C21 UNL     1      20.046   1.277  30.039  0.00  0.00    +0.002 A 
ATOM     18  C22 UNL     1      20.117   1.994  28.841  0.00  0.00    +0.028 A 
ENDBRANCH  10  13
BRANCH   8  19
ATOM     19  C5  UNL     1      22.730   7.152  21.442  0.00  0.00    +0.124 C 
BRANCH  19  20
ATOM     20  C6  UNL     1      23.812   8.207  21.108  0.00  0.00    +0.071 C 
ATOM     21  C7  UNL     1      24.907   7.584  20.235  0.00  0.00    +0.026 C 
BRANCH  20  22
ATOM     22  N4  UNL     1      23.303   9.446  20.457  0.00  0.00    -0.294 NA
ATOM     23  C8  UNL     1      24.172  10.621  20.655  0.00  0.00    +0.090 C 
ATOM     24  C9  UNL     1      23.860  11.665  19.580  0.00  0.00    +0.051 C 
ATOM     25  C10 UNL     1      22.377  11.894  19.429  0.00  0.00    -0.042 A 
ATOM     26  C11 UNL     1      21.923  13.006  18.702  0.00  0.00    +0.004 A 
ATOM     27  C12 UNL     1      20.555  13.217  18.516  0.00  0.00    +0.000 A 
ATOM     28  C13 UNL     1      19.629  12.319  19.049  0.00  0.00    +0.000 A 
ATOM     29  C14 UNL     1      20.068  11.199  19.761  0.00  0.00    +0.005 A 
ATOM     30  C15 UNL     1      21.440  10.965  19.938  0.00  0.00    -0.030 A 
ATOM     31  C16 UNL     1      21.897   9.788  20.762  0.00  0.00    +0.120 C 
ENDBRANCH  20  22
ENDBRANCH  19  20
ENDBRANCH   8  19
TORSDOF 4
ENDMDL
MODEL 4
REMARK VINA RESULT:    -6.834     11.840     15.310
REMARK INTER + INTRA:          -9.448
REMARK INTER:                  -8.820
REMARK INTRA:                  -0.628
REMARK UNBOUND:                -1.016
REMARK  Name = /home/qwerty/github/datacon2025hack/step_04_hit_selection/docking/ligands/lig_185.pdb
REMARK  6 active torsions:
REMARK  status: ('A' for Active; 'I' for Inactive)
REMARK    1  A    between atoms: C1_1  and  C2_2
REMARK    2  A    between atoms: N3_8  and  C5_9
REMARK    3  A    between atoms: C5_9  and  C6_10
REMARK    4  A    between atoms: C6_10  and  C7_11
REMARK    5  A    between atoms: C6_10  and  N4_12
REMARK    6  A    between atoms: N6_23  and  C17_24
REMARK                            x       y       z     vdW  Elec       q    Type
REMARK                         _______ _______ _______ _____ _____    ______ ____
ROOT
ATOM      1  C1  UNL     1      18.073   9.049  22.569  0.00  0.00    +0.088 C 
ATOM      2  C2  UNL     1      17.622   8.409  21.293  0.00  0.00    +0.132 A 
ATOM      3  N1  UNL     1      16.862   7.295  21.265  0.00  0.00    -0.198 NA
ATOM      4  C3  UNL     1      16.759   7.058  19.940  0.00  0.00    +0.242 A 
ATOM      5  N2  UNL     1      16.053   5.945  19.373  0.00  0.00    -0.237 N 
ATOM      6  C4  UNL     1      15.306   4.994  20.146  0.00  0.00    +0.306 C 
ATOM      7  O1  UNL     1      15.165   5.151  21.387  0.00  0.00    -0.252 OA
ATOM      8  N3  UNL     1      14.707   3.867  19.492  0.00  0.00    -0.298 N 
ATOM      9  N5  UNL     1      17.413   7.964  19.190  0.00  0.00    -0.128 NA
ATOM     10  N6  UNL     1      17.942   8.821  20.046  0.00  0.00    -0.216 N 
ATOM     11  H4  UNL     1      16.093   5.820  18.337  0.00  0.00    +0.159 HD
ATOM     12  H5  UNL     1      14.929   3.703  18.483  0.00  0.00    +0.150 HD
ENDROOT
BRANCH  10  13
ATOM     13  C17 UNL     1      18.745   9.944  19.645  0.00  0.00    +0.067 A 
ATOM     14  C18 UNL     1      18.211  11.244  19.611  0.00  0.00    +0.028 A 
ATOM     15  C19 UNL     1      19.002  12.322  19.201  0.00  0.00    +0.002 A 
ATOM     16  C20 UNL     1      20.327  12.110  18.808  0.00  0.00    +0.000 A 
ATOM     17  C21 UNL     1      20.860  10.818  18.817  0.00  0.00    +0.002 A 
ATOM     18  C22 UNL     1      20.072   9.739  19.227  0.00  0.00    +0.028 A 
ENDBRANCH  10  13
BRANCH   8  19
ATOM     19  C5  UNL     1      13.965   2.833  20.211  0.00  0.00    +0.124 C 
BRANCH  19  20
ATOM     20  C6  UNL     1      14.717   1.479  20.183  0.00  0.00    +0.071 C 
ATOM     21  C7  UNL     1      16.199   1.705  19.859  0.00  0.00    +0.026 C 
BRANCH  20  22
ATOM     22  N4  UNL     1      14.597   0.667  21.426  0.00  0.00    -0.294 NA
ATOM     23  C8  UNL     1      13.993   1.398  22.556  0.00  0.00    +0.090 C 
ATOM     24  C9  UNL     1      13.460   0.391  23.578  0.00  0.00    +0.051 C 
ATOM     25  C10 UNL     1      14.466  -0.689  23.886  0.00  0.00    -0.042 A 
ATOM     26  C11 UNL     1      14.262  -1.524  24.996  0.00  0.00    +0.004 A 
ATOM     27  C12 UNL     1      15.161  -2.556  25.277  0.00  0.00    +0.000 A 
ATOM     28  C13 UNL     1      16.265  -2.768  24.451  0.00  0.00    +0.000 A 
ATOM     29  C14 UNL     1      16.471  -1.954  23.333  0.00  0.00    +0.005 A 
ATOM     30  C15 UNL     1      15.566  -0.926  23.029  0.00  0.00    -0.030 A 
ATOM     31  C16 UNL     1      15.835  -0.016  21.856  0.00  0.00    +0.120 C 
ENDBRANCH  20  22
ENDBRANCH  19  20
ENDBRANCH   8  19
TORSDOF 4
ENDMDL
MODEL 5
REMARK VINA RESULT:    -6.797     13.009     16.577
REMARK INTER + INTRA:          -9.403
REMARK INTER:                  -8.791
REMARK INTRA:                  -0.613
REMARK UNBOUND:                -1.016
REMARK  Name = /home/qwerty/github/datacon2025hack/step_04_hit_selection/docking/ligands/lig_185.pdb
REMARK  6 active torsions:
REMARK  status: ('A' for Active; 'I' for Inactive)
REMARK    1  A    between atoms: C1_1  and  C2_2
REMARK    2  A    between atoms: N3_8  and  C5_9
REMARK    3  A    between atoms: C5_9  and  C6_10
REMARK    4  A    between atoms: C6_10  and  C7_11
REMARK    5  A    between atoms: C6_10  and  N4_12
REMARK    6  A    between atoms: N6_23  and  C17_24
REMARK                            x       y       z     vdW  Elec       q    Type
REMARK                         _______ _______ _______ _____ _____    ______ ____
ROOT
ATOM      1  C1  UNL     1       7.972   5.297  21.832  0.00  0.00    +0.088 C 
ATOM      2  C2  UNL     1       9.386   5.688  21.533  0.00  0.00    +0.132 A 
ATOM      3  N1  UNL     1      10.338   4.789  21.209  0.00  0.00    -0.198 NA
ATOM      4  C3  UNL     1      11.433   5.570  21.090  0.00  0.00    +0.242 A 
ATOM      5  N2  UNL     1      12.743   5.078  20.773  0.00  0.00    -0.237 N 
ATOM      6  C4  UNL     1      13.029   3.705  20.468  0.00  0.00    +0.306 C 
ATOM      7  O1  UNL     1      12.097   2.863  20.380  0.00  0.00    -0.252 OA
ATOM      8  N3  UNL     1      14.387   3.298  20.249  0.00  0.00    -0.298 N 
ATOM      9  N5  UNL     1      11.181   6.871  21.326  0.00  0.00    -0.128 NA
ATOM     10  N6  UNL     1       9.888   6.942  21.590  0.00  0.00    -0.216 N 
ATOM     11  H4  UNL     1      13.533   5.761  20.771  0.00  0.00    +0.159 HD
ATOM     12  H5  UNL     1      15.149   3.992  20.434  0.00  0.00    +0.150 HD
ENDROOT
BRANCH  10  13
ATOM     13  C17 UNL     1       9.215   8.170  21.917  0.00  0.00    +0.067 A 
ATOM     14  C18 UNL     1       9.106   9.211  20.977  0.00  0.00    +0.028 A 
ATOM     15  C19 UNL     1       8.463  10.405  21.319  0.00  0.00    +0.002 A 
ATOM     16  C20 UNL     1       7.938  10.576  22.603  0.00  0.00    +0.000 A 
ATOM     17  C21 UNL     1       8.061   9.556  23.550  0.00  0.00    +0.002 A 
ATOM     18  C22 UNL     1       8.703   8.361  23.212  0.00  0.00    +0.028 A 
ENDBRANCH  10  13
BRANCH   8  19
ATOM     19  C5  UNL     1      14.767   1.914  19.973  0.00  0.00    +0.124 C 
BRANCH  19  20
ATOM     20  C6  UNL     1      16.126   1.564  20.628  0.00  0.00    +0.071 C 
ATOM     21  C7  UNL     1      16.780   2.828  21.198  0.00  0.00    +0.026 C 
BRANCH  20  22
ATOM     22  N4  UNL     1      16.063   0.516  21.685  0.00  0.00    -0.294 NA
ATOM     23  C8  UNL     1      16.545  -0.805  21.240  0.00  0.00    +0.090 C 
ATOM     24  C9  UNL     1      16.913  -1.645  22.465  0.00  0.00    +0.051 C 
ATOM     25  C10 UNL     1      15.841  -1.599  23.525  0.00  0.00    -0.042 A 
ATOM     26  C11 UNL     1      15.878  -2.522  24.582  0.00  0.00    +0.004 A 
ATOM     27  C12 UNL     1      14.918  -2.473  25.595  0.00  0.00    +0.000 A 
ATOM     28  C13 UNL     1      13.919  -1.499  25.567  0.00  0.00    +0.000 A 
ATOM     29  C14 UNL     1      13.881  -0.563  24.530  0.00  0.00    +0.005 A 
ATOM     30  C15 UNL     1      14.850  -0.590  23.516  0.00  0.00    -0.030 A 
ATOM     31  C16 UNL     1      14.759   0.386  22.369  0.00  0.00    +0.120 C 
ENDBRANCH  20  22
ENDBRANCH  19  20
ENDBRANCH   8  19
TORSDOF 4
ENDMDL
MODEL 6
REMARK VINA RESULT:    -6.731      7.222     10.402
REMARK INTER + INTRA:          -9.321
REMARK INTER:                  -8.575
REMARK INTRA:                  -0.746
REMARK UNBOUND:                -1.016
REMARK  Name = /home/qwerty/github/datacon2025hack/step_04_hit_selection/docking/ligands/lig_185.pdb
REMARK  6 active torsions:
REMARK  status: ('A' for Active; 'I' for Inactive)
REMARK    1  A    between atoms: C1_1  and  C2_2
REMARK    2  A    between atoms: N3_8  and  C5_9
REMARK    3  A    between atoms: C5_9  and  C6_10
REMARK    4  A    between atoms: C6_10  and  C7_11
REMARK    5  A    between atoms: C6_10  and  N4_12
REMARK    6  A    between atoms: N6_23  and  C17_24
REMARK                            x       y       z     vdW  Elec       q    Type
REMARK                         _______ _______ _______ _____ _____    ______ ____
ROOT
ATOM      1  C1  UNL     1      18.349   6.584  35.737  0.00  0.00    +0.088 C 
ATOM      2  C2  UNL     1      18.570   7.945  36.321  0.00  0.00    +0.132 A 
ATOM      3  N1  UNL     1      17.579   8.851  36.455  0.00  0.00    -0.198 NA
ATOM      4  C3  UNL     1      18.238   9.918  36.954  0.00  0.00    +0.242 A 
ATOM      5  N2  UNL     1      17.621  11.177  37.256  0.00  0.00    -0.237 N 
ATOM      6  C4  UNL     1      16.213  11.427  37.137  0.00  0.00    +0.306 C 
ATOM      7  O1  UNL     1      15.423  10.494  36.832  0.00  0.00    -0.252 OA
ATOM      8  N3  UNL     1      15.706  12.746  37.381  0.00  0.00    -0.298 N 
ATOM      9  N5  UNL     1      19.555   9.693  37.119  0.00  0.00    -0.128 NA
ATOM     10  N6  UNL     1      19.756   8.446  36.733  0.00  0.00    -0.216 N 
ATOM     11  H4  UNL     1      18.238  11.957  37.576  0.00  0.00    +0.159 HD
ATOM     12  H5  UNL     1      16.392  13.522  37.525  0.00  0.00    +0.150 HD
ENDROOT
BRANCH  10  13
ATOM     13  C17 UNL     1      21.049   7.817  36.737  0.00  0.00    +0.067 A 
ATOM     14  C18 UNL     1      21.553   7.199  37.895  0.00  0.00    +0.028 A 
ATOM     15  C19 UNL     1      22.820   6.607  37.885  0.00  0.00    +0.002 A 
ATOM     16  C20 UNL     1      23.600   6.639  36.725  0.00  0.00    +0.000 A 
ATOM     17  C21 UNL     1      23.117   7.270  35.576  0.00  0.00    +0.002 A 
ATOM     18  C22 UNL     1      21.850   7.862  35.582  0.00  0.00    +0.028 A 
ENDBRANCH  10  13
BRANCH   8  19
ATOM     19  C5  UNL     1      14.292  13.092  37.243  0.00  0.00    +0.124 C 
BRANCH  19  20
ATOM     20  C6  UNL     1      14.114  14.426  36.475  0.00  0.00    +0.071 C 
ATOM     21  C7  UNL     1      15.481  15.043  36.161  0.00  0.00    +0.026 C 
BRANCH  20  22
ATOM     22  N4  UNL     1      13.313  14.328  35.223  0.00  0.00    -0.294 NA
ATOM     23  C8  UNL     1      12.054  13.576  35.381  0.00  0.00    +0.090 C 
ATOM     24  C9  UNL     1      11.100  13.948  34.244  0.00  0.00    +0.051 C 
ATOM     25  C10 UNL     1      11.783  13.917  32.900  0.00  0.00    -0.042 A 
ATOM     26  C11 UNL     1      11.005  13.953  31.731  0.00  0.00    +0.004 A 
ATOM     27  C12 UNL     1      11.618  13.964  30.476  0.00  0.00    +0.000 A 
ATOM     28  C13 UNL     1      13.010  13.947  30.376  0.00  0.00    +0.000 A 
ATOM     29  C14 UNL     1      13.796  13.929  31.531  0.00  0.00    +0.005 A 
ATOM     30  C15 UNL     1      13.193  13.936  32.798  0.00  0.00    -0.030 A 
ATOM     31  C16 UNL     1      14.053  13.851  34.035  0.00  0.00    +0.120 C 
ENDBRANCH  20  22
ENDBRANCH  19  20
ENDBRANCH   8  19
TORSDOF 4
ENDMDL
MODEL 7
REMARK VINA RESULT:    -6.727      8.417     11.534
REMARK INTER + INTRA:          -9.316
REMARK INTER:                  -8.757
REMARK INTRA:                  -0.559
REMARK UNBOUND:                -1.016
REMARK  Name = /home/qwerty/github/datacon2025hack/step_04_hit_selection/docking/ligands/lig_185.pdb
REMARK  6 active torsions:
REMARK  status: ('A' for Active; 'I' for Inactive)
REMARK    1  A    between atoms: C1_1  and  C2_2
REMARK    2  A    between atoms: N3_8  and  C5_9
REMARK    3  A    between atoms: C5_9  and  C6_10
REMARK    4  A    between atoms: C6_10  and  C7_11
REMARK    5  A    between atoms: C6_10  and  N4_12
REMARK    6  A    between atoms: N6_23  and  C17_24
REMARK                            x       y       z     vdW  Elec       q    Type
REMARK                         _______ _______ _______ _____ _____    ______ ____
ROOT
ATOM      1  C1  UNL     1      21.402   5.218  28.355  0.00  0.00    +0.088 C 
ATOM      2  C2  UNL     1      21.395   4.387  27.109  0.00  0.00    +0.132 A 
ATOM      3  N1  UNL     1      21.435   4.927  25.874  0.00  0.00    -0.198 NA
ATOM      4  C3  UNL     1      21.350   3.833  25.086  0.00  0.00    +0.242 A 
ATOM      5  N2  UNL     1      21.327   3.872  23.653  0.00  0.00    -0.237 N 
ATOM      6  C4  UNL     1      21.469   5.075  22.883  0.00  0.00    +0.306 C 
ATOM      7  O1  UNL     1      21.713   6.171  23.452  0.00  0.00    -0.252 OA
ATOM      8  N3  UNL     1      21.345   5.019  21.455  0.00  0.00    -0.298 N 
ATOM      9  N5  UNL     1      21.262   2.686  25.786  0.00  0.00    -0.128 NA
ATOM     10  N6  UNL     1      21.306   3.040  27.058  0.00  0.00    -0.216 N 
ATOM     11  H4  UNL     1      21.192   2.970  23.143  0.00  0.00    +0.159 HD
ATOM     12  H5  UNL     1      21.036   4.120  21.019  0.00  0.00    +0.150 HD
ENDROOT
BRANCH  10  13
ATOM     13  C17 UNL     1      21.221   2.099  28.142  0.00  0.00    +0.067 A 
ATOM     14  C18 UNL     1      22.321   1.295  28.494  0.00  0.00    +0.028 A 
ATOM     15  C19 UNL     1      22.214   0.374  29.540  0.00  0.00    +0.002 A 
ATOM     16  C20 UNL     1      21.008   0.234  30.234  0.00  0.00    +0.000 A 
ATOM     17  C21 UNL     1      19.904   1.013  29.876  0.00  0.00    +0.002 A 
ATOM     18  C22 UNL     1      20.007   1.936  28.831  0.00  0.00    +0.028 A 
ENDBRANCH  10  13
BRANCH   8  19
ATOM     19  C5  UNL     1      21.437   6.203  20.602  0.00  0.00    +0.124 C 
BRANCH  19  20
ATOM     20  C6  UNL     1      20.087   6.497  19.902  0.00  0.00    +0.071 C 
ATOM     21  C7  UNL     1      18.946   5.776  20.630  0.00  0.00    +0.026 C 
BRANCH  20  22
ATOM     22  N4  UNL     1      19.753   7.941  19.761  0.00  0.00    -0.294 NA
ATOM     23  C8  UNL     1      18.396   8.188  19.239  0.00  0.00    +0.090 C 
ATOM     24  C9  UNL     1      17.972   9.615  19.596  0.00  0.00    +0.051 C 
ATOM     25  C10 UNL     1      19.050  10.621  19.280  0.00  0.00    -0.042 A 
ATOM     26  C11 UNL     1      18.734  11.989  19.277  0.00  0.00    +0.004 A 
ATOM     27  C12 UNL     1      19.725  12.941  19.025  0.00  0.00    +0.000 A 
ATOM     28  C13 UNL     1      21.038  12.537  18.782  0.00  0.00    +0.000 A 
ATOM     29  C14 UNL     1      21.369  11.179  18.799  0.00  0.00    +0.005 A 
ATOM     30  C15 UNL     1      20.387  10.214  19.069  0.00  0.00    -0.030 A 
ATOM     31  C16 UNL     1      20.745   8.750  19.021  0.00  0.00    +0.120 C 
ENDBRANCH  20  22
ENDBRANCH  19  20
ENDBRANCH   8  19
TORSDOF 4
ENDMDL
MODEL 8
REMARK VINA RESULT:    -6.628     12.622     14.903
REMARK INTER + INTRA:          -9.195
REMARK INTER:                  -8.319
REMARK INTRA:                  -0.876
REMARK UNBOUND:                -1.016
REMARK  Name = /home/qwerty/github/datacon2025hack/step_04_hit_selection/docking/ligands/lig_185.pdb
REMARK  6 active torsions:
REMARK  status: ('A' for Active; 'I' for Inactive)
REMARK    1  A    between atoms: C1_1  and  C2_2
REMARK    2  A    between atoms: N3_8  and  C5_9
REMARK    3  A    between atoms: C5_9  and  C6_10
REMARK    4  A    between atoms: C6_10  and  C7_11
REMARK    5  A    between atoms: C6_10  and  N4_12
REMARK    6  A    between atoms: N6_23  and  C17_24
REMARK                            x       y       z     vdW  Elec       q    Type
REMARK                         _______ _______ _______ _____ _____    ______ ____
ROOT
ATOM      1  C1  UNL     1      13.828   1.666  26.407  0.00  0.00    +0.088 C 
ATOM      2  C2  UNL     1      13.016   1.334  25.194  0.00  0.00    +0.132 A 
ATOM      3  N1  UNL     1      11.993   2.103  24.769  0.00  0.00    -0.198 NA
ATOM      4  C3  UNL     1      11.532   1.400  23.712  0.00  0.00    +0.242 A 
ATOM      5  N2  UNL     1      10.409   1.792  22.912  0.00  0.00    -0.237 N 
ATOM      6  C4  UNL     1       9.688   3.019  23.091  0.00  0.00    +0.306 C 
ATOM      7  O1  UNL     1      10.077   3.870  23.934  0.00  0.00    -0.252 OA
ATOM      8  N3  UNL     1       8.524   3.279  22.295  0.00  0.00    -0.298 N 
ATOM      9  N5  UNL     1      12.223   0.265  23.494  0.00  0.00    -0.128 NA
ATOM     10  N6  UNL     1      13.164   0.236  24.420  0.00  0.00    -0.216 N 
ATOM     11  H4  UNL     1      10.096   1.139  22.158  0.00  0.00    +0.159 HD
ATOM     12  H5  UNL     1       8.161   2.512  21.682  0.00  0.00    +0.150 HD
ENDROOT
BRANCH  10  13
ATOM     13  C17 UNL     1      14.115  -0.836  24.546  0.00  0.00    +0.067 A 
ATOM     14  C18 UNL     1      15.269  -0.881  23.743  0.00  0.00    +0.028 A 
ATOM     15  C19 UNL     1      16.173  -1.940  23.867  0.00  0.00    +0.002 A 
ATOM     16  C20 UNL     1      15.928  -2.969  24.781  0.00  0.00    +0.000 A 
ATOM     17  C21 UNL     1      14.774  -2.944  25.568  0.00  0.00    +0.002 A 
ATOM     18  C22 UNL     1      13.867  -1.886  25.447  0.00  0.00    +0.028 A 
ENDBRANCH  10  13
BRANCH   8  19
ATOM     19  C5  UNL     1       7.711   4.485  22.443  0.00  0.00    +0.124 C 
BRANCH  19  20
ATOM     20  C6  UNL     1       7.964   5.479  21.283  0.00  0.00    +0.071 C 
ATOM     21  C7  UNL     1       6.645   6.120  20.838  0.00  0.00    +0.026 C 
BRANCH  20  22
ATOM     22  N4  UNL     1       8.962   6.546  21.575  0.00  0.00    -0.294 NA
ATOM     23  C8  UNL     1       8.859   7.096  22.940  0.00  0.00    +0.090 C 
ATOM     24  C9  UNL     1      10.180   7.778  23.307  0.00  0.00    +0.051 C 
ATOM     25  C10 UNL     1      10.671   8.687  22.208  0.00  0.00    -0.042 A 
ATOM     26  C11 UNL     1      11.702   9.600  22.480  0.00  0.00    +0.004 A 
ATOM     27  C12 UNL     1      12.200  10.424  21.468  0.00  0.00    +0.000 A 
ATOM     28  C13 UNL     1      11.678  10.340  20.177  0.00  0.00    +0.000 A 
ATOM     29  C14 UNL     1      10.662   9.424  19.889  0.00  0.00    +0.005 A 
ATOM     30  C15 UNL     1      10.167   8.577  20.892  0.00  0.00    -0.030 A 
ATOM     31  C16 UNL     1       9.028   7.639  20.582  0.00  0.00    +0.120 C 
ENDBRANCH  20  22
ENDBRANCH  19  20
ENDBRANCH   8  19
TORSDOF 4
ENDMDL
MODEL 9
REMARK VINA RESULT:    -6.556      5.128      9.899
REMARK INTER + INTRA:          -9.105
REMARK INTER:                  -8.213
REMARK INTRA:                  -0.892
REMARK UNBOUND:                -1.016
REMARK  Name = /home/qwerty/github/datacon2025hack/step_04_hit_selection/docking/ligands/lig_185.pdb
REMARK  6 active torsions:
REMARK  status: ('A' for Active; 'I' for Inactive)
REMARK    1  A    between atoms: C1_1  and  C2_2
REMARK    2  A    between atoms: N3_8  and  C5_9
REMARK    3  A    between atoms: C5_9  and  C6_10
REMARK    4  A    between atoms: C6_10  and  C7_11
REMARK    5  A    between atoms: C6_10  and  N4_12
REMARK    6  A    between atoms: N6_23  and  C17_24
REMARK                            x       y       z     vdW  Elec       q    Type
REMARK                         _______ _______ _______ _____ _____    ______ ____
ROOT
ATOM      1  C1  UNL     1      14.669  10.071  33.628  0.00  0.00    +0.088 C 
ATOM      2  C2  UNL     1      15.234  10.163  35.012  0.00  0.00    +0.132 A 
ATOM      3  N1  UNL     1      16.275   9.412  35.425  0.00  0.00    -0.198 NA
ATOM      4  C3  UNL     1      16.391   9.779  36.719  0.00  0.00    +0.242 A 
ATOM      5  N2  UNL     1      17.360   9.236  37.627  0.00  0.00    -0.237 N 
ATOM      6  C4  UNL     1      18.373   8.294  37.246  0.00  0.00    +0.306 C 
ATOM      7  O1  UNL     1      18.511   7.958  36.041  0.00  0.00    -0.252 OA
ATOM      8  N3  UNL     1      19.240   7.745  38.248  0.00  0.00    -0.298 N 
ATOM      9  N5  UNL     1      15.480  10.698  37.089  0.00  0.00    -0.128 NA
ATOM     10  N6  UNL     1      14.764  10.947  36.007  0.00  0.00    -0.216 N 
ATOM     11  H4  UNL     1      17.318   9.543  38.625  0.00  0.00    +0.159 HD
ATOM     12  H5  UNL     1      19.036   7.958  39.252  0.00  0.00    +0.150 HD
ENDROOT
BRANCH  10  13
ATOM     13  C17 UNL     1      13.662  11.871  35.985  0.00  0.00    +0.067 A 
ATOM     14  C18 UNL     1      13.849  13.215  35.617  0.00  0.00    +0.028 A 
ATOM     15  C19 UNL     1      12.769  14.103  35.617  0.00  0.00    +0.002 A 
ATOM     16  C20 UNL     1      11.498  13.663  36.000  0.00  0.00    +0.000 A 
ATOM     17  C21 UNL     1      11.308  12.334  36.389  0.00  0.00    +0.002 A 
ATOM     18  C22 UNL     1      12.385  11.443  36.389  0.00  0.00    +0.028 A 
ENDBRANCH  10  13
BRANCH   8  19
ATOM     19  C5  UNL     1      20.271   6.751  37.950  0.00  0.00    +0.124 C 
BRANCH  19  20
ATOM     20  C6  UNL     1      21.645   7.422  37.707  0.00  0.00    +0.071 C 
ATOM     21  C7  UNL     1      22.696   6.834  38.656  0.00  0.00    +0.026 C 
BRANCH  20  22
ATOM     22  N4  UNL     1      22.143   7.348  36.306  0.00  0.00    -0.294 NA
ATOM     23  C8  UNL     1      23.434   6.647  36.171  0.00  0.00    +0.090 C 
ATOM     24  C9  UNL     1      23.606   6.185  34.722  0.00  0.00    +0.051 C 
ATOM     25  C10 UNL     1      23.285   7.282  33.737  0.00  0.00    -0.042 A 
ATOM     26  C11 UNL     1      23.656   7.129  32.392  0.00  0.00    +0.004 A 
ATOM     27  C12 UNL     1      23.336   8.114  31.455  0.00  0.00    +0.000 A 
ATOM     28  C13 UNL     1      22.637   9.255  31.851  0.00  0.00    +0.000 A 
ATOM     29  C14 UNL     1      22.247   9.412  33.184  0.00  0.00    +0.005 A 
ATOM     30  C15 UNL     1      22.546   8.421  34.131  0.00  0.00    -0.030 A 
ATOM     31  C16 UNL     1      22.176   8.634  35.577  0.00  0.00    +0.120 C 
ENDBRANCH  20  22
ENDBRANCH  19  20
ENDBRANCH   8  19
TORSDOF 4
ENDMDL
