MODEL 1
REMARK VINA RESULT:    -7.291      0.000      0.000
REMARK INTER + INTRA:          -9.069
REMARK INTER:                  -8.570
REMARK INTRA:                  -0.500
REMARK UNBOUND:                -0.500
REMARK  Name = /home/qwerty/github/datacon2025hack/step_04_hit_selection/docking/ligands/lig_254.pdb
REMARK  4 active torsions:
REMARK  status: ('A' for Active; 'I' for Inactive)
REMARK    1  A    between atoms: C1_1  and  C2_2
REMARK    2  A    between atoms: N1_10  and  C9_11
REMARK    3  A    between atoms: C9_11  and  C10_12
REMARK    4  A    between atoms: N2_14  and  C11_15
REMARK                            x       y       z     vdW  Elec       q    Type
REMARK                         _______ _______ _______ _____ _____    ______ ____
ROOT
ATOM      1  C10 UNL     1      11.461  13.308  34.397  0.00  0.00    +0.235 C 
ATOM      2  O2  UNL     1      11.260  12.166  33.902  0.00  0.00    -0.274 OA
ATOM      3  N2  UNL     1      11.525  14.469  33.553  0.00  0.00    -0.284 N 
ATOM      4  H9  UNL     1      11.422  15.405  34.005  0.00  0.00    +0.155 HD
ENDROOT
BRANCH   3   5
ATOM      5  C11 UNL     1      11.597  14.421  32.119  0.00  0.00    +0.035 A 
ATOM      6  C12 UNL     1      12.713  14.993  31.464  0.00  0.00    +0.024 A 
ATOM      7  C13 UNL     1      12.828  14.946  30.064  0.00  0.00    +0.015 A 
ATOM      8  C14 UNL     1      11.825  14.310  29.330  0.00  0.00    +0.040 A 
ATOM      9  C15 UNL     1      10.748  13.737  29.969  0.00  0.00    +0.124 A 
ATOM     10  C16 UNL     1      10.607  13.765  31.354  0.00  0.00    +0.053 A 
ATOM     11  S1  UNL     1       9.712  13.014  28.792  0.00  0.00    +0.101 S 
ATOM     12  O3  UNL     1       8.359  13.663  28.733  0.00  0.00    -0.146 OA
ATOM     13  O4  UNL     1       9.631  11.520  28.931  0.00  0.00    -0.146 OA
ATOM     14  N3  UNL     1      10.704  13.477  27.454  0.00  0.00    -0.116 NA
ATOM     15  C17 UNL     1      11.747  14.132  27.869  0.00  0.00    +0.160 C 
ATOM     16 CL1  UNL     1      12.950  14.741  26.748  0.00  0.00    -0.060 Cl
ENDBRANCH   3   5
BRANCH   1  17
ATOM     17  C9  UNL     1      11.532  13.459  35.885  0.00  0.00    +0.213 C 
BRANCH  17  27
ATOM     18  C1  UNL     1      18.968  12.351  36.427  0.00  0.00    +0.044 C 
ATOM     19  C2  UNL     1      17.491  12.159  36.601  0.00  0.00    -0.050 A 
ATOM     20  C3  UNL     1      16.987  10.929  37.093  0.00  0.00    +0.004 A 
ATOM     21  C4  UNL     1      15.602  10.723  37.224  0.00  0.00    +0.014 A 
ATOM     22  C5  UNL     1      14.748  11.757  36.849  0.00  0.00    +0.049 A 
ATOM     23  C6  UNL     1      15.231  12.948  36.355  0.00  0.00    +0.050 A 
ATOM     24  C7  UNL     1      16.598  13.179  36.210  0.00  0.00    +0.017 A 
ATOM     25  C8  UNL     1      14.084  13.790  36.032  0.00  0.00    +0.254 C 
ATOM     26  O1  UNL     1      14.138  14.938  35.516  0.00  0.00    -0.270 OA
ATOM     27  N1  UNL     1      12.869  13.112  36.360  0.00  0.00    -0.225 N 
ATOM     28  C18 UNL     1      13.291  11.834  36.845  0.00  0.00    +0.254 C 
ATOM     29  O5  UNL     1      12.507  10.915  37.199  0.00  0.00    -0.270 OA
ENDBRANCH  17  27
ENDBRANCH   1  17
TORSDOF 3
ENDMDL
MODEL 2
REMARK VINA RESULT:    -7.285     10.620     13.129
REMARK INTER + INTRA:          -9.063
REMARK INTER:                  -8.558
REMARK INTRA:                  -0.505
REMARK UNBOUND:                -0.500
REMARK  Name = /home/qwerty/github/datacon2025hack/step_04_hit_selection/docking/ligands/lig_254.pdb
REMARK  4 active torsions:
REMARK  status: ('A' for Active; 'I' for Inactive)
REMARK    1  A    between atoms: C1_1  and  C2_2
REMARK    2  A    between atoms: N1_10  and  C9_11
REMARK    3  A    between atoms: C9_11  and  C10_12
REMARK    4  A    between atoms: N2_14  and  C11_15
REMARK                            x       y       z     vdW  Elec       q    Type
REMARK                         _______ _______ _______ _____ _____    ______ ____
ROOT
ATOM      1  C10 UNL     1      23.388   6.128  32.724  0.00  0.00    +0.235 C 
ATOM      2  O2  UNL     1      22.903   6.256  31.568  0.00  0.00    -0.274 OA
ATOM      3  N2  UNL     1      23.305   4.873  33.417  0.00  0.00    -0.284 N 
ATOM      4  H9  UNL     1      23.939   4.726  34.235  0.00  0.00    +0.155 HD
ENDROOT
BRANCH   3   5
ATOM      5  C11 UNL     1      22.502   3.764  32.984  0.00  0.00    +0.035 A 
ATOM      6  C12 UNL     1      21.512   3.248  33.852  0.00  0.00    +0.024 A 
ATOM      7  C13 UNL     1      20.692   2.178  33.454  0.00  0.00    +0.015 A 
ATOM      8  C14 UNL     1      20.864   1.640  32.178  0.00  0.00    +0.040 A 
ATOM      9  C15 UNL     1      21.815   2.155  31.326  0.00  0.00    +0.124 A 
ATOM     10  C16 UNL     1      22.641   3.216  31.689  0.00  0.00    +0.053 A 
ATOM     11  S1  UNL     1      21.755   1.297  29.828  0.00  0.00    +0.101 S 
ATOM     12  O3  UNL     1      23.017   0.532  29.546  0.00  0.00    -0.146 OA
ATOM     13  O4  UNL     1      21.339   2.169  28.677  0.00  0.00    -0.146 OA
ATOM     14  N3  UNL     1      20.474   0.254  30.335  0.00  0.00    -0.116 NA
ATOM     15  C17 UNL     1      20.115   0.536  31.551  0.00  0.00    +0.160 C 
ATOM     16 CL1  UNL     1      18.833  -0.350  32.356  0.00  0.00    -0.060 Cl
ENDBRANCH   3   5
BRANCH   1  17
ATOM     17  C9  UNL     1      24.141   7.271  33.332  0.00  0.00    +0.213 C 
BRANCH  17  27
ATOM     18  C1  UNL     1      18.668   9.738  37.889  0.00  0.00    +0.044 C 
ATOM     19  C2  UNL     1      19.635   9.670  36.745  0.00  0.00    -0.050 A 
ATOM     20  C3  UNL     1      19.470  10.519  35.623  0.00  0.00    +0.004 A 
ATOM     21  C4  UNL     1      20.349  10.437  34.527  0.00  0.00    +0.014 A 
ATOM     22  C5  UNL     1      21.374   9.497  34.578  0.00  0.00    +0.049 A 
ATOM     23  C6  UNL     1      21.530   8.658  35.660  0.00  0.00    +0.050 A 
ATOM     24  C7  UNL     1      20.673   8.713  36.757  0.00  0.00    +0.017 A 
ATOM     25  C8  UNL     1      22.665   7.785  35.381  0.00  0.00    +0.254 C 
ATOM     26  O1  UNL     1      23.077   6.857  36.126  0.00  0.00    -0.270 OA
ATOM     27  N1  UNL     1      23.236   8.111  34.111  0.00  0.00    -0.225 N 
ATOM     28  C18 UNL     1      22.409   9.163  33.606  0.00  0.00    +0.254 C 
ATOM     29  O5  UNL     1      22.557   9.702  32.478  0.00  0.00    -0.270 OA
ENDBRANCH  17  27
ENDBRANCH   1  17
TORSDOF 3
ENDMDL
MODEL 3
REMARK VINA RESULT:    -6.923      3.814      9.013
REMARK INTER + INTRA:          -8.636
REMARK INTER:                  -7.930
REMARK INTRA:                  -0.707
REMARK UNBOUND:                -0.500
REMARK  Name = /home/qwerty/github/datacon2025hack/step_04_hit_selection/docking/ligands/lig_254.pdb
REMARK  4 active torsions:
REMARK  status: ('A' for Active; 'I' for Inactive)
REMARK    1  A    between atoms: C1_1  and  C2_2
REMARK    2  A    between atoms: N1_10  and  C9_11
REMARK    3  A    between atoms: C9_11  and  C10_12
REMARK    4  A    between atoms: N2_14  and  C11_15
REMARK                            x       y       z     vdW  Elec       q    Type
REMARK                         _______ _______ _______ _____ _____    ______ ____
ROOT
ATOM      1  C10 UNL     1      12.455  14.332  30.359  0.00  0.00    +0.235 C 
ATOM      2  O2  UNL     1      13.437  13.542  30.395  0.00  0.00    -0.274 OA
ATOM      3  N2  UNL     1      11.804  14.744  31.571  0.00  0.00    -0.284 N 
ATOM      4  H9  UNL     1      11.187  15.587  31.530  0.00  0.00    +0.155 HD
ENDROOT
BRANCH   3   5
ATOM      5  C11 UNL     1      12.044  14.151  32.858  0.00  0.00    +0.035 A 
ATOM      6  C12 UNL     1      11.191  13.118  33.312  0.00  0.00    +0.024 A 
ATOM      7  C13 UNL     1      11.408  12.499  34.555  0.00  0.00    +0.015 A 
ATOM      8  C14 UNL     1      12.491  12.915  35.331  0.00  0.00    +0.040 A 
ATOM      9  C15 UNL     1      13.332  13.908  34.880  0.00  0.00    +0.124 A 
ATOM     10  C16 UNL     1      13.145  14.539  33.653  0.00  0.00    +0.053 A 
ATOM     11  S1  UNL     1      14.577  14.166  36.049  0.00  0.00    +0.101 S 
ATOM     12  O3  UNL     1      14.526  15.539  36.657  0.00  0.00    -0.146 OA
ATOM     13  O4  UNL     1      15.942  13.815  35.529  0.00  0.00    -0.146 OA
ATOM     14  N3  UNL     1      13.978  12.962  37.135  0.00  0.00    -0.116 NA
ATOM     15  C17 UNL     1      12.912  12.402  36.647  0.00  0.00    +0.160 C 
ATOM     16 CL1  UNL     1      12.064  11.137  37.515  0.00  0.00    -0.060 Cl
ENDBRANCH   3   5
BRANCH   1  17
ATOM     17  C9  UNL     1      12.032  14.915  29.047  0.00  0.00    +0.213 C 
BRANCH  17  27
ATOM     18  C1  UNL     1       7.557   9.174  27.093  0.00  0.00    +0.044 C 
ATOM     19  C2  UNL     1       8.668  10.180  27.055  0.00  0.00    -0.050 A 
ATOM     20  C3  UNL     1       9.755  10.005  26.163  0.00  0.00    +0.004 A 
ATOM     21  C4  UNL     1      10.823  10.921  26.145  0.00  0.00    +0.014 A 
ATOM     22  C5  UNL     1      10.780  11.993  27.032  0.00  0.00    +0.049 A 
ATOM     23  C6  UNL     1       9.734  12.160  27.912  0.00  0.00    +0.050 A 
ATOM     24  C7  UNL     1       8.665  11.267  27.956  0.00  0.00    +0.017 A 
ATOM     25  C8  UNL     1      10.014  13.348  28.711  0.00  0.00    +0.254 C 
ATOM     26  O1  UNL     1       9.298  13.787  29.651  0.00  0.00    -0.270 OA
ATOM     27  N1  UNL     1      11.247  13.941  28.294  0.00  0.00    -0.225 N 
ATOM     28  C18 UNL     1      11.730  13.075  27.264  0.00  0.00    +0.254 C 
ATOM     29  O5  UNL     1      12.827  13.230  26.664  0.00  0.00    -0.270 OA
ENDBRANCH  17  27
ENDBRANCH   1  17
TORSDOF 3
ENDMDL
MODEL 4
REMARK VINA RESULT:    -6.776     14.403     16.728
REMARK INTER + INTRA:          -8.464
REMARK INTER:                  -7.994
REMARK INTRA:                  -0.469
REMARK UNBOUND:                -0.500
REMARK  Name = /home/qwerty/github/datacon2025hack/step_04_hit_selection/docking/ligands/lig_254.pdb
REMARK  4 active torsions:
REMARK  status: ('A' for Active; 'I' for Inactive)
REMARK    1  A    between atoms: C1_1  and  C2_2
REMARK    2  A    between atoms: N1_10  and  C9_11
REMARK    3  A    between atoms: C9_11  and  C10_12
REMARK    4  A    between atoms: N2_14  and  C11_15
REMARK                            x       y       z     vdW  Elec       q    Type
REMARK                         _______ _______ _______ _____ _____    ______ ____
ROOT
ATOM      1  C10 UNL     1      10.630   3.421  21.823  0.00  0.00    +0.235 C 
ATOM      2  O2  UNL     1      11.037   3.994  22.870  0.00  0.00    -0.274 OA
ATOM      3  N2  UNL     1      11.080   2.098  21.491  0.00  0.00    -0.284 N 
ATOM      4  H9  UNL     1      10.529   1.560  20.784  0.00  0.00    +0.155 HD
ENDROOT
BRANCH   3   5
ATOM      5  C11 UNL     1      12.158   1.422  22.157  0.00  0.00    +0.035 A 
ATOM      6  C12 UNL     1      11.909   0.768  23.386  0.00  0.00    +0.024 A 
ATOM      7  C13 UNL     1      12.935   0.078  24.056  0.00  0.00    +0.015 A 
ATOM      8  C14 UNL     1      14.204   0.039  23.477  0.00  0.00    +0.040 A 
ATOM      9  C15 UNL     1      14.442   0.660  22.272  0.00  0.00    +0.124 A 
ATOM     10  C16 UNL     1      13.447   1.349  21.583  0.00  0.00    +0.053 A 
ATOM     11  S1  UNL     1      16.089   0.403  21.819  0.00  0.00    +0.101 S 
ATOM     12  O3  UNL     1      16.881   1.678  21.764  0.00  0.00    -0.146 OA
ATOM     13  O4  UNL     1      16.225  -0.416  20.567  0.00  0.00    -0.146 OA
ATOM     14  N3  UNL     1      16.461  -0.522  23.230  0.00  0.00    -0.116 NA
ATOM     15  C17 UNL     1      15.413  -0.631  23.991  0.00  0.00    +0.160 C 
ATOM     16 CL1  UNL     1      15.468  -1.514  25.504  0.00  0.00    -0.060 Cl
ENDBRANCH   3   5
BRANCH   1  17
ATOM     17  C9  UNL     1       9.593   4.094  20.977  0.00  0.00    +0.213 C 
BRANCH  17  27
ATOM     18  C1  UNL     1       7.673  11.349  21.669  0.00  0.00    +0.044 C 
ATOM     19  C2  UNL     1       8.478  10.120  21.375  0.00  0.00    -0.050 A 
ATOM     20  C3  UNL     1       9.673  10.216  20.619  0.00  0.00    +0.004 A 
ATOM     21  C4  UNL     1      10.418   9.064  20.305  0.00  0.00    +0.014 A 
ATOM     22  C5  UNL     1       9.941   7.835  20.751  0.00  0.00    +0.049 A 
ATOM     23  C6  UNL     1       8.772   7.732  21.473  0.00  0.00    +0.050 A 
ATOM     24  C7  UNL     1       8.011   8.855  21.795  0.00  0.00    +0.017 A 
ATOM     25  C8  UNL     1       8.546   6.318  21.751  0.00  0.00    +0.254 C 
ATOM     26  O1  UNL     1       7.549   5.839  22.353  0.00  0.00    -0.270 OA
ATOM     27  N1  UNL     1       9.614   5.535  21.211  0.00  0.00    -0.225 N 
ATOM     28  C18 UNL     1      10.466   6.486  20.567  0.00  0.00    +0.254 C 
ATOM     29  O5  UNL     1      11.508   6.186  19.926  0.00  0.00    -0.270 OA
ENDBRANCH  17  27
ENDBRANCH   1  17
TORSDOF 3
ENDMDL
MODEL 5
REMARK VINA RESULT:    -6.750     14.247     15.413
REMARK INTER + INTRA:          -8.433
REMARK INTER:                  -7.701
REMARK INTRA:                  -0.733
REMARK UNBOUND:                -0.500
REMARK  Name = /home/qwerty/github/datacon2025hack/step_04_hit_selection/docking/ligands/lig_254.pdb
REMARK  4 active torsions:
REMARK  status: ('A' for Active; 'I' for Inactive)
REMARK    1  A    between atoms: C1_1  and  C2_2
REMARK    2  A    between atoms: N1_10  and  C9_11
REMARK    3  A    between atoms: C9_11  and  C10_12
REMARK    4  A    between atoms: N2_14  and  C11_15
REMARK                            x       y       z     vdW  Elec       q    Type
REMARK                         _______ _______ _______ _____ _____    ______ ____
ROOT
ATOM      1  C10 UNL     1      20.761   2.177  25.611  0.00  0.00    +0.235 C 
ATOM      2  O2  UNL     1      20.081   3.089  25.067  0.00  0.00    -0.274 OA
ATOM      3  N2  UNL     1      20.272   0.828  25.657  0.00  0.00    -0.284 N 
ATOM      4  H9  UNL     1      20.959   0.068  25.864  0.00  0.00    +0.155 HD
ENDROOT
BRANCH   3   5
ATOM      5  C11 UNL     1      18.930   0.444  25.313  0.00  0.00    +0.035 A 
ATOM      6  C12 UNL     1      17.988   0.228  26.346  0.00  0.00    +0.024 A 
ATOM      7  C13 UNL     1      16.662  -0.127  26.048  0.00  0.00    +0.015 A 
ATOM      8  C14 UNL     1      16.286  -0.251  24.709  0.00  0.00    +0.040 A 
ATOM      9  C15 UNL     1      17.199  -0.023  23.704  0.00  0.00    +0.124 A 
ATOM     10  C16 UNL     1      18.519   0.333  23.967  0.00  0.00    +0.053 A 
ATOM     11  S1  UNL     1      16.418  -0.228  22.176  0.00  0.00    +0.101 S 
ATOM     12  O3  UNL     1      16.982  -1.374  21.386  0.00  0.00    -0.146 OA
ATOM     13  O4  UNL     1      16.357   1.046  21.382  0.00  0.00    -0.146 OA
ATOM     14  N3  UNL     1      14.886  -0.621  22.872  0.00  0.00    -0.116 NA
ATOM     15  C17 UNL     1      14.959  -0.597  24.170  0.00  0.00    +0.160 C 
ATOM     16 CL1  UNL     1      13.564  -0.955  25.171  0.00  0.00    -0.060 Cl
ENDBRANCH   3   5
BRANCH   1  17
ATOM     17  C9  UNL     1      22.131   2.495  26.124  0.00  0.00    +0.213 C 
BRANCH  17  27
ATOM     18  C1  UNL     1      20.689   1.858  33.495  0.00  0.00    +0.044 C 
ATOM     19  C2  UNL     1      20.965   2.468  32.153  0.00  0.00    -0.050 A 
ATOM     20  C3  UNL     1      20.741   3.852  31.941  0.00  0.00    +0.004 A 
ATOM     21  C4  UNL     1      20.960   4.428  30.677  0.00  0.00    +0.014 A 
ATOM     22  C5  UNL     1      21.393   3.599  29.646  0.00  0.00    +0.049 A 
ATOM     23  C6  UNL     1      21.598   2.251  29.841  0.00  0.00    +0.050 A 
ATOM     24  C7  UNL     1      21.385   1.651  31.081  0.00  0.00    +0.017 A 
ATOM     25  C8  UNL     1      22.012   1.677  28.566  0.00  0.00    +0.254 C 
ATOM     26  O1  UNL     1      22.245   0.458  28.350  0.00  0.00    -0.270 OA
ATOM     27  N1  UNL     1      22.091   2.700  27.569  0.00  0.00    -0.225 N 
ATOM     28  C18 UNL     1      21.678   3.892  28.246  0.00  0.00    +0.254 C 
ATOM     29  O5  UNL     1      21.568   5.018  27.694  0.00  0.00    -0.270 OA
ENDBRANCH  17  27
ENDBRANCH   1  17
TORSDOF 3
ENDMDL
MODEL 6
REMARK VINA RESULT:    -6.627      4.007      6.415
REMARK INTER + INTRA:          -8.289
REMARK INTER:                  -7.788
REMARK INTRA:                  -0.502
REMARK UNBOUND:                -0.500
REMARK  Name = /home/qwerty/github/datacon2025hack/step_04_hit_selection/docking/ligands/lig_254.pdb
REMARK  4 active torsions:
REMARK  status: ('A' for Active; 'I' for Inactive)
REMARK    1  A    between atoms: C1_1  and  C2_2
REMARK    2  A    between atoms: N1_10  and  C9_11
REMARK    3  A    between atoms: C9_11  and  C10_12
REMARK    4  A    between atoms: N2_14  and  C11_15
REMARK                            x       y       z     vdW  Elec       q    Type
REMARK                         _______ _______ _______ _____ _____    ______ ____
ROOT
ATOM      1  C10 UNL     1      16.496  10.528  37.624  0.00  0.00    +0.235 C 
ATOM      2  O2  UNL     1      15.839   9.688  36.950  0.00  0.00    -0.274 OA
ATOM      3  N2  UNL     1      16.136  11.918  37.611  0.00  0.00    -0.284 N 
ATOM      4  H9  UNL     1      16.517  12.526  38.371  0.00  0.00    +0.155 HD
ENDROOT
BRANCH   3   5
ATOM      5  C11 UNL     1      15.190  12.498  36.698  0.00  0.00    +0.035 A 
ATOM      6  C12 UNL     1      15.648  13.404  35.713  0.00  0.00    +0.024 A 
ATOM      7  C13 UNL     1      14.755  13.974  34.790  0.00  0.00    +0.015 A 
ATOM      8  C14 UNL     1      13.406  13.620  34.855  0.00  0.00    +0.040 A 
ATOM      9  C15 UNL     1      12.964  12.724  35.802  0.00  0.00    +0.124 A 
ATOM     10  C16 UNL     1      13.824  12.140  36.729  0.00  0.00    +0.053 A 
ATOM     11  S1  UNL     1      11.267  12.479  35.599  0.00  0.00    +0.101 S 
ATOM     12  O3  UNL     1      10.467  12.953  36.778  0.00  0.00    -0.146 OA
ATOM     13  O4  UNL     1      10.929  11.070  35.200  0.00  0.00    -0.146 OA
ATOM     14  N3  UNL     1      11.144  13.567  34.263  0.00  0.00    -0.116 NA
ATOM     15  C17 UNL     1      12.306  14.080  33.988  0.00  0.00    +0.160 C 
ATOM     16 CL1  UNL     1      12.514  15.227  32.678  0.00  0.00    -0.060 Cl
ENDBRANCH   3   5
BRANCH   1  17
ATOM     17  C9  UNL     1      17.597  10.047  38.518  0.00  0.00    +0.213 C 
BRANCH  17  27
ATOM     18  C1  UNL     1      22.658   9.379  32.973  0.00  0.00    +0.044 C 
ATOM     19  C2  UNL     1      21.809   9.046  34.163  0.00  0.00    -0.050 A 
ATOM     20  C3  UNL     1      21.688   7.702  34.597  0.00  0.00    +0.004 A 
ATOM     21  C4  UNL     1      20.864   7.372  35.688  0.00  0.00    +0.014 A 
ATOM     22  C5  UNL     1      20.169   8.401  36.319  0.00  0.00    +0.049 A 
ATOM     23  C6  UNL     1      20.270   9.707  35.892  0.00  0.00    +0.050 A 
ATOM     24  C7  UNL     1      21.074  10.063  34.811  0.00  0.00    +0.017 A 
ATOM     25  C8  UNL     1      19.400  10.517  36.737  0.00  0.00    +0.254 C 
ATOM     26  O1  UNL     1      19.200  11.754  36.614  0.00  0.00    -0.270 OA
ATOM     27  N1  UNL     1      18.770   9.695  37.724  0.00  0.00    -0.225 N 
ATOM     28  C18 UNL     1      19.236   8.373  37.439  0.00  0.00    +0.254 C 
ATOM     29  O5  UNL     1      18.873   7.342  38.065  0.00  0.00    -0.270 OA
ENDBRANCH  17  27
ENDBRANCH   1  17
TORSDOF 3
ENDMDL
MODEL 7
REMARK VINA RESULT:    -6.566     14.051     15.809
REMARK INTER + INTRA:          -8.217
REMARK INTER:                  -7.600
REMARK INTRA:                  -0.617
REMARK UNBOUND:                -0.500
REMARK  Name = /home/qwerty/github/datacon2025hack/step_04_hit_selection/docking/ligands/lig_254.pdb
REMARK  4 active torsions:
REMARK  status: ('A' for Active; 'I' for Inactive)
REMARK    1  A    between atoms: C1_1  and  C2_2
REMARK    2  A    between atoms: N1_10  and  C9_11
REMARK    3  A    between atoms: C9_11  and  C10_12
REMARK    4  A    between atoms: N2_14  and  C11_15
REMARK                            x       y       z     vdW  Elec       q    Type
REMARK                         _______ _______ _______ _____ _____    ______ ____
ROOT
ATOM      1  C10 UNL     1      14.046   4.212  19.982  0.00  0.00    +0.235 C 
ATOM      2  O2  UNL     1      13.557   4.309  18.824  0.00  0.00    -0.274 OA
ATOM      3  N2  UNL     1      13.227   4.427  21.142  0.00  0.00    -0.284 N 
ATOM      4  H9  UNL     1      13.585   4.080  22.061  0.00  0.00    +0.155 HD
ENDROOT
BRANCH   3   5
ATOM      5  C11 UNL     1      11.899   4.972  21.102  0.00  0.00    +0.035 A 
ATOM      6  C12 UNL     1      10.796   4.096  20.972  0.00  0.00    +0.024 A 
ATOM      7  C13 UNL     1       9.481   4.592  20.951  0.00  0.00    +0.015 A 
ATOM      8  C14 UNL     1       9.282   5.968  21.074  0.00  0.00    +0.040 A 
ATOM      9  C15 UNL     1      10.354   6.819  21.219  0.00  0.00    +0.124 A 
ATOM     10  C16 UNL     1      11.668   6.359  21.246  0.00  0.00    +0.053 A 
ATOM     11  S1  UNL     1       9.773   8.438  21.375  0.00  0.00    +0.101 S 
ATOM     12  O3  UNL     1      10.203   9.320  20.238  0.00  0.00    -0.146 OA
ATOM     13  O4  UNL     1      10.079   9.036  22.718  0.00  0.00    -0.146 OA
ATOM     14  N3  UNL     1       8.111   7.985  21.241  0.00  0.00    -0.116 NA
ATOM     15  C17 UNL     1       8.002   6.699  21.091  0.00  0.00    +0.160 C 
ATOM     16 CL1  UNL     1       6.437   5.926  20.926  0.00  0.00    -0.060 Cl
ENDBRANCH   3   5
BRANCH   1  17
ATOM     17  C9  UNL     1      15.469   3.772  20.141  0.00  0.00    +0.213 C 
BRANCH  17  27
ATOM     18  C1  UNL     1      17.665  -1.436  25.127  0.00  0.00    +0.044 C 
ATOM     19  C2  UNL     1      17.035  -0.807  23.920  0.00  0.00    -0.050 A 
ATOM     20  C3  UNL     1      16.608  -1.617  22.838  0.00  0.00    +0.004 A 
ATOM     21  C4  UNL     1      16.051  -1.036  21.684  0.00  0.00    +0.014 A 
ATOM     22  C5  UNL     1      15.941   0.352  21.638  0.00  0.00    +0.049 A 
ATOM     23  C6  UNL     1      16.369   1.145  22.679  0.00  0.00    +0.050 A 
ATOM     24  C7  UNL     1      16.929   0.598  23.832  0.00  0.00    +0.017 A 
ATOM     25  C8  UNL     1      16.143   2.535  22.299  0.00  0.00    +0.254 C 
ATOM     26  O1  UNL     1      16.454   3.544  22.985  0.00  0.00    -0.270 OA
ATOM     27  N1  UNL     1      15.537   2.597  21.004  0.00  0.00    -0.225 N 
ATOM     28  C18 UNL     1      15.438   1.232  20.589  0.00  0.00    +0.254 C 
ATOM     29  O5  UNL     1      14.993   0.861  19.471  0.00  0.00    -0.270 OA
ENDBRANCH  17  27
ENDBRANCH   1  17
TORSDOF 3
ENDMDL
MODEL 8
REMARK VINA RESULT:    -6.523      8.785     13.353
REMARK INTER + INTRA:          -8.166
REMARK INTER:                  -7.587
REMARK INTRA:                  -0.579
REMARK UNBOUND:                -0.500
REMARK  Name = /home/qwerty/github/datacon2025hack/step_04_hit_selection/docking/ligands/lig_254.pdb
REMARK  4 active torsions:
REMARK  status: ('A' for Active; 'I' for Inactive)
REMARK    1  A    between atoms: C1_1  and  C2_2
REMARK    2  A    between atoms: N1_10  and  C9_11
REMARK    3  A    between atoms: C9_11  and  C10_12
REMARK    4  A    between atoms: N2_14  and  C11_15
REMARK                            x       y       z     vdW  Elec       q    Type
REMARK                         _______ _______ _______ _____ _____    ______ ____
ROOT
ATOM      1  C10 UNL     1       9.312   8.716  23.118  0.00  0.00    +0.235 C 
ATOM      2  O2  UNL     1      10.386   8.659  23.776  0.00  0.00    -0.274 OA
ATOM      3  N2  UNL     1       8.094   9.149  23.741  0.00  0.00    -0.284 N 
ATOM      4  H9  UNL     1       7.305   9.439  23.119  0.00  0.00    +0.155 HD
ENDROOT
BRANCH   3   5
ATOM      5  C11 UNL     1       7.932   9.330  25.158  0.00  0.00    +0.035 A 
ATOM      6  C12 UNL     1       7.378   8.281  25.928  0.00  0.00    +0.024 A 
ATOM      7  C13 UNL     1       7.224   8.413  27.319  0.00  0.00    +0.015 A 
ATOM      8  C14 UNL     1       7.642   9.597  27.930  0.00  0.00    +0.040 A 
ATOM      9  C15 UNL     1       8.199  10.610  27.182  0.00  0.00    +0.124 A 
ATOM     10  C16 UNL     1       8.367  10.509  25.803  0.00  0.00    +0.053 A 
ATOM     11  S1  UNL     1       8.633  11.912  28.230  0.00  0.00    +0.101 S 
ATOM     12  O3  UNL     1       7.855  13.166  27.951  0.00  0.00    -0.146 OA
ATOM     13  O4  UNL     1      10.116  12.150  28.275  0.00  0.00    -0.146 OA
ATOM     14  N3  UNL     1       8.072  11.115  29.656  0.00  0.00    -0.116 NA
ATOM     15  C17 UNL     1       7.591   9.944  29.362  0.00  0.00    +0.160 C 
ATOM     16 CL1  UNL     1       6.938   8.885  30.597  0.00  0.00    -0.060 Cl
ENDBRANCH   3   5
BRANCH   1  17
ATOM     17  C9  UNL     1       9.339   8.421  21.650  0.00  0.00    +0.213 C 
BRANCH  17  27
ATOM     18  C1  UNL     1      10.002   0.968  22.554  0.00  0.00    +0.044 C 
ATOM     19  C2  UNL     1      10.243   2.360  22.055  0.00  0.00    -0.050 A 
ATOM     20  C3  UNL     1      11.425   2.662  21.334  0.00  0.00    +0.004 A 
ATOM     21  C4  UNL     1      11.682   3.974  20.894  0.00  0.00    +0.014 A 
ATOM     22  C5  UNL     1      10.747   4.960  21.195  0.00  0.00    +0.049 A 
ATOM     23  C6  UNL     1       9.603   4.676  21.910  0.00  0.00    +0.050 A 
ATOM     24  C7  UNL     1       9.325   3.388  22.362  0.00  0.00    +0.017 A 
ATOM     25  C8  UNL     1       8.866   5.923  22.077  0.00  0.00    +0.254 C 
ATOM     26  O1  UNL     1       7.790   6.060  22.719  0.00  0.00    -0.270 OA
ATOM     27  N1  UNL     1       9.557   6.994  21.429  0.00  0.00    -0.225 N 
ATOM     28  C18 UNL     1      10.742   6.389  20.903  0.00  0.00    +0.254 C 
ATOM     29  O5  UNL     1      11.647   7.015  20.292  0.00  0.00    -0.270 OA
ENDBRANCH  17  27
ENDBRANCH   1  17
TORSDOF 3
ENDMDL
MODEL 9
REMARK VINA RESULT:    -6.493     11.915     14.574
REMARK INTER + INTRA:          -8.132
REMARK INTER:                  -7.615
REMARK INTRA:                  -0.517
REMARK UNBOUND:                -0.500
REMARK  Name = /home/qwerty/github/datacon2025hack/step_04_hit_selection/docking/ligands/lig_254.pdb
REMARK  4 active torsions:
REMARK  status: ('A' for Active; 'I' for Inactive)
REMARK    1  A    between atoms: C1_1  and  C2_2
REMARK    2  A    between atoms: N1_10  and  C9_11
REMARK    3  A    between atoms: C9_11  and  C10_12
REMARK    4  A    between atoms: N2_14  and  C11_15
REMARK                            x       y       z     vdW  Elec       q    Type
REMARK                         _______ _______ _______ _____ _____    ______ ____
ROOT
ATOM      1  C10 UNL     1      20.480   2.096  33.100  0.00  0.00    +0.235 C 
ATOM      2  O2  UNL     1      21.032   1.802  34.195  0.00  0.00    -0.274 OA
ATOM      3  N2  UNL     1      20.105   3.452  32.811  0.00  0.00    -0.284 N 
ATOM      4  H9  UNL     1      19.906   3.700  31.815  0.00  0.00    +0.155 HD
ENDROOT
BRANCH   3   5
ATOM      5  C11 UNL     1      20.107   4.513  33.779  0.00  0.00    +0.035 A 
ATOM      6  C12 UNL     1      18.955   4.728  34.571  0.00  0.00    +0.024 A 
ATOM      7  C13 UNL     1      18.929   5.743  35.543  0.00  0.00    +0.015 A 
ATOM      8  C14 UNL     1      20.068   6.529  35.722  0.00  0.00    +0.040 A 
ATOM      9  C15 UNL     1      21.196   6.308  34.964  0.00  0.00    +0.124 A 
ATOM     10  C16 UNL     1      21.254   5.309  33.995  0.00  0.00    +0.053 A 
ATOM     11  S1  UNL     1      22.427   7.419  35.446  0.00  0.00    +0.101 S 
ATOM     12  O3  UNL     1      22.807   8.375  34.351  0.00  0.00    -0.146 OA
ATOM     13  O4  UNL     1      23.618   6.735  36.055  0.00  0.00    -0.146 OA
ATOM     14  N3  UNL     1      21.444   8.179  36.647  0.00  0.00    -0.116 NA
ATOM     15  C17 UNL     1      20.267   7.630  36.683  0.00  0.00    +0.160 C 
ATOM     16 CL1  UNL     1      19.034   8.180  37.802  0.00  0.00    -0.060 Cl
ENDBRANCH   3   5
BRANCH   1  17
ATOM     17  C9  UNL     1      20.308   1.033  32.060  0.00  0.00    +0.213 C 
BRANCH  17  27
ATOM     18  C1  UNL     1      20.465   2.175  24.611  0.00  0.00    +0.044 C 
ATOM     19  C2  UNL     1      20.879   2.171  26.052  0.00  0.00    -0.050 A 
ATOM     20  C3  UNL     1      22.224   2.441  26.407  0.00  0.00    +0.004 A 
ATOM     21  C4  UNL     1      22.633   2.402  27.752  0.00  0.00    +0.014 A 
ATOM     22  C5  UNL     1      21.681   2.083  28.717  0.00  0.00    +0.049 A 
ATOM     23  C6  UNL     1      20.375   1.804  28.377  0.00  0.00    +0.050 A 
ATOM     24  C7  UNL     1      19.943   1.831  27.053  0.00  0.00    +0.017 A 
ATOM     25  C8  UNL     1      19.659   1.482  29.606  0.00  0.00    +0.254 C 
ATOM     26  O1  UNL     1      18.451   1.131  29.681  0.00  0.00    -0.270 OA
ATOM     27  N1  UNL     1      20.536   1.591  30.730  0.00  0.00    -0.225 N 
ATOM     28  C18 UNL     1      21.802   1.942  30.163  0.00  0.00    +0.254 C 
ATOM     29  O5  UNL     1      22.861   2.089  30.829  0.00  0.00    -0.270 OA
ENDBRANCH  17  27
ENDBRANCH   1  17
TORSDOF 3
ENDMDL
