REMARK  Name = /home/qwerty/github/datacon2025hack/step_04_hit_selection/docking/ligands/lig_625.pdb
REMARK  9 active torsions:
REMARK  status: ('A' for Active; 'I' for Inactive)
REMARK    1  A    between atoms: C1_1  and  C2_2
REMARK    2  A    between atoms: C4_4  and  C5_5
REMARK    3  A    between atoms: C6_6  and  C7_7
REMARK    4  A    between atoms: N1_9  and  C8_10
REMARK    5  A    between atoms: C10_12  and  N2_13
REMARK    6  A    between atoms: N2_13  and  C11_14
REMARK    7  A    between atoms: C12_15  and  C13_17
REMARK    8  A    between atoms: C14_20  and  C15_21
REMARK    9  A    between atoms: C16_22  and  O3_23
REMARK                            x       y       z     vdW  Elec       q    Type
REMARK                         _______ _______ _______ _____ _____    ______ ____
ROOT
ATOM      1  C8  UNL     1       0.417  -1.615   1.056  0.00  0.00    +0.077 C 
ATOM      2  C9  UNL     1      -0.362  -2.373  -0.023  0.00  0.00    +0.045 C 
ATOM      3  C10 UNL     1      -1.431  -1.278   0.000  0.00  0.00    +0.080 C 
ATOM      4  C17 UNL     1      -0.619  -0.490   1.026  0.00  0.00    +0.045 C 
ENDROOT
BRANCH   1   7
ATOM      5  C7  UNL     1       2.597  -0.423   1.506  0.00  0.00    +0.261 C 
ATOM      6  O1  UNL     1       2.253  -0.238   2.705  0.00  0.00    -0.269 OA
ATOM      7  N1  UNL     1       1.744  -1.167   0.625  0.00  0.00    -0.307 N 
ATOM      8  H8  UNL     1       2.135  -1.513  -0.280  0.00  0.00    +0.149 HD
BRANCH   5  14
ATOM      9  C1  UNL     1       7.322   1.048   1.693  0.00  0.00    +0.063 C 
ATOM     10  C2  UNL     1       5.978   0.708   1.139  0.00  0.00    +0.014 A 
ATOM     11  C3  UNL     1       5.558   0.964  -0.152  0.00  0.00    +0.026 A 
ATOM     12  C4  UNL     1       4.233   0.574  -0.208  0.00  0.00    -0.020 A 
ATOM     13  C5  UNL     1       3.336   0.738  -1.393  0.00  0.00    +0.046 C 
ATOM     14  C6  UNL     1       3.905   0.089   1.054  0.00  0.00    +0.105 A 
ATOM     15  N5  UNL     1       4.971   0.197   1.871  0.00  0.00    -0.354 N 
ATOM     16  H23 UNL     1       5.010  -0.063   2.882  0.00  0.00    +0.166 HD
ENDBRANCH   5  14
ENDBRANCH   1   7
BRANCH   3  17
ATOM     17  N2  UNL     1      -1.622  -0.568  -1.283  0.00  0.00    -0.296 N 
ATOM     18  C11 UNL     1      -0.501  -0.118  -2.117  0.00  0.00    +0.132 C 
ATOM     19  C12 UNL     1      -2.954  -0.288  -1.751  0.00  0.00    +0.270 C 
ATOM     20  O2  UNL     1      -3.215  -0.403  -2.980  0.00  0.00    -0.268 OA
BRANCH  19  21
ATOM     21  C13 UNL     1      -4.013   0.172  -0.831  0.00  0.00    +0.188 A 
ATOM     22  N3  UNL     1      -3.796   0.590   0.434  0.00  0.00    -0.165 NA
ATOM     23  N4  UNL     1      -4.959   0.963   0.948  0.00  0.00    -0.278 N 
ATOM     24  C14 UNL     1      -5.931   0.797   0.031  0.00  0.00    +0.075 A 
ATOM     25  C15 UNL     1      -7.369   1.145   0.239  0.00  0.00    +0.069 C 
ATOM     26  C16 UNL     1      -5.357   0.303  -1.119  0.00  0.00    +0.170 A 
ATOM     27  H16 UNL     1      -5.079   1.333   1.917  0.00  0.00    +0.189 HD
BRANCH  26  28
ATOM     28  O3  UNL     1      -5.992   0.003  -2.322  0.00  0.00    -0.503 OA
ATOM     29  H20 UNL     1      -6.989   0.139  -2.435  0.00  0.00    +0.292 HD
ENDBRANCH  26  28
ENDBRANCH  19  21
ENDBRANCH   3  17
TORSDOF 5
