REMARK  Name = /home/qwerty/github/datacon2025hack/step_04_hit_selection/docking/ligands/lig_260.pdb
REMARK  10 active torsions:
REMARK  status: ('A' for Active; 'I' for Inactive)
REMARK    1  A    between atoms: C1_1  and  C2_2
REMARK    2  A    between atoms: C2_2  and  C3_3
REMARK    3  A    between atoms: C2_2  and  C4_4
REMARK    4  A    between atoms: C5_6  and  C6_7
REMARK    5  A    between atoms: N2_9  and  C7_10
REMARK    6  A    between atoms: C13_17  and  C14_19
REMARK    7  A    between atoms: C14_19  and  O3_20
REMARK    8  A    between atoms: C14_19  and  C15_21
REMARK    9  A    between atoms: C15_21  and  C16_22
REMARK   10  A    between atoms: C15_21  and  C17_23
REMARK                            x       y       z     vdW  Elec       q    Type
REMARK                         _______ _______ _______ _____ _____    ______ ____
ROOT
ATOM      1  C7  UNL     1      -0.071  -1.959  -0.520  0.00  0.00    +0.095 C 
ATOM      2  C8  UNL     1      -0.781  -1.257  -1.697  0.00  0.00    +0.046 C 
ATOM      3  C9  UNL     1      -2.204  -1.089  -1.144  0.00  0.00    +0.078 C 
ATOM      4  C10 UNL     1      -2.892  -2.464  -1.138  0.00  0.00    +0.024 C 
ATOM      5  C11 UNL     1      -2.199  -3.151   0.047  0.00  0.00    +0.026 C 
ATOM      6  C12 UNL     1      -1.219  -2.058   0.506  0.00  0.00    +0.097 C 
ATOM      7  N3  UNL     1      -1.959  -0.837   0.263  0.00  0.00    -0.291 N 
ATOM      8  C13 UNL     1      -2.889  -0.242   1.185  0.00  0.00    +0.245 C 
ATOM      9  O2  UNL     1      -3.076  -0.774   2.313  0.00  0.00    -0.273 OA
ENDROOT
BRANCH   1  12
ATOM     10  C6  UNL     1       2.254  -0.976  -0.745  0.00  0.00    +0.263 C 
ATOM     11  O1  UNL     1       2.439  -1.641  -1.801  0.00  0.00    -0.269 OA
ATOM     12  N2  UNL     1       1.031  -1.138  -0.008  0.00  0.00    -0.305 N 
ATOM     13  H8  UNL     1       0.940  -0.702   0.937  0.00  0.00    +0.149 HD
BRANCH  10  16
ATOM     14  C4  UNL     1       5.363   0.883  -0.360  0.00  0.00    +0.082 A 
ATOM     15  N1  UNL     1       4.533  -0.035  -0.900  0.00  0.00    -0.239 NA
ATOM     16  C5  UNL     1       3.313  -0.051  -0.294  0.00  0.00    +0.133 A 
ATOM     17  C18 UNL     1       3.164   0.875   0.741  0.00  0.00    +0.080 A 
ATOM     18  S1  UNL     1       4.608   1.722   0.889  0.00  0.00    -0.080 S 
BRANCH  14  20
ATOM     19  C1  UNL     1       7.778   0.877   0.277  0.00  0.00    +0.014 C 
ATOM     20  C2  UNL     1       6.766   1.114  -0.848  0.00  0.00    +0.038 C 
ATOM     21  C3  UNL     1       6.909   2.524  -1.429  0.00  0.00    +0.014 C 
ENDBRANCH  14  20
ENDBRANCH  10  16
ENDBRANCH   1  12
BRANCH   8  22
ATOM     22  C14 UNL     1      -3.560   1.070   0.866  0.00  0.00    +0.203 C 
BRANCH  22  23
ATOM     23  C15 UNL     1      -5.097   0.998   1.066  0.00  0.00    +0.020 C 
ATOM     24  C16 UNL     1      -5.732  -0.101   0.198  0.00  0.00    +0.010 C 
ATOM     25  C17 UNL     1      -5.755   2.349   0.745  0.00  0.00    +0.010 C 
ENDBRANCH  22  23
BRANCH  22  26
ATOM     26  O3  UNL     1      -3.012   2.046   1.717  0.00  0.00    -0.382 OA
ATOM     27  H19 UNL     1      -2.937   2.888   1.195  0.00  0.00    +0.210 HD
ENDBRANCH  22  26
ENDBRANCH   8  22
TORSDOF 6
