REMARK  Name = /home/qwerty/github/datacon2025hack/step_04_hit_selection/docking/ligands/lig_645.pdb
REMARK  9 active torsions:
REMARK  status: ('A' for Active; 'I' for Inactive)
REMARK    1  A    between atoms: C1_1  and  C2_2
REMARK    2  A    between atoms: C2_2  and  C3_3
REMARK    3  A    between atoms: C2_2  and  N1_4
REMARK    4  A    between atoms: N1_4  and  C4_5
REMARK    5  A    between atoms: N1_4  and  C5_6
REMARK    6  A    between atoms: C5_6  and  C6_7
REMARK    7  A    between atoms: C10_13  and  N3_14
REMARK    8  A    between atoms: C11_15  and  C12_17
REMARK    9  A    between atoms: C14_20  and  C15_21
REMARK                            x       y       z     vdW  Elec       q    Type
REMARK                         _______ _______ _______ _____ _____    ______ ____
ROOT
ATOM      1  N3  UNL     1       2.288  -1.228  -0.189  0.00  0.00    -0.307 N 
ATOM      2  C11 UNL     1       2.897  -0.140   0.526  0.00  0.00    +0.246 C 
ATOM      3  O2  UNL     1       2.216   0.535   1.345  0.00  0.00    -0.270 OA
ATOM      4  H20 UNL     1       2.801  -1.650  -0.994  0.00  0.00    +0.149 HD
ENDROOT
BRANCH   1  11
ATOM      5  C6  UNL     1      -2.433  -0.251  -1.144  0.00  0.00    +0.230 C 
ATOM      6  O1  UNL     1      -2.168   0.711  -1.917  0.00  0.00    -0.274 OA
ATOM      7  N2  UNL     1      -1.408  -1.217  -0.831  0.00  0.00    -0.299 N 
ATOM      8  C7  UNL     1      -1.765  -2.574  -0.384  0.00  0.00    +0.108 C 
ATOM      9  C8  UNL     1      -0.642  -3.570  -0.693  0.00  0.00    +0.021 C 
ATOM     10  C9  UNL     1       0.709  -3.136  -0.096  0.00  0.00    +0.025 C 
ATOM     11  C10 UNL     1       0.882  -1.600  -0.002  0.00  0.00    +0.091 C 
ATOM     12  C17 UNL     1       0.006  -0.860  -1.023  0.00  0.00    +0.130 C 
BRANCH   5  13
ATOM     13  C5  UNL     1      -3.834  -0.380  -0.603  0.00  0.00    +0.180 C 
BRANCH  13  14
ATOM     14  N1  UNL     1      -4.381   0.949  -0.251  0.00  0.00    -0.295 NA
ATOM     15  C4  UNL     1      -3.784   1.445   1.008  0.00  0.00    +0.105 C 
BRANCH  14  17
ATOM     16  C1  UNL     1      -6.402   2.398  -0.384  0.00  0.00    +0.024 C 
ATOM     17  C2  UNL     1      -5.870   0.964  -0.260  0.00  0.00    +0.051 C 
ATOM     18  C3  UNL     1      -6.507   0.246   0.945  0.00  0.00    +0.024 C 
ENDBRANCH  14  17
ENDBRANCH  13  14
ENDBRANCH   5  13
ENDBRANCH   1  11
BRANCH   2  19
ATOM     19  C12 UNL     1       4.315   0.209   0.314  0.00  0.00    +0.055 A 
ATOM     20  C13 UNL     1       5.243  -0.468  -0.459  0.00  0.00    +0.096 A 
ATOM     21  N4  UNL     1       6.434   0.155  -0.392  0.00  0.00    -0.357 N 
ATOM     22  C14 UNL     1       6.275   1.221   0.417  0.00  0.00    +0.088 A 
ATOM     23  C16 UNL     1       4.974   1.288   0.877  0.00  0.00    +0.044 A 
ATOM     24  H22 UNL     1       7.311  -0.140  -0.875  0.00  0.00    +0.165 HD
BRANCH  22  25
ATOM     25  C15 UNL     1       7.349   2.164   0.753  0.00  0.00    +0.220 A 
ATOM     26  N5  UNL     1       7.197   3.233   1.559  0.00  0.00    -0.106 NA
ATOM     27  N6  UNL     1       8.391   3.803   1.592  0.00  0.00    -0.048 NA
ATOM     28  N7  UNL     1       9.224   3.107   0.838  0.00  0.00    -0.176 N 
ATOM     29  N8  UNL     1       8.611   2.071   0.294  0.00  0.00    -0.132 NA
ATOM     30  H23 UNL     1      10.230   3.344   0.693  0.00  0.00    +0.214 HD
ENDBRANCH  22  25
ENDBRANCH   2  19
TORSDOF 6
