REMARK  Name = /home/qwerty/github/datacon2025hack/step_04_hit_selection/docking/ligands/lig_305.pdb
REMARK  2 active torsions:
REMARK  status: ('A' for Active; 'I' for Inactive)
REMARK    1  A    between atoms: C1_2  and  C10_15
REMARK    2  A    between atoms: N1_3  and  C2_4
REMARK                            x       y       z     vdW  Elec       q    Type
REMARK                         _______ _______ _______ _____ _____    ______ ____
ROOT
ATOM      1  O1  UNL     1       0.745   0.263  -1.686  0.00  0.00    -0.270 OA
ATOM      2  C1  UNL     1       1.083   0.013  -0.496  0.00  0.00    +0.248 C 
ATOM      3  N1  UNL     1       0.071  -0.114   0.516  0.00  0.00    -0.280 N 
ATOM      4  H1  UNL     1       0.323   0.124   1.502  0.00  0.00    +0.155 HD
ENDROOT
BRANCH   3   5
ATOM      5  C2  UNL     1      -1.323  -0.241   0.199  0.00  0.00    +0.056 A 
ATOM      6  C3  UNL     1      -2.236   0.663   0.766  0.00  0.00    +0.074 A 
ATOM      7  C4  UNL     1      -3.599   0.559   0.480  0.00  0.00    +0.164 A 
ATOM      8  C5  UNL     1      -4.060  -0.439  -0.387  0.00  0.00    +0.164 A 
ATOM      9  C6  UNL     1      -3.167  -1.368  -0.925  0.00  0.00    +0.071 A 
ATOM     10  C7  UNL     1      -1.800  -1.280  -0.632  0.00  0.00    +0.066 A 
ATOM     11 CL1  UNL     1      -0.728  -2.526  -1.261  0.00  0.00    -0.081 Cl
ATOM     12  O2  UNL     1      -5.424  -0.495  -0.695  0.00  0.00    -0.485 OA
ATOM     13  C8  UNL     1      -6.298   0.591  -0.375  0.00  0.00    +0.270 C 
ATOM     14  C9  UNL     1      -5.925   1.188   0.989  0.00  0.00    +0.270 C 
ATOM     15  O3  UNL     1      -4.519   1.444   1.049  0.00  0.00    -0.485 OA
ENDBRANCH   3   5
BRANCH   2  16
ATOM     16  C10 UNL     1       2.520  -0.117  -0.157  0.00  0.00    +0.041 A 
ATOM     17  C11 UNL     1       2.932  -0.770   1.037  0.00  0.00    +0.017 A 
ATOM     18  C12 UNL     1       4.297  -0.897   1.351  0.00  0.00    +0.050 A 
ATOM     19  C13 UNL     1       5.222  -0.372   0.456  0.00  0.00    +0.166 A 
ATOM     20  C14 UNL     1       4.842   0.245  -0.690  0.00  0.00    +0.167 A 
ATOM     21  C15 UNL     1       3.503   0.393  -1.040  0.00  0.00    +0.062 A 
ATOM     22  O4  UNL     1       5.962   0.662  -1.382  0.00  0.00    -0.453 OA
ATOM     23  C16 UNL     1       7.119   0.283  -0.623  0.00  0.00    +0.466 C 
ATOM     24  O5  UNL     1       6.601  -0.374   0.542  0.00  0.00    -0.453 OA
ENDBRANCH   2  16
TORSDOF 2
