REMARK  Name = /home/qwerty/github/datacon2025hack/step_04_hit_selection/docking/ligands/lig_454.pdb
REMARK  3 active torsions:
REMARK  status: ('A' for Active; 'I' for Inactive)
REMARK    1  A    between atoms: C1_2  and  C13_17
REMARK    2  A    between atoms: N1_3  and  C2_4
REMARK    3  A    between atoms: C2_4  and  C3_5
REMARK                            x       y       z     vdW  Elec       q    Type
REMARK                         _______ _______ _______ _____ _____    ______ ____
ROOT
ATOM      1  O1  UNL     1       0.733   0.512  -2.618  0.00  0.00    -0.270 OA
ATOM      2  C1  UNL     1       0.102   0.195  -1.573  0.00  0.00    +0.245 C 
ATOM      3  N1  UNL     1       0.656  -0.784  -0.680  0.00  0.00    -0.302 N 
ATOM      4  H1  UNL     1       0.269  -0.886   0.284  0.00  0.00    +0.150 HD
ENDROOT
BRANCH   2   5
ATOM      5  C13 UNL     1      -1.194   0.851  -1.280  0.00  0.00    +0.037 A 
ATOM      6  C14 UNL     1      -1.494   2.110  -1.857  0.00  0.00    +0.015 A 
ATOM      7  C15 UNL     1      -2.717   2.747  -1.596  0.00  0.00    +0.024 A 
ATOM      8  C16 UNL     1      -3.632   2.110  -0.763  0.00  0.00    +0.038 A 
ATOM      9  C17 UNL     1      -3.363   0.879  -0.201  0.00  0.00    -0.011 A 
ATOM     10  C18 UNL     1      -2.151   0.227  -0.447  0.00  0.00    +0.019 A 
ATOM     11  C19 UNL     1      -4.526   0.419   0.641  0.00  0.00    +0.074 C 
ATOM     12  C20 UNL     1      -5.147  -0.892   0.166  0.00  0.00    +0.021 C 
ATOM     13  C21 UNL     1      -5.796  -1.505   1.402  0.00  0.00    +0.001 C 
ATOM     14  C22 UNL     1      -5.184  -0.816   2.625  0.00  0.00    +0.001 C 
ATOM     15  C23 UNL     1      -4.170   0.200   2.109  0.00  0.00    +0.021 C 
ATOM     16  C24 UNL     1      -5.458   1.594   0.448  0.00  0.00    +0.228 C 
ATOM     17  O4  UNL     1      -6.602   1.693   0.968  0.00  0.00    -0.274 OA
ATOM     18  N2  UNL     1      -4.909   2.599  -0.396  0.00  0.00    -0.284 N 
ATOM     19  H24 UNL     1      -5.353   3.499  -0.685  0.00  0.00    +0.155 HD
ENDBRANCH   2   5
BRANCH   3  20
ATOM     20  C2  UNL     1       1.889  -1.501  -0.993  0.00  0.00    +0.060 C 
ATOM     21  C11 UNL     1       1.828  -2.994  -0.702  0.00  0.00    +0.033 C 
ATOM     22  C12 UNL     1       1.809  -2.496  -2.142  0.00  0.00    +0.033 C 
BRANCH  20  23
ATOM     23  C3  UNL     1       3.192  -0.813  -0.698  0.00  0.00    -0.020 A 
ATOM     24  C4  UNL     1       3.889  -0.141  -1.717  0.00  0.00    +0.009 A 
ATOM     25  C5  UNL     1       5.087   0.524  -1.432  0.00  0.00    +0.050 A 
ATOM     26  C6  UNL     1       5.586   0.530  -0.128  0.00  0.00    +0.162 A 
ATOM     27  C7  UNL     1       4.873  -0.099   0.901  0.00  0.00    +0.162 A 
ATOM     28  C8  UNL     1       3.684  -0.778   0.617  0.00  0.00    +0.055 A 
ATOM     29  O2  UNL     1       5.367  -0.036   2.208  0.00  0.00    -0.485 OA
ATOM     30  C9  UNL     1       6.415   0.871   2.558  0.00  0.00    +0.270 C 
ATOM     31  C10 UNL     1       7.449   0.950   1.427  0.00  0.00    +0.270 C 
ATOM     32  O3  UNL     1       6.796   1.164   0.173  0.00  0.00    -0.485 OA
ENDBRANCH  20  23
ENDBRANCH   3  20
TORSDOF 3
