MODEL 1
REMARK VINA RESULT:    -6.507      0.000      0.000
REMARK INTER + INTRA:          -8.425
REMARK INTER:                  -7.648
REMARK INTRA:                  -0.777
REMARK UNBOUND:                -0.777
REMARK  Name = /home/qwerty/github/datacon2025hack/step_04_hit_selection/docking/ligands/lig_216.pdb
REMARK  3 active torsions:
REMARK  status: ('A' for Active; 'I' for Inactive)
REMARK    1  A    between atoms: N1_3  and  C2_4
REMARK    2  A    between atoms: N2_13  and  C9_14
REMARK    3  A    between atoms: C14_20  and  N3_21
REMARK                            x       y       z     vdW  Elec       q    Type
REMARK                         _______ _______ _______ _____ _____    ______ ____
ROOT
ATOM      1  O1  UNL     1      12.014   4.645  21.951  0.00  0.00    -0.252 OA
ATOM      2  C1  UNL     1      11.438   4.210  20.917  0.00  0.00    +0.308 C 
ATOM      3  N1  UNL     1      11.798   2.934  20.370  0.00  0.00    -0.269 N 
ATOM      4  N2  UNL     1      10.380   4.966  20.312  0.00  0.00    -0.268 N 
ATOM      5  H1  UNL     1      11.109   2.462  19.742  0.00  0.00    +0.156 HD
ATOM      6  H7  UNL     1       9.737   4.475  19.651  0.00  0.00    +0.156 HD
ENDROOT
BRANCH   3   7
ATOM      7  C2  UNL     1      13.022   2.242  20.675  0.00  0.00    +0.038 A 
ATOM      8  C3  UNL     1      14.238   2.704  20.110  0.00  0.00    +0.027 A 
ATOM      9  C4  UNL     1      15.456   2.067  20.411  0.00  0.00    +0.051 A 
ATOM     10  C5  UNL     1      15.424   0.986  21.286  0.00  0.00    +0.166 A 
ATOM     11  C6  UNL     1      14.270   0.549  21.844  0.00  0.00    +0.168 A 
ATOM     12  C7  UNL     1      13.043   1.148  21.573  0.00  0.00    +0.073 A 
ATOM     13  O2  UNL     1      14.537  -0.522  22.675  0.00  0.00    -0.453 OA
ATOM     14  C8  UNL     1      15.949  -0.773  22.633  0.00  0.00    +0.466 C 
ATOM     15  O3  UNL     1      16.477   0.212  21.734  0.00  0.00    -0.453 OA
ENDBRANCH   3   7
BRANCH   4  16
ATOM     16  C9  UNL     1      10.038   6.294  20.731  0.00  0.00    +0.057 A 
ATOM     17  C10 UNL     1      10.628   7.381  20.070  0.00  0.00    +0.040 A 
ATOM     18  C11 UNL     1      10.284   8.692  20.410  0.00  0.00    +0.020 A 
ATOM     19 BR1  UNL     1      11.080  10.161  19.485  0.00  0.00    -0.050 Br
ATOM     20  C12 UNL     1       9.354   8.926  21.424  0.00  0.00    +0.017 A 
ATOM     21  C13 UNL     1       8.780   7.855  22.111  0.00  0.00    +0.026 A 
ATOM     22  C14 UNL     1       9.122   6.531  21.785  0.00  0.00    +0.051 A 
BRANCH  22  23
ATOM     23  N3  UNL     1       8.592   5.447  22.571  0.00  0.00    -0.328 N 
ATOM     24  C15 UNL     1       9.100   5.106  23.890  0.00  0.00    +0.105 C 
ATOM     25  C16 UNL     1       8.047   4.197  24.514  0.00  0.00    +0.020 C 
ATOM     26  C17 UNL     1       7.155   3.738  23.364  0.00  0.00    +0.020 C 
ATOM     27  C18 UNL     1       7.356   4.754  22.249  0.00  0.00    +0.105 C 
ENDBRANCH  22  23
ENDBRANCH   4  16
TORSDOF 3
ENDMDL
MODEL 2
REMARK VINA RESULT:    -6.493      9.082     10.982
REMARK INTER + INTRA:          -8.408
REMARK INTER:                  -7.932
REMARK INTRA:                  -0.477
REMARK UNBOUND:                -0.777
REMARK  Name = /home/qwerty/github/datacon2025hack/step_04_hit_selection/docking/ligands/lig_216.pdb
REMARK  3 active torsions:
REMARK  status: ('A' for Active; 'I' for Inactive)
REMARK    1  A    between atoms: N1_3  and  C2_4
REMARK    2  A    between atoms: N2_13  and  C9_14
REMARK    3  A    between atoms: C14_20  and  N3_21
REMARK                            x       y       z     vdW  Elec       q    Type
REMARK                         _______ _______ _______ _____ _____    ______ ____
ROOT
ATOM      1  O1  UNL     1      18.517   1.664  25.042  0.00  0.00    -0.252 OA
ATOM      2  C1  UNL     1      19.411   0.776  25.054  0.00  0.00    +0.308 C 
ATOM      3  N1  UNL     1      19.061  -0.606  24.889  0.00  0.00    -0.269 N 
ATOM      4  N2  UNL     1      20.791   1.146  25.178  0.00  0.00    -0.268 N 
ATOM      5  H1  UNL     1      19.811  -1.263  24.576  0.00  0.00    +0.156 HD
ATOM      6  H7  UNL     1      21.517   0.447  24.903  0.00  0.00    +0.156 HD
ENDROOT
BRANCH   3   7
ATOM      7  C2  UNL     1      17.734  -1.129  25.073  0.00  0.00    +0.038 A 
ATOM      8  C3  UNL     1      17.283  -2.183  24.237  0.00  0.00    +0.027 A 
ATOM      9  C4  UNL     1      16.001  -2.736  24.409  0.00  0.00    +0.051 A 
ATOM     10  C5  UNL     1      15.205  -2.225  25.430  0.00  0.00    +0.166 A 
ATOM     11  C6  UNL     1      15.635  -1.231  26.245  0.00  0.00    +0.168 A 
ATOM     12  C7  UNL     1      16.894  -0.655  26.108  0.00  0.00    +0.073 A 
ATOM     13  O2  UNL     1      14.650  -0.935  27.168  0.00  0.00    -0.453 OA
ATOM     14  C8  UNL     1      13.532  -1.798  26.913  0.00  0.00    +0.466 C 
ATOM     15  O3  UNL     1      13.928  -2.604  25.796  0.00  0.00    -0.453 OA
ENDBRANCH   3   7
BRANCH   4  16
ATOM     16  C9  UNL     1      21.211   2.488  25.457  0.00  0.00    +0.057 A 
ATOM     17  C10 UNL     1      21.391   3.373  24.383  0.00  0.00    +0.040 A 
ATOM     18  C11 UNL     1      21.749   4.704  24.612  0.00  0.00    +0.020 A 
ATOM     19 BR1  UNL     1      21.968   5.902  23.141  0.00  0.00    -0.050 Br
ATOM     20  C12 UNL     1      21.943   5.159  25.917  0.00  0.00    +0.017 A 
ATOM     21  C13 UNL     1      21.796   4.282  26.994  0.00  0.00    +0.026 A 
ATOM     22  C14 UNL     1      21.443   2.939  26.779  0.00  0.00    +0.051 A 
BRANCH  22  23
ATOM     23  N3  UNL     1      21.394   2.030  27.896  0.00  0.00    -0.328 N 
ATOM     24  C15 UNL     1      22.583   1.440  28.488  0.00  0.00    +0.105 C 
ATOM     25  C16 UNL     1      22.139   0.881  29.834  0.00  0.00    +0.020 C 
ATOM     26  C17 UNL     1      20.615   0.831  29.785  0.00  0.00    +0.020 C 
ATOM     27  C18 UNL     1      20.200   1.809  28.695  0.00  0.00    +0.105 C 
ENDBRANCH  22  23
ENDBRANCH   4  16
TORSDOF 3
ENDMDL
MODEL 3
REMARK VINA RESULT:    -6.370     11.845     14.532
REMARK INTER + INTRA:          -8.264
REMARK INTER:                  -7.616
REMARK INTRA:                  -0.648
REMARK UNBOUND:                -0.777
REMARK  Name = /home/qwerty/github/datacon2025hack/step_04_hit_selection/docking/ligands/lig_216.pdb
REMARK  3 active torsions:
REMARK  status: ('A' for Active; 'I' for Inactive)
REMARK    1  A    between atoms: N1_3  and  C2_4
REMARK    2  A    between atoms: N2_13  and  C9_14
REMARK    3  A    between atoms: C14_20  and  N3_21
REMARK                            x       y       z     vdW  Elec       q    Type
REMARK                         _______ _______ _______ _____ _____    ______ ____
ROOT
ATOM      1  O1  UNL     1      11.562  12.254  31.326  0.00  0.00    -0.252 OA
ATOM      2  C1  UNL     1      10.893  13.319  31.239  0.00  0.00    +0.308 C 
ATOM      3  N1  UNL     1      11.108  14.388  32.171  0.00  0.00    -0.269 N 
ATOM      4  N2  UNL     1       9.949  13.489  30.173  0.00  0.00    -0.268 N 
ATOM      5  H1  UNL     1      10.801  15.347  31.890  0.00  0.00    +0.156 HD
ATOM      6  H7  UNL     1       9.624  14.457  29.949  0.00  0.00    +0.156 HD
ENDROOT
BRANCH   3   7
ATOM      7  C2  UNL     1      11.768  14.233  33.438  0.00  0.00    +0.038 A 
ATOM      8  C3  UNL     1      11.008  13.848  34.573  0.00  0.00    +0.027 A 
ATOM      9  C4  UNL     1      11.629  13.660  35.821  0.00  0.00    +0.051 A 
ATOM     10  C5  UNL     1      13.005  13.849  35.898  0.00  0.00    +0.166 A 
ATOM     11  C6  UNL     1      13.742  14.198  34.816  0.00  0.00    +0.168 A 
ATOM     12  C7  UNL     1      13.168  14.397  33.563  0.00  0.00    +0.073 A 
ATOM     13  O2  UNL     1      15.071  14.303  35.178  0.00  0.00    -0.453 OA
ATOM     14  C8  UNL     1      15.172  14.002  36.578  0.00  0.00    +0.466 C 
ATOM     15  O3  UNL     1      13.831  13.718  36.997  0.00  0.00    -0.453 OA
ENDBRANCH   3   7
BRANCH   4  16
ATOM     16  C9  UNL     1       9.598  12.430  29.271  0.00  0.00    +0.057 A 
ATOM     17  C10 UNL     1       8.574  11.545  29.639  0.00  0.00    +0.040 A 
ATOM     18  C11 UNL     1       8.164  10.532  28.769  0.00  0.00    +0.020 A 
ATOM     19 BR1  UNL     1       6.752   9.349  29.276  0.00  0.00    -0.050 Br
ATOM     20  C12 UNL     1       8.784  10.387  27.528  0.00  0.00    +0.017 A 
ATOM     21  C13 UNL     1       9.825  11.242  27.160  0.00  0.00    +0.026 A 
ATOM     22  C14 UNL     1      10.253  12.261  28.027  0.00  0.00    +0.051 A 
BRANCH  22  23
ATOM     23  N3  UNL     1      11.392  13.066  27.669  0.00  0.00    -0.328 N 
ATOM     24  C15 UNL     1      11.295  14.487  27.374  0.00  0.00    +0.105 C 
ATOM     25  C16 UNL     1      12.722  15.018  27.432  0.00  0.00    +0.020 C 
ATOM     26  C17 UNL     1      13.629  13.792  27.374  0.00  0.00    +0.020 C 
ATOM     27  C18 UNL     1      12.767  12.615  27.808  0.00  0.00    +0.105 C 
ENDBRANCH  22  23
ENDBRANCH   4  16
TORSDOF 3
ENDMDL
MODEL 4
REMARK VINA RESULT:    -6.245     13.520     16.109
REMARK INTER + INTRA:          -8.117
REMARK INTER:                  -7.675
REMARK INTRA:                  -0.442
REMARK UNBOUND:                -0.777
REMARK  Name = /home/qwerty/github/datacon2025hack/step_04_hit_selection/docking/ligands/lig_216.pdb
REMARK  3 active torsions:
REMARK  status: ('A' for Active; 'I' for Inactive)
REMARK    1  A    between atoms: N1_3  and  C2_4
REMARK    2  A    between atoms: N2_13  and  C9_14
REMARK    3  A    between atoms: C14_20  and  N3_21
REMARK                            x       y       z     vdW  Elec       q    Type
REMARK                         _______ _______ _______ _____ _____    ______ ____
ROOT
ATOM      1  O1  UNL     1      21.014   4.577  32.986  0.00  0.00    -0.252 OA
ATOM      2  C1  UNL     1      22.020   3.841  32.798  0.00  0.00    +0.308 C 
ATOM      3  N1  UNL     1      23.341   4.399  32.825  0.00  0.00    -0.269 N 
ATOM      4  N2  UNL     1      21.852   2.429  32.610  0.00  0.00    -0.268 N 
ATOM      5  H1  UNL     1      24.140   3.748  32.997  0.00  0.00    +0.156 HD
ATOM      6  H7  UNL     1      22.684   1.810  32.742  0.00  0.00    +0.156 HD
ENDROOT
BRANCH   3   7
ATOM      7  C2  UNL     1      23.627   5.802  32.685  0.00  0.00    +0.038 A 
ATOM      8  C3  UNL     1      24.526   6.419  33.592  0.00  0.00    +0.027 A 
ATOM      9  C4  UNL     1      24.849   7.783  33.466  0.00  0.00    +0.051 A 
ATOM     10  C5  UNL     1      24.269   8.492  32.419  0.00  0.00    +0.166 A 
ATOM     11  C6  UNL     1      23.424   7.907  31.537  0.00  0.00    +0.168 A 
ATOM     12  C7  UNL     1      23.076   6.562  31.626  0.00  0.00    +0.073 A 
ATOM     13  O2  UNL     1      23.015   8.839  30.602  0.00  0.00    -0.453 OA
ATOM     14  C8  UNL     1      23.643  10.089  30.922  0.00  0.00    +0.466 C 
ATOM     15  O3  UNL     1      24.434   9.823  32.088  0.00  0.00    -0.453 OA
ENDBRANCH   3   7
BRANCH   4  16
ATOM     16  C9  UNL     1      20.565   1.814  32.461  0.00  0.00    +0.057 A 
ATOM     17  C10 UNL     1      19.767   1.639  33.601  0.00  0.00    +0.040 A 
ATOM     18  C11 UNL     1      18.486   1.093  33.494  0.00  0.00    +0.020 A 
ATOM     19 BR1  UNL     1      17.403   0.881  35.053  0.00  0.00    -0.050 Br
ATOM     20  C12 UNL     1      17.996   0.705  32.246  0.00  0.00    +0.017 A 
ATOM     21  C13 UNL     1      18.790   0.847  31.106  0.00  0.00    +0.026 A 
ATOM     22  C14 UNL     1      20.083   1.388  31.199  0.00  0.00    +0.051 A 
BRANCH  22  23
ATOM     23  N3  UNL     1      20.920   1.433  30.028  0.00  0.00    -0.328 N 
ATOM     24  C15 UNL     1      21.058   2.620  29.200  0.00  0.00    +0.105 C 
ATOM     25  C16 UNL     1      22.289   2.378  28.335  0.00  0.00    +0.020 C 
ATOM     26  C17 UNL     1      22.579   0.883  28.428  0.00  0.00    +0.020 C 
ATOM     27  C18 UNL     1      21.890   0.403  29.698  0.00  0.00    +0.105 C 
ENDBRANCH  22  23
ENDBRANCH   4  16
TORSDOF 3
ENDMDL
MODEL 5
REMARK VINA RESULT:    -6.137     13.712     16.246
REMARK INTER + INTRA:          -7.991
REMARK INTER:                  -7.209
REMARK INTRA:                  -0.782
REMARK UNBOUND:                -0.777
REMARK  Name = /home/qwerty/github/datacon2025hack/step_04_hit_selection/docking/ligands/lig_216.pdb
REMARK  3 active torsions:
REMARK  status: ('A' for Active; 'I' for Inactive)
REMARK    1  A    between atoms: N1_3  and  C2_4
REMARK    2  A    between atoms: N2_13  and  C9_14
REMARK    3  A    between atoms: C14_20  and  N3_21
REMARK                            x       y       z     vdW  Elec       q    Type
REMARK                         _______ _______ _______ _____ _____    ______ ____
ROOT
ATOM      1  O1  UNL     1      13.668  12.124  33.125  0.00  0.00    -0.252 OA
ATOM      2  C1  UNL     1      13.405  13.171  33.777  0.00  0.00    +0.308 C 
ATOM      3  N1  UNL     1      12.521  14.161  33.230  0.00  0.00    -0.269 N 
ATOM      4  N2  UNL     1      13.946  13.355  35.092  0.00  0.00    -0.268 N 
ATOM      5  H1  UNL     1      12.069  14.828  33.895  0.00  0.00    +0.156 HD
ATOM      6  H7  UNL     1      13.500  14.066  35.715  0.00  0.00    +0.156 HD
ENDROOT
BRANCH   3   7
ATOM      7  C2  UNL     1      12.177  14.254  31.837  0.00  0.00    +0.038 A 
ATOM      8  C3  UNL     1      13.095  14.852  30.936  0.00  0.00    +0.027 A 
ATOM      9  C4  UNL     1      12.801  14.933  29.562  0.00  0.00    +0.051 A 
ATOM     10  C5  UNL     1      11.595  14.397  29.123  0.00  0.00    +0.166 A 
ATOM     11  C6  UNL     1      10.720  13.807  29.974  0.00  0.00    +0.168 A 
ATOM     12  C7  UNL     1      10.970  13.707  31.340  0.00  0.00    +0.073 A 
ATOM     13  O2  UNL     1       9.622  13.357  29.267  0.00  0.00    -0.453 OA
ATOM     14  C8  UNL     1       9.821  13.688  27.884  0.00  0.00    +0.466 C 
ATOM     15  O3  UNL     1      11.092  14.351  27.838  0.00  0.00    -0.453 OA
ENDBRANCH   3   7
BRANCH   4  16
ATOM     16  C9  UNL     1      14.920  12.469  35.660  0.00  0.00    +0.057 A 
ATOM     17  C10 UNL     1      16.280  12.771  35.497  0.00  0.00    +0.040 A 
ATOM     18  C11 UNL     1      17.262  11.965  36.079  0.00  0.00    +0.020 A 
ATOM     19 BR1  UNL     1      19.108  12.403  35.868  0.00  0.00    -0.050 Br
ATOM     20  C12 UNL     1      16.891  10.841  36.819  0.00  0.00    +0.017 A 
ATOM     21  C13 UNL     1      15.542  10.511  36.965  0.00  0.00    +0.026 A 
ATOM     22  C14 UNL     1      14.544  11.308  36.380  0.00  0.00    +0.051 A 
BRANCH  22  23
ATOM     23  N3  UNL     1      13.166  10.895  36.460  0.00  0.00    -0.328 N 
ATOM     24  C15 UNL     1      12.622   9.802  35.671  0.00  0.00    +0.105 C 
ATOM     25  C16 UNL     1      11.291   9.447  36.322  0.00  0.00    +0.020 C 
ATOM     26  C17 UNL     1      10.942  10.622  37.232  0.00  0.00    +0.020 C 
ATOM     27  C18 UNL     1      12.255  11.346  37.499  0.00  0.00    +0.105 C 
ENDBRANCH  22  23
ENDBRANCH   4  16
TORSDOF 3
ENDMDL
MODEL 6
REMARK VINA RESULT:    -6.136     14.772     16.266
REMARK INTER + INTRA:          -7.988
REMARK INTER:                  -7.312
REMARK INTRA:                  -0.676
REMARK UNBOUND:                -0.777
REMARK  Name = /home/qwerty/github/datacon2025hack/step_04_hit_selection/docking/ligands/lig_216.pdb
REMARK  3 active torsions:
REMARK  status: ('A' for Active; 'I' for Inactive)
REMARK    1  A    between atoms: N1_3  and  C2_4
REMARK    2  A    between atoms: N2_13  and  C9_14
REMARK    3  A    between atoms: C14_20  and  N3_21
REMARK                            x       y       z     vdW  Elec       q    Type
REMARK                         _______ _______ _______ _____ _____    ______ ____
ROOT
ATOM      1  O1  UNL     1      20.876   6.057  33.019  0.00  0.00    -0.252 OA
ATOM      2  C1  UNL     1      21.804   5.795  33.831  0.00  0.00    +0.308 C 
ATOM      3  N1  UNL     1      22.507   4.547  33.748  0.00  0.00    -0.269 N 
ATOM      4  N2  UNL     1      22.200   6.766  34.808  0.00  0.00    -0.268 N 
ATOM      5  H1  UNL     1      23.452   4.491  34.190  0.00  0.00    +0.156 HD
ATOM      6  H7  UNL     1      23.132   6.654  35.268  0.00  0.00    +0.156 HD
ENDROOT
BRANCH   3   7
ATOM      7  C2  UNL     1      22.017   3.389  33.050  0.00  0.00    +0.038 A 
ATOM      8  C3  UNL     1      21.010   2.592  33.651  0.00  0.00    +0.027 A 
ATOM      9  C4  UNL     1      20.488   1.470  32.982  0.00  0.00    +0.051 A 
ATOM     10  C5  UNL     1      20.983   1.182  31.714  0.00  0.00    +0.166 A 
ATOM     11  C6  UNL     1      21.932   1.949  31.123  0.00  0.00    +0.168 A 
ATOM     12  C7  UNL     1      22.476   3.066  31.750  0.00  0.00    +0.073 A 
ATOM     13  O2  UNL     1      22.221   1.441  29.871  0.00  0.00    -0.453 OA
ATOM     14  C8  UNL     1      21.403   0.280  29.666  0.00  0.00    +0.466 C 
ATOM     15  O3  UNL     1      20.628   0.151  30.866  0.00  0.00    -0.453 OA
ENDBRANCH   3   7
BRANCH   4  16
ATOM     16  C9  UNL     1      21.478   7.986  35.026  0.00  0.00    +0.057 A 
ATOM     17  C10 UNL     1      20.535   8.034  36.063  0.00  0.00    +0.040 A 
ATOM     18  C11 UNL     1      19.847   9.217  36.345  0.00  0.00    +0.020 A 
ATOM     19 BR1  UNL     1      18.583   9.272  37.775  0.00  0.00    -0.050 Br
ATOM     20  C12 UNL     1      20.088  10.360  35.581  0.00  0.00    +0.017 A 
ATOM     21  C13 UNL     1      21.002  10.320  34.526  0.00  0.00    +0.026 A 
ATOM     22  C14 UNL     1      21.696   9.135  34.227  0.00  0.00    +0.051 A 
BRANCH  22  23
ATOM     23  N3  UNL     1      22.559   9.089  33.075  0.00  0.00    -0.328 N 
ATOM     24  C15 UNL     1      22.071   9.250  31.715  0.00  0.00    +0.105 C 
ATOM     25  C16 UNL     1      23.306   9.524  30.865  0.00  0.00    +0.020 C 
ATOM     26  C17 UNL     1      24.503   9.119  31.720  0.00  0.00    +0.020 C 
ATOM     27  C18 UNL     1      24.009   9.131  33.160  0.00  0.00    +0.105 C 
ENDBRANCH  22  23
ENDBRANCH   4  16
TORSDOF 3
ENDMDL
MODEL 7
REMARK VINA RESULT:    -6.073      6.338      9.142
REMARK INTER + INTRA:          -7.915
REMARK INTER:                  -7.338
REMARK INTRA:                  -0.577
REMARK UNBOUND:                -0.777
REMARK  Name = /home/qwerty/github/datacon2025hack/step_04_hit_selection/docking/ligands/lig_216.pdb
REMARK  3 active torsions:
REMARK  status: ('A' for Active; 'I' for Inactive)
REMARK    1  A    between atoms: N1_3  and  C2_4
REMARK    2  A    between atoms: N2_13  and  C9_14
REMARK    3  A    between atoms: C14_20  and  N3_21
REMARK                            x       y       z     vdW  Elec       q    Type
REMARK                         _______ _______ _______ _____ _____    ______ ____
ROOT
ATOM      1  O1  UNL     1       9.792   9.942  26.057  0.00  0.00    -0.252 OA
ATOM      2  C1  UNL     1       8.631  10.432  26.086  0.00  0.00    +0.308 C 
ATOM      3  N1  UNL     1       7.666  10.067  25.089  0.00  0.00    -0.269 N 
ATOM      4  N2  UNL     1       8.252  11.318  27.148  0.00  0.00    -0.268 N 
ATOM      5  H1  UNL     1       6.656  10.213  25.315  0.00  0.00    +0.156 HD
ATOM      6  H7  UNL     1       7.233  11.481  27.315  0.00  0.00    +0.156 HD
ENDROOT
BRANCH   3   7
ATOM      7  C2  UNL     1       7.998   9.463  23.827  0.00  0.00    +0.038 A 
ATOM      8  C3  UNL     1       8.035  10.270  22.661  0.00  0.00    +0.027 A 
ATOM      9  C4  UNL     1       8.384   9.715  21.416  0.00  0.00    +0.051 A 
ATOM     10  C5  UNL     1       8.703   8.362  21.375  0.00  0.00    +0.166 A 
ATOM     11  C6  UNL     1       8.689   7.587  22.487  0.00  0.00    +0.168 A 
ATOM     12  C7  UNL     1       8.347   8.094  23.737  0.00  0.00    +0.073 A 
ATOM     13  O2  UNL     1       9.058   6.298  22.154  0.00  0.00    -0.453 OA
ATOM     14  C8  UNL     1       9.317   6.262  20.743  0.00  0.00    +0.466 C 
ATOM     15  O3  UNL     1       9.079   7.600  20.285  0.00  0.00    -0.453 OA
ENDBRANCH   3   7
BRANCH   4  16
ATOM     16  C9  UNL     1       9.187  11.816  28.114  0.00  0.00    +0.057 A 
ATOM     17  C10 UNL     1       9.972  12.928  27.779  0.00  0.00    +0.040 A 
ATOM     18  C11 UNL     1      10.858  13.479  28.709  0.00  0.00    +0.020 A 
ATOM     19 BR1  UNL     1      11.904  15.008  28.244  0.00  0.00    -0.050 Br
ATOM     20  C12 UNL     1      10.975  12.912  29.979  0.00  0.00    +0.017 A 
ATOM     21  C13 UNL     1      10.221  11.787  30.317  0.00  0.00    +0.026 A 
ATOM     22  C14 UNL     1       9.332  11.218  29.390  0.00  0.00    +0.051 A 
BRANCH  22  23
ATOM     23  N3  UNL     1       8.639  10.000  29.726  0.00  0.00    -0.328 N 
ATOM     24  C15 UNL     1       7.206   9.947  29.967  0.00  0.00    +0.105 C 
ATOM     25  C16 UNL     1       6.831   8.472  29.899  0.00  0.00    +0.020 C 
ATOM     26  C17 UNL     1       8.143   7.700  30.009  0.00  0.00    +0.020 C 
ATOM     27  C18 UNL     1       9.238   8.682  29.612  0.00  0.00    +0.105 C 
ENDBRANCH  22  23
ENDBRANCH   4  16
TORSDOF 3
ENDMDL
MODEL 8
REMARK VINA RESULT:    -6.033      2.694      4.430
REMARK INTER + INTRA:          -7.868
REMARK INTER:                  -7.066
REMARK INTRA:                  -0.802
REMARK UNBOUND:                -0.777
REMARK  Name = /home/qwerty/github/datacon2025hack/step_04_hit_selection/docking/ligands/lig_216.pdb
REMARK  3 active torsions:
REMARK  status: ('A' for Active; 'I' for Inactive)
REMARK    1  A    between atoms: N1_3  and  C2_4
REMARK    2  A    between atoms: N2_13  and  C9_14
REMARK    3  A    between atoms: C14_20  and  N3_21
REMARK                            x       y       z     vdW  Elec       q    Type
REMARK                         _______ _______ _______ _____ _____    ______ ____
ROOT
ATOM      1  O1  UNL     1      11.352   5.905  22.915  0.00  0.00    -0.252 OA
ATOM      2  C1  UNL     1      10.471   5.854  22.014  0.00  0.00    +0.308 C 
ATOM      3  N1  UNL     1      10.604   4.932  20.923  0.00  0.00    -0.269 N 
ATOM      4  N2  UNL     1       9.302   6.679  22.105  0.00  0.00    -0.268 N 
ATOM      5  H1  UNL     1       9.740   4.677  20.394  0.00  0.00    +0.156 HD
ATOM      6  H7  UNL     1       8.471   6.425  21.525  0.00  0.00    +0.156 HD
ENDROOT
BRANCH   3   7
ATOM      7  C2  UNL     1      11.840   4.298  20.549  0.00  0.00    +0.038 A 
ATOM      8  C3  UNL     1      12.848   5.067  19.913  0.00  0.00    +0.027 A 
ATOM      9  C4  UNL     1      14.079   4.483  19.560  0.00  0.00    +0.051 A 
ATOM     10  C5  UNL     1      14.273   3.141  19.868  0.00  0.00    +0.166 A 
ATOM     11  C6  UNL     1      13.322   2.403  20.492  0.00  0.00    +0.168 A 
ATOM     12  C7  UNL     1      12.091   2.940  20.856  0.00  0.00    +0.073 A 
ATOM     13  O2  UNL     1      13.789   1.116  20.682  0.00  0.00    -0.453 OA
ATOM     14  C8  UNL     1      15.116   1.043  20.140  0.00  0.00    +0.466 C 
ATOM     15  O3  UNL     1      15.385   2.356  19.631  0.00  0.00    -0.453 OA
ENDBRANCH   3   7
BRANCH   4  16
ATOM     16  C9  UNL     1       9.149   7.700  23.101  0.00  0.00    +0.057 A 
ATOM     17  C10 UNL     1       8.513   7.372  24.307  0.00  0.00    +0.040 A 
ATOM     18  C11 UNL     1       8.389   8.320  25.326  0.00  0.00    +0.020 A 
ATOM     19 BR1  UNL     1       7.542   7.851  26.972  0.00  0.00    -0.050 Br
ATOM     20  C12 UNL     1       8.889   9.610  25.140  0.00  0.00    +0.017 A 
ATOM     21  C13 UNL     1       9.497   9.960  23.933  0.00  0.00    +0.026 A 
ATOM     22  C14 UNL     1       9.623   9.019  22.897  0.00  0.00    +0.051 A 
BRANCH  22  23
ATOM     23  N3  UNL     1      10.165   9.429  21.627  0.00  0.00    -0.328 N 
ATOM     24  C15 UNL     1       9.384  10.140  20.628  0.00  0.00    +0.105 C 
ATOM     25  C16 UNL     1      10.398  10.711  19.644  0.00  0.00    +0.020 C 
ATOM     26  C17 UNL     1      11.705   9.968  19.909  0.00  0.00    +0.020 C 
ATOM     27  C18 UNL     1      11.584   9.403  21.317  0.00  0.00    +0.105 C 
ENDBRANCH  22  23
ENDBRANCH   4  16
TORSDOF 3
ENDMDL
MODEL 9
REMARK VINA RESULT:    -6.013      3.179      7.498
REMARK INTER + INTRA:          -7.844
REMARK INTER:                  -7.265
REMARK INTRA:                  -0.579
REMARK UNBOUND:                -0.777
REMARK  Name = /home/qwerty/github/datacon2025hack/step_04_hit_selection/docking/ligands/lig_216.pdb
REMARK  3 active torsions:
REMARK  status: ('A' for Active; 'I' for Inactive)
REMARK    1  A    between atoms: N1_3  and  C2_4
REMARK    2  A    between atoms: N2_13  and  C9_14
REMARK    3  A    between atoms: C14_20  and  N3_21
REMARK                            x       y       z     vdW  Elec       q    Type
REMARK                         _______ _______ _______ _____ _____    ______ ____
ROOT
ATOM      1  O1  UNL     1      11.911   4.671  21.427  0.00  0.00    -0.252 OA
ATOM      2  C1  UNL     1      11.067   3.929  20.856  0.00  0.00    +0.308 C 
ATOM      3  N1  UNL     1       9.883   4.493  20.275  0.00  0.00    -0.269 N 
ATOM      4  N2  UNL     1      11.311   2.521  20.737  0.00  0.00    -0.268 N 
ATOM      5  H1  UNL     1       9.386   3.934  19.545  0.00  0.00    +0.156 HD
ATOM      6  H7  UNL     1      10.762   1.982  20.031  0.00  0.00    +0.156 HD
ENDROOT
BRANCH   3   7
ATOM      7  C2  UNL     1       9.372   5.799  20.593  0.00  0.00    +0.038 A 
ATOM      8  C3  UNL     1       8.179   5.910  21.352  0.00  0.00    +0.027 A 
ATOM      9  C4  UNL     1       7.667   7.173  21.704  0.00  0.00    +0.051 A 
ATOM     10  C5  UNL     1       8.377   8.297  21.296  0.00  0.00    +0.166 A 
ATOM     11  C6  UNL     1       9.527   8.201  20.586  0.00  0.00    +0.168 A 
ATOM     12  C7  UNL     1      10.067   6.973  20.215  0.00  0.00    +0.073 A 
ATOM     13  O2  UNL     1      10.019   9.467  20.331  0.00  0.00    -0.453 OA
ATOM     14  C8  UNL     1       9.117  10.417  20.917  0.00  0.00    +0.466 C 
ATOM     15  O3  UNL     1       8.084   9.628  21.522  0.00  0.00    -0.453 OA
ENDBRANCH   3   7
BRANCH   4  16
ATOM     16  C9  UNL     1      12.411   1.868  21.385  0.00  0.00    +0.057 A 
ATOM     17  C10 UNL     1      13.551   1.560  20.628  0.00  0.00    +0.040 A 
ATOM     18  C11 UNL     1      14.666   0.971  21.230  0.00  0.00    +0.020 A 
ATOM     19 BR1  UNL     1      16.219   0.578  20.189  0.00  0.00    -0.050 Br
ATOM     20  C12 UNL     1      14.646   0.674  22.593  0.00  0.00    +0.017 A 
ATOM     21  C13 UNL     1      13.507   0.948  23.354  0.00  0.00    +0.026 A 
ATOM     22  C14 UNL     1      12.376   1.533  22.761  0.00  0.00    +0.051 A 
BRANCH  22  23
ATOM     23  N3  UNL     1      11.179   1.716  23.542  0.00  0.00    -0.328 N 
ATOM     24  C15 UNL     1      10.922   2.913  24.325  0.00  0.00    +0.105 C 
ATOM     25  C16 UNL     1       9.436   2.874  24.661  0.00  0.00    +0.020 C 
ATOM     26  C17 UNL     1       8.980   1.444  24.383  0.00  0.00    +0.020 C 
ATOM     27  C18 UNL     1      10.013   0.856  23.432  0.00  0.00    +0.105 C 
ENDBRANCH  22  23
ENDBRANCH   4  16
TORSDOF 3
ENDMDL
