REMARK  Name = /home/qwerty/github/datacon2025hack/step_04_hit_selection/docking/ligands/lig_184.pdb
REMARK  5 active torsions:
REMARK  status: ('A' for Active; 'I' for Inactive)
REMARK    1  A    between atoms: C1_1  and  C2_2
REMARK    2  A    between atoms: C2_2  and  N1_3
REMARK    3  A    between atoms: C2_2  and  C14_18
REMARK    4  A    between atoms: N2_6  and  C4_7
REMARK    5  A    between atoms: N3_10  and  C7_11
REMARK                            x       y       z     vdW  Elec       q    Type
REMARK                         _______ _______ _______ _____ _____    ______ ____
ROOT
ATOM      1  N1  UNL     1       2.369   0.500   2.809  0.00  0.00    -0.293 N 
ATOM      2  C3  UNL     1       1.212  -0.238   2.391  0.00  0.00    +0.300 C 
ATOM      3  O1  UNL     1       1.338  -1.408   1.923  0.00  0.00    -0.253 OA
ATOM      4  N2  UNL     1      -0.091   0.351   2.520  0.00  0.00    -0.295 N 
ATOM      5  H5  UNL     1       2.224   1.419   3.286  0.00  0.00    +0.151 HD
ATOM      6  H6  UNL     1      -0.156   1.323   2.900  0.00  0.00    +0.151 HD
ENDROOT
BRANCH   4   7
ATOM      7  C4  UNL     1      -1.315  -0.389   2.182  0.00  0.00    +0.090 C 
ATOM      8  C5  UNL     1      -2.549   0.317   2.695  0.00  0.00    +0.039 C 
ATOM      9  C6  UNL     1      -2.956   1.225   1.556  0.00  0.00    +0.086 C 
ATOM     10  N3  UNL     1      -2.524   0.594   0.288  0.00  0.00    -0.298 NA
ATOM     11  C13 UNL     1      -1.524  -0.436   0.668  0.00  0.00    +0.107 C 
BRANCH  10  12
ATOM     12  C7  UNL     1      -3.635   0.021  -0.533  0.00  0.00    +0.057 C 
ATOM     13  C8  UNL     1      -3.086  -0.462  -1.903  0.00  0.00    +0.019 C 
ATOM     14  C9  UNL     1      -4.171  -1.202  -2.727  0.00  0.00    +0.002 C 
ATOM     15  C10 UNL     1      -5.588  -0.648  -2.505  0.00  0.00    +0.000 C 
ATOM     16  C11 UNL     1      -5.563   0.832  -2.115  0.00  0.00    +0.002 C 
ATOM     17  C12 UNL     1      -4.783   1.057  -0.799  0.00  0.00    +0.019 C 
ENDBRANCH  10  12
ENDBRANCH   4   7
BRANCH   1  19
ATOM     18  C1  UNL     1       4.744   0.843   3.381  0.00  0.00    +0.033 C 
ATOM     19  C2  UNL     1       3.730   0.003   2.592  0.00  0.00    +0.102 C 
BRANCH  19  20
ATOM     20  C14 UNL     1       4.064   0.023   1.118  0.00  0.00    -0.027 A 
ATOM     21  C15 UNL     1       3.861   1.206   0.345  0.00  0.00    +0.007 A 
ATOM     22  C16 UNL     1       4.151   1.227  -1.032  0.00  0.00    +0.026 A 
ATOM     23  C17 UNL     1       4.659   0.063  -1.605  0.00  0.00    +0.046 A 
ATOM     24  N4  UNL     1       4.981  -0.136  -2.891  0.00  0.00    -0.361 N 
ATOM     25  C18 UNL     1       5.405  -1.420  -2.972  0.00  0.00    +0.083 A 
ATOM     26  C19 UNL     1       5.356  -2.036  -1.726  0.00  0.00    +0.027 A 
ATOM     27  C20 UNL     1       4.875  -1.073  -0.867  0.00  0.00    -0.000 A 
ATOM     28  C21 UNL     1       4.590  -1.134   0.497  0.00  0.00    +0.015 A 
ATOM     29  H27 UNL     1       4.904   0.549  -3.674  0.00  0.00    +0.165 HD
ENDBRANCH  19  20
ENDBRANCH   1  19
TORSDOF 4
