REMARK  Name = /home/qwerty/github/datacon2025hack/step_04_hit_selection/docking/ligands/lig_552.pdb
REMARK  3 active torsions:
REMARK  status: ('A' for Active; 'I' for Inactive)
REMARK    1  A    between atoms: N1_3  and  C2_4
REMARK    2  A    between atoms: C7_9  and  N2_10
REMARK    3  A    between atoms: N3_17  and  C12_18
REMARK                            x       y       z     vdW  Elec       q    Type
REMARK                         _______ _______ _______ _____ _____    ______ ____
ROOT
ATOM      1  O1  UNL     1       0.844   0.406  -1.157  0.00  0.00    -0.252 OA
ATOM      2  C1  UNL     1       0.435  -0.155  -0.105  0.00  0.00    +0.308 C 
ATOM      3  N1  UNL     1      -0.829   0.213   0.466  0.00  0.00    -0.268 N 
ATOM      4  N3  UNL     1       1.198  -1.213   0.487  0.00  0.00    -0.269 N 
ATOM      5  H1  UNL     1      -1.247  -0.425   1.181  0.00  0.00    +0.156 HD
ATOM      6  H10 UNL     1       0.710  -1.880   1.127  0.00  0.00    +0.156 HD
ENDROOT
BRANCH   4   7
ATOM      7  C12 UNL     1       2.539  -1.518   0.084  0.00  0.00    +0.039 A 
ATOM      8  C13 UNL     1       2.864  -2.823  -0.335  0.00  0.00    +0.023 A 
ATOM      9  C14 UNL     1       4.183  -3.147  -0.701  0.00  0.00    +0.003 A 
ATOM     10  C15 UNL     1       5.194  -2.179  -0.630  0.00  0.00    +0.012 A 
ATOM     11  C16 UNL     1       4.856  -0.899  -0.192  0.00  0.00    +0.022 A 
ATOM     12  C17 UNL     1       3.569  -0.563   0.155  0.00  0.00    -0.015 A 
ATOM     13  C18 UNL     1       3.491   0.843   0.678  0.00  0.00    +0.045 C 
ATOM     14  C19 UNL     1       4.943   1.372   0.607  0.00  0.00    +0.084 C 
ATOM     15  C20 UNL     1       5.720   0.229   0.047  0.00  0.00    +0.164 C 
ATOM     16  O4  UNL     1       6.960   0.245  -0.172  0.00  0.00    -0.292 OA
ENDBRANCH   4   7
BRANCH   3  17
ATOM     17  C2  UNL     1      -1.579   1.370   0.057  0.00  0.00    +0.057 A 
ATOM     18  C3  UNL     1      -0.923   2.588  -0.196  0.00  0.00    +0.025 A 
ATOM     19  C4  UNL     1      -1.655   3.733  -0.521  0.00  0.00    +0.002 A 
ATOM     20  C5  UNL     1      -3.047   3.679  -0.583  0.00  0.00    +0.002 A 
ATOM     21  C6  UNL     1      -3.713   2.480  -0.320  0.00  0.00    +0.026 A 
ATOM     22  C7  UNL     1      -2.990   1.319  -0.001  0.00  0.00    +0.065 A 
BRANCH  22  23
ATOM     23  N2  UNL     1      -3.693   0.088   0.235  0.00  0.00    -0.209 N 
ATOM     24  C8  UNL     1      -3.529  -1.126  -0.480  0.00  0.00    +0.227 C 
ATOM     25  O2  UNL     1      -2.640  -1.297  -1.356  0.00  0.00    -0.275 OA
ATOM     26  C9  UNL     1      -4.548  -2.158  -0.125  0.00  0.00    +0.106 C 
ATOM     27  C10 UNL     1      -5.458  -1.445   0.896  0.00  0.00    +0.106 C 
ATOM     28  C11 UNL     1      -4.853  -0.087   1.030  0.00  0.00    +0.227 C 
ATOM     29  O3  UNL     1      -5.310   0.809   1.788  0.00  0.00    -0.275 OA
ENDBRANCH  22  23
ENDBRANCH   3  17
TORSDOF 3
