REMARK  Name = /home/qwerty/github/datacon2025hack/step_04_hit_selection/docking/ligands/lig_740.pdb
REMARK  3 active torsions:
REMARK  status: ('A' for Active; 'I' for Inactive)
REMARK    1  A    between atoms: C1_1  and  N1_2
REMARK    2  A    between atoms: N2_5  and  C4_6
REMARK    3  A    between atoms: C7_9  and  C8_10
REMARK                            x       y       z     vdW  Elec       q    Type
REMARK                         _______ _______ _______ _____ _____    ______ ____
ROOT
ATOM      1  C4  UNL     1       0.947  -0.014   0.304  0.00  0.00    +0.121 A 
ATOM      2  C5  UNL     1       0.064   1.025   0.667  0.00  0.00    +0.044 A 
ATOM      3  C6  UNL     1      -1.308   0.869   0.461  0.00  0.00    +0.013 A 
ATOM      4  C7  UNL     1      -1.811  -0.326  -0.074  0.00  0.00    +0.003 A 
ATOM      5  C15 UNL     1      -0.910  -1.345  -0.407  0.00  0.00    +0.121 A 
ATOM      6  N5  UNL     1       0.425  -1.164  -0.217  0.00  0.00    -0.240 NA
ENDROOT
BRANCH   4   7
ATOM      7  C8  UNL     1      -3.260  -0.500  -0.298  0.00  0.00    +0.021 A 
ATOM      8  C9  UNL     1      -3.968   0.461  -1.053  0.00  0.00    +0.039 A 
ATOM      9  C10 UNL     1      -5.329   0.250  -1.262  0.00  0.00    +0.067 A 
ATOM     10  N3  UNL     1      -6.189   0.999  -1.958  0.00  0.00    -0.344 N 
ATOM     11  C11 UNL     1      -7.369   0.338  -1.843  0.00  0.00    +0.197 A 
ATOM     12  N4  UNL     1      -7.285  -0.798  -1.103  0.00  0.00    -0.236 NA
ATOM     13  C12 UNL     1      -5.986  -0.828  -0.753  0.00  0.00    +0.092 A 
ATOM     14  C13 UNL     1      -5.332  -1.793   0.006  0.00  0.00    +0.068 A 
ATOM     15  C14 UNL     1      -3.950  -1.629   0.229  0.00  0.00    +0.133 A 
ATOM     16  F1  UNL     1      -3.290  -2.552   0.973  0.00  0.00    -0.205 F 
ATOM     17  H11 UNL     1      -5.997   1.881  -2.478  0.00  0.00    +0.167 HD
ENDBRANCH   4   7
BRANCH   1  22
ATOM     18  C1  UNL     1       6.618   0.391   0.379  0.00  0.00    +0.105 C 
ATOM     19  N1  UNL     1       5.204   0.278   0.777  0.00  0.00    -0.302 NA
ATOM     20  C2  UNL     1       4.456   1.455   0.306  0.00  0.00    +0.103 C 
ATOM     21  C3  UNL     1       3.005   1.399   0.793  0.00  0.00    +0.122 C 
ATOM     22  N2  UNL     1       2.383   0.104   0.478  0.00  0.00    -0.313 N 
ATOM     23  C16 UNL     1       3.175  -1.123   0.701  0.00  0.00    +0.122 C 
ATOM     24  C17 UNL     1       4.612  -0.942   0.203  0.00  0.00    +0.103 C 
ENDBRANCH   1  22
TORSDOF 2
