MODEL 1
REMARK VINA RESULT:    -6.157      0.000      0.000
REMARK INTER + INTRA:          -8.246
REMARK INTER:                  -7.777
REMARK INTRA:                  -0.470
REMARK UNBOUND:                -0.470
REMARK  Name = /home/qwerty/github/datacon2025hack/step_04_hit_selection/docking/ligands/lig_536.pdb
REMARK  9 active torsions:
REMARK  status: ('A' for Active; 'I' for Inactive)
REMARK    1  A    between atoms: C1_1  and  O1_2
REMARK    2  A    between atoms: O1_2  and  C2_3
REMARK    3  A    between atoms: C4_5  and  C5_6
REMARK    4  A    between atoms: C6_9  and  C7_10
REMARK    5  A    between atoms: C10_13  and  C11_14
REMARK    6  A    between atoms: C11_14  and  C12_15
REMARK    7  A    between atoms: C11_14  and  C13_16
REMARK    8  A    between atoms: C11_14  and  C14_17
REMARK    9  A    between atoms: C17_22  and  O3_23
REMARK                            x       y       z     vdW  Elec       q    Type
REMARK                         _______ _______ _______ _____ _____    ______ ____
ROOT
ATOM      1  C5  UNL     1      19.924   4.606  34.412  0.00  0.00    +0.203 A 
ATOM      2  N1  UNL     1      18.699   4.051  34.310  0.00  0.00    -0.056 NA
ATOM      3  O2  UNL     1      18.827   3.121  33.414  0.00  0.00    -0.332 OA
ATOM      4  C6  UNL     1      20.062   3.093  32.980  0.00  0.00    +0.265 A 
ATOM      5  N2  UNL     1      20.822   4.027  33.585  0.00  0.00    -0.187 NA
ENDROOT
BRANCH   1   8
ATOM      6  C2  UNL     1      19.598   7.260  37.116  0.00  0.00    +0.162 A 
ATOM      7  C3  UNL     1      19.293   6.196  36.243  0.00  0.00    +0.061 A 
ATOM      8  C4  UNL     1      20.250   5.722  35.328  0.00  0.00    +0.026 A 
ATOM      9  C15 UNL     1      21.519   6.321  35.293  0.00  0.00    +0.015 A 
ATOM     10  C16 UNL     1      21.827   7.374  36.157  0.00  0.00    +0.050 A 
ATOM     11  C17 UNL     1      20.872   7.845  37.067  0.00  0.00    +0.158 A 
BRANCH   6  13
ATOM     12  C1  UNL     1      17.757   8.820  37.775  0.00  0.00    +0.277 C 
ATOM     13  O1  UNL     1      18.669   7.760  38.041  0.00  0.00    -0.491 OA
ENDBRANCH   6  13
BRANCH  11  14
ATOM     14  O3  UNL     1      21.181   8.896  37.928  0.00  0.00    -0.503 OA
ATOM     15  H18 UNL     1      21.893   9.579  37.697  0.00  0.00    +0.292 HD
ENDBRANCH  11  14
ENDBRANCH   1   8
BRANCH   4  16
ATOM     16  C7  UNL     1      20.558   2.162  31.964  0.00  0.00    +0.077 A 
ATOM     17  C8  UNL     1      20.051   0.897  31.697  0.00  0.00    +0.021 A 
ATOM     18  C9  UNL     1      20.730   0.236  30.666  0.00  0.00    +0.012 A 
ATOM     19  C10 UNL     1      21.777   0.976  30.113  0.00  0.00    -0.004 A 
ATOM     20  S1  UNL     1      21.843   2.458  30.923  0.00  0.00    -0.088 S 
BRANCH  19  21
ATOM     21  C11 UNL     1      22.686   0.515  28.982  0.00  0.00    -0.006 C 
ATOM     22  C12 UNL     1      22.569  -1.013  28.826  0.00  0.00    +0.016 C 
ATOM     23  C13 UNL     1      22.257   1.202  27.671  0.00  0.00    +0.016 C 
ATOM     24  C14 UNL     1      24.159   0.873  29.269  0.00  0.00    +0.016 C 
ENDBRANCH  19  21
ENDBRANCH   4  16
TORSDOF 5
ENDMDL
MODEL 2
REMARK VINA RESULT:    -6.108      7.761     12.068
REMARK INTER + INTRA:          -8.185
REMARK INTER:                  -7.686
REMARK INTRA:                  -0.499
REMARK UNBOUND:                -0.470
REMARK  Name = /home/qwerty/github/datacon2025hack/step_04_hit_selection/docking/ligands/lig_536.pdb
REMARK  9 active torsions:
REMARK  status: ('A' for Active; 'I' for Inactive)
REMARK    1  A    between atoms: C1_1  and  O1_2
REMARK    2  A    between atoms: O1_2  and  C2_3
REMARK    3  A    between atoms: C4_5  and  C5_6
REMARK    4  A    between atoms: C6_9  and  C7_10
REMARK    5  A    between atoms: C10_13  and  C11_14
REMARK    6  A    between atoms: C11_14  and  C12_15
REMARK    7  A    between atoms: C11_14  and  C13_16
REMARK    8  A    between atoms: C11_14  and  C14_17
REMARK    9  A    between atoms: C17_22  and  O3_23
REMARK                            x       y       z     vdW  Elec       q    Type
REMARK                         _______ _______ _______ _____ _____    ______ ____
ROOT
ATOM      1  C5  UNL     1      18.235   2.375  23.366  0.00  0.00    +0.203 A 
ATOM      2  N1  UNL     1      18.950   3.464  23.012  0.00  0.00    -0.056 NA
ATOM      3  O2  UNL     1      19.931   3.510  23.861  0.00  0.00    -0.332 OA
ATOM      4  C6  UNL     1      19.836   2.508  24.699  0.00  0.00    +0.265 A 
ATOM      5  N2  UNL     1      18.764   1.738  24.433  0.00  0.00    -0.187 NA
ENDROOT
BRANCH   1   8
ATOM      6  C2  UNL     1      15.358   2.223  20.885  0.00  0.00    +0.162 A 
ATOM      7  C3  UNL     1      16.524   2.644  21.555  0.00  0.00    +0.061 A 
ATOM      8  C4  UNL     1      17.011   1.929  22.664  0.00  0.00    +0.026 A 
ATOM      9  C15 UNL     1      16.322   0.786  23.098  0.00  0.00    +0.015 A 
ATOM     10  C16 UNL     1      15.167   0.364  22.436  0.00  0.00    +0.050 A 
ATOM     11  C17 UNL     1      14.683   1.078  21.333  0.00  0.00    +0.158 A 
BRANCH   6  13
ATOM     12  C1  UNL     1      14.101   4.125  19.853  0.00  0.00    +0.277 C 
ATOM     13  O1  UNL     1      14.841   2.911  19.776  0.00  0.00    -0.491 OA
ENDBRANCH   6  13
BRANCH  11  14
ATOM     14  O3  UNL     1      13.530   0.656  20.673  0.00  0.00    -0.503 OA
ATOM     15  H18 UNL     1      13.356  -0.324  20.484  0.00  0.00    +0.292 HD
ENDBRANCH  11  14
ENDBRANCH   1   8
BRANCH   4  16
ATOM     16  C7  UNL     1      20.781   2.255  25.790  0.00  0.00    +0.077 A 
ATOM     17  C8  UNL     1      21.923   2.994  26.071  0.00  0.00    +0.021 A 
ATOM     18  C9  UNL     1      22.632   2.514  27.179  0.00  0.00    +0.012 A 
ATOM     19  C10 UNL     1      22.055   1.393  27.778  0.00  0.00    -0.004 A 
ATOM     20  S1  UNL     1      20.654   1.012  26.912  0.00  0.00    -0.088 S 
BRANCH  19  21
ATOM     21  C11 UNL     1      22.602   0.659  28.994  0.00  0.00    -0.006 C 
ATOM     22  C12 UNL     1      21.765   1.031  30.233  0.00  0.00    +0.016 C 
ATOM     23  C13 UNL     1      22.519  -0.861  28.752  0.00  0.00    +0.016 C 
ATOM     24  C14 UNL     1      24.074   1.038  29.259  0.00  0.00    +0.016 C 
ENDBRANCH  19  21
ENDBRANCH   4  16
TORSDOF 5
ENDMDL
MODEL 3
REMARK VINA RESULT:    -6.068      7.747     11.750
REMARK INTER + INTRA:          -8.134
REMARK INTER:                  -7.626
REMARK INTRA:                  -0.507
REMARK UNBOUND:                -0.470
REMARK  Name = /home/qwerty/github/datacon2025hack/step_04_hit_selection/docking/ligands/lig_536.pdb
REMARK  9 active torsions:
REMARK  status: ('A' for Active; 'I' for Inactive)
REMARK    1  A    between atoms: C1_1  and  O1_2
REMARK    2  A    between atoms: O1_2  and  C2_3
REMARK    3  A    between atoms: C4_5  and  C5_6
REMARK    4  A    between atoms: C6_9  and  C7_10
REMARK    5  A    between atoms: C10_13  and  C11_14
REMARK    6  A    between atoms: C11_14  and  C12_15
REMARK    7  A    between atoms: C11_14  and  C13_16
REMARK    8  A    between atoms: C11_14  and  C14_17
REMARK    9  A    between atoms: C17_22  and  O3_23
REMARK                            x       y       z     vdW  Elec       q    Type
REMARK                         _______ _______ _______ _____ _____    ______ ____
ROOT
ATOM      1  C5  UNL     1      18.251   2.383  23.392  0.00  0.00    +0.203 A 
ATOM      2  N1  UNL     1      18.979   3.459  23.027  0.00  0.00    -0.056 NA
ATOM      3  O2  UNL     1      19.960   3.503  23.876  0.00  0.00    -0.332 OA
ATOM      4  C6  UNL     1      19.854   2.511  24.724  0.00  0.00    +0.265 A 
ATOM      5  N2  UNL     1      18.772   1.750  24.466  0.00  0.00    -0.187 NA
ENDROOT
BRANCH   1   8
ATOM      6  C2  UNL     1      14.934   0.671  22.671  0.00  0.00    +0.162 A 
ATOM      7  C3  UNL     1      16.105   1.092  23.333  0.00  0.00    +0.061 A 
ATOM      8  C4  UNL     1      17.022   1.944  22.694  0.00  0.00    +0.026 A 
ATOM      9  C15 UNL     1      16.760   2.374  21.383  0.00  0.00    +0.015 A 
ATOM     10  C16 UNL     1      15.601   1.961  20.724  0.00  0.00    +0.050 A 
ATOM     11  C17 UNL     1      14.688   1.111  21.362  0.00  0.00    +0.158 A 
BRANCH   6  13
ATOM     12  C1  UNL     1      13.165   0.187  24.373  0.00  0.00    +0.277 C 
ATOM     13  O1  UNL     1      13.996  -0.180  23.276  0.00  0.00    -0.491 OA
ENDBRANCH   6  13
BRANCH  11  14
ATOM     14  O3  UNL     1      13.532   0.699  20.702  0.00  0.00    -0.503 OA
ATOM     15  H18 UNL     1      13.258   1.098  19.812  0.00  0.00    +0.292 HD
ENDBRANCH  11  14
ENDBRANCH   1   8
BRANCH   4  16
ATOM     16  C7  UNL     1      20.795   2.258  25.818  0.00  0.00    +0.077 A 
ATOM     17  C8  UNL     1      21.922   3.012  26.118  0.00  0.00    +0.021 A 
ATOM     18  C9  UNL     1      22.632   2.528  27.224  0.00  0.00    +0.012 A 
ATOM     19  C10 UNL     1      22.069   1.389  27.803  0.00  0.00    -0.004 A 
ATOM     20  S1  UNL     1      20.681   0.997  26.921  0.00  0.00    -0.088 S 
BRANCH  19  21
ATOM     21  C11 UNL     1      22.621   0.646  29.012  0.00  0.00    -0.006 C 
ATOM     22  C12 UNL     1      22.488  -0.871  28.781  0.00  0.00    +0.016 C 
ATOM     23  C13 UNL     1      24.106   1.012  29.200  0.00  0.00    +0.016 C 
ATOM     24  C14 UNL     1      21.851   1.022  30.296  0.00  0.00    +0.016 C 
ENDBRANCH  19  21
ENDBRANCH   4  16
TORSDOF 5
ENDMDL
MODEL 4
REMARK VINA RESULT:    -6.064     14.997     17.606
REMARK INTER + INTRA:          -8.128
REMARK INTER:                  -7.632
REMARK INTRA:                  -0.497
REMARK UNBOUND:                -0.470
REMARK  Name = /home/qwerty/github/datacon2025hack/step_04_hit_selection/docking/ligands/lig_536.pdb
REMARK  9 active torsions:
REMARK  status: ('A' for Active; 'I' for Inactive)
REMARK    1  A    between atoms: C1_1  and  O1_2
REMARK    2  A    between atoms: O1_2  and  C2_3
REMARK    3  A    between atoms: C4_5  and  C5_6
REMARK    4  A    between atoms: C6_9  and  C7_10
REMARK    5  A    between atoms: C10_13  and  C11_14
REMARK    6  A    between atoms: C11_14  and  C12_15
REMARK    7  A    between atoms: C11_14  and  C13_16
REMARK    8  A    between atoms: C11_14  and  C14_17
REMARK    9  A    between atoms: C17_22  and  O3_23
REMARK                            x       y       z     vdW  Elec       q    Type
REMARK                         _______ _______ _______ _____ _____    ______ ____
ROOT
ATOM      1  C5  UNL     1       8.423   6.939  25.114  0.00  0.00    +0.203 A 
ATOM      2  N1  UNL     1       8.189   6.197  26.217  0.00  0.00    -0.056 NA
ATOM      3  O2  UNL     1       8.047   7.059  27.176  0.00  0.00    -0.332 OA
ATOM      4  C6  UNL     1       8.182   8.272  26.702  0.00  0.00    +0.265 A 
ATOM      5  N2  UNL     1       8.426   8.264  25.377  0.00  0.00    -0.187 NA
ENDROOT
BRANCH   1   8
ATOM      6  C2  UNL     1       9.656   6.505  21.544  0.00  0.00    +0.162 A 
ATOM      7  C3  UNL     1       9.441   7.047  22.827  0.00  0.00    +0.061 A 
ATOM      8  C4  UNL     1       8.648   6.366  23.768  0.00  0.00    +0.026 A 
ATOM      9  C15 UNL     1       8.070   5.137  23.415  0.00  0.00    +0.015 A 
ATOM     10  C16 UNL     1       8.281   4.596  22.146  0.00  0.00    +0.050 A 
ATOM     11  C17 UNL     1       9.071   5.275  21.210  0.00  0.00    +0.158 A 
BRANCH   6  13
ATOM     12  C1  UNL     1      10.416   8.557  20.330  0.00  0.00    +0.277 C 
ATOM     13  O1  UNL     1      10.441   7.155  20.579  0.00  0.00    -0.491 OA
ENDBRANCH   6  13
BRANCH  11  14
ATOM     14  O3  UNL     1       9.282   4.734  19.943  0.00  0.00    -0.503 OA
ATOM     15  H18 UNL     1       9.589   5.307  19.166  0.00  0.00    +0.292 HD
ENDBRANCH  11  14
ENDBRANCH   1   8
BRANCH   4  16
ATOM     16  C7  UNL     1       8.081   9.489  27.512  0.00  0.00    +0.077 A 
ATOM     17  C8  UNL     1       7.586   9.571  28.807  0.00  0.00    +0.021 A 
ATOM     18  C9  UNL     1       7.613  10.871  29.328  0.00  0.00    +0.012 A 
ATOM     19  C10 UNL     1       8.130  11.823  28.447  0.00  0.00    -0.004 A 
ATOM     20  S1  UNL     1       8.551  11.024  27.017  0.00  0.00    -0.088 S 
BRANCH  19  21
ATOM     21  C11 UNL     1       8.281  13.309  28.738  0.00  0.00    -0.006 C 
ATOM     22  C12 UNL     1       9.737  13.602  29.146  0.00  0.00    +0.016 C 
ATOM     23  C13 UNL     1       7.927  14.114  27.473  0.00  0.00    +0.016 C 
ATOM     24  C14 UNL     1       7.346  13.750  29.884  0.00  0.00    +0.016 C 
ENDBRANCH  19  21
ENDBRANCH   4  16
TORSDOF 5
ENDMDL
MODEL 5
REMARK VINA RESULT:    -5.987     13.223     15.923
REMARK INTER + INTRA:          -8.032
REMARK INTER:                  -7.531
REMARK INTRA:                  -0.501
REMARK UNBOUND:                -0.470
REMARK  Name = /home/qwerty/github/datacon2025hack/step_04_hit_selection/docking/ligands/lig_536.pdb
REMARK  9 active torsions:
REMARK  status: ('A' for Active; 'I' for Inactive)
REMARK    1  A    between atoms: C1_1  and  O1_2
REMARK    2  A    between atoms: O1_2  and  C2_3
REMARK    3  A    between atoms: C4_5  and  C5_6
REMARK    4  A    between atoms: C6_9  and  C7_10
REMARK    5  A    between atoms: C10_13  and  C11_14
REMARK    6  A    between atoms: C11_14  and  C12_15
REMARK    7  A    between atoms: C11_14  and  C13_16
REMARK    8  A    between atoms: C11_14  and  C14_17
REMARK    9  A    between atoms: C17_22  and  O3_23
REMARK                            x       y       z     vdW  Elec       q    Type
REMARK                         _______ _______ _______ _____ _____    ______ ____
ROOT
ATOM      1  C5  UNL     1      14.143   0.942  21.566  0.00  0.00    +0.203 A 
ATOM      2  N1  UNL     1      14.290   1.531  20.361  0.00  0.00    -0.056 NA
ATOM      3  O2  UNL     1      13.269   2.324  20.248  0.00  0.00    -0.332 OA
ATOM      4  C6  UNL     1      12.524   2.238  21.322  0.00  0.00    +0.265 A 
ATOM      5  N2  UNL     1      13.033   1.364  22.212  0.00  0.00    -0.187 NA
ENDROOT
BRANCH   1   8
ATOM      6  C2  UNL     1      15.719  -1.636  23.873  0.00  0.00    +0.162 A 
ATOM      7  C3  UNL     1      14.819  -0.691  23.342  0.00  0.00    +0.061 A 
ATOM      8  C4  UNL     1      15.090  -0.051  22.119  0.00  0.00    +0.026 A 
ATOM      9  C15 UNL     1      16.271  -0.366  21.429  0.00  0.00    +0.015 A 
ATOM     10  C16 UNL     1      17.165  -1.303  21.950  0.00  0.00    +0.050 A 
ATOM     11  C17 UNL     1      16.894  -1.938  23.168  0.00  0.00    +0.158 A 
BRANCH   6  13
ATOM     12  C1  UNL     1      14.216  -2.798  25.502  0.00  0.00    +0.277 C 
ATOM     13  O1  UNL     1      15.483  -2.294  25.090  0.00  0.00    -0.491 OA
ENDBRANCH   6  13
BRANCH  11  14
ATOM     14  O3  UNL     1      17.787  -2.873  23.688  0.00  0.00    -0.503 OA
ATOM     15  H18 UNL     1      18.787  -2.712  23.680  0.00  0.00    +0.292 HD
ENDBRANCH  11  14
ENDBRANCH   1   8
BRANCH   4  16
ATOM     16  C7  UNL     1      11.290   2.999  21.531  0.00  0.00    +0.077 A 
ATOM     17  C8  UNL     1      10.138   2.535  22.154  0.00  0.00    +0.021 A 
ATOM     18  C9  UNL     1       9.117   3.491  22.209  0.00  0.00    +0.012 A 
ATOM     19  C10 UNL     1       9.456   4.716  21.630  0.00  0.00    -0.004 A 
ATOM     20  S1  UNL     1      11.040   4.590  21.053  0.00  0.00    -0.088 S 
BRANCH  19  21
ATOM     21  C11 UNL     1       8.549   5.936  21.544  0.00  0.00    -0.006 C 
ATOM     22  C12 UNL     1       7.122   5.484  21.180  0.00  0.00    +0.016 C 
ATOM     23  C13 UNL     1       8.532   6.654  22.907  0.00  0.00    +0.016 C 
ATOM     24  C14 UNL     1       9.046   6.925  20.469  0.00  0.00    +0.016 C 
ENDBRANCH  19  21
ENDBRANCH   4  16
TORSDOF 5
ENDMDL
MODEL 6
REMARK VINA RESULT:    -5.857      5.856      8.084
REMARK INTER + INTRA:          -7.867
REMARK INTER:                  -7.389
REMARK INTRA:                  -0.478
REMARK UNBOUND:                -0.470
REMARK  Name = /home/qwerty/github/datacon2025hack/step_04_hit_selection/docking/ligands/lig_536.pdb
REMARK  9 active torsions:
REMARK  status: ('A' for Active; 'I' for Inactive)
REMARK    1  A    between atoms: C1_1  and  O1_2
REMARK    2  A    between atoms: O1_2  and  C2_3
REMARK    3  A    between atoms: C4_5  and  C5_6
REMARK    4  A    between atoms: C6_9  and  C7_10
REMARK    5  A    between atoms: C10_13  and  C11_14
REMARK    6  A    between atoms: C11_14  and  C12_15
REMARK    7  A    between atoms: C11_14  and  C13_16
REMARK    8  A    between atoms: C11_14  and  C14_17
REMARK    9  A    between atoms: C17_22  and  O3_23
REMARK                            x       y       z     vdW  Elec       q    Type
REMARK                         _______ _______ _______ _____ _____    ______ ____
ROOT
ATOM      1  C5  UNL     1      18.322  11.446  36.156  0.00  0.00    +0.203 A 
ATOM      2  N1  UNL     1      19.269  12.373  36.408  0.00  0.00    -0.056 NA
ATOM      3  O2  UNL     1      20.382  11.829  36.021  0.00  0.00    -0.332 OA
ATOM      4  C6  UNL     1      20.146  10.629  35.554  0.00  0.00    +0.265 A 
ATOM      5  N2  UNL     1      18.836  10.321  35.612  0.00  0.00    -0.187 NA
ENDROOT
BRANCH   1   8
ATOM      6  C2  UNL     1      14.982  13.121  36.860  0.00  0.00    +0.162 A 
ATOM      7  C3  UNL     1      16.352  12.933  36.586  0.00  0.00    +0.061 A 
ATOM      8  C4  UNL     1      16.883  11.639  36.442  0.00  0.00    +0.026 A 
ATOM      9  C15 UNL     1      16.032  10.531  36.573  0.00  0.00    +0.015 A 
ATOM     10  C16 UNL     1      14.674  10.711  36.844  0.00  0.00    +0.050 A 
ATOM     11  C17 UNL     1      14.147  12.001  36.987  0.00  0.00    +0.158 A 
BRANCH   6  13
ATOM     12  C1  UNL     1      15.005  15.601  36.532  0.00  0.00    +0.277 C 
ATOM     13  O1  UNL     1      14.416  14.396  37.011  0.00  0.00    -0.491 OA
ENDBRANCH   6  13
BRANCH  11  14
ATOM     14  O3  UNL     1      12.791  12.180  37.257  0.00  0.00    -0.503 OA
ATOM     15  H18 UNL     1      12.244  11.466  37.722  0.00  0.00    +0.292 HD
ENDBRANCH  11  14
ENDBRANCH   1   8
BRANCH   4  16
ATOM     16  C7  UNL     1      21.179   9.730  35.031  0.00  0.00    +0.077 A 
ATOM     17  C8  UNL     1      21.831   8.732  35.742  0.00  0.00    +0.021 A 
ATOM     18  C9  UNL     1      22.773   8.033  34.977  0.00  0.00    +0.012 A 
ATOM     19  C10 UNL     1      22.869   8.476  33.656  0.00  0.00    -0.004 A 
ATOM     20  S1  UNL     1      21.769   9.744  33.458  0.00  0.00    -0.088 S 
BRANCH  19  21
ATOM     21  C11 UNL     1      23.802   7.906  32.597  0.00  0.00    -0.006 C 
ATOM     22  C12 UNL     1      23.066   7.852  31.245  0.00  0.00    +0.016 C 
ATOM     23  C13 UNL     1      25.043   8.811  32.472  0.00  0.00    +0.016 C 
ATOM     24  C14 UNL     1      24.264   6.481  32.968  0.00  0.00    +0.016 C 
ENDBRANCH  19  21
ENDBRANCH   4  16
TORSDOF 5
ENDMDL
MODEL 7
REMARK VINA RESULT:    -5.830     12.355     14.962
REMARK INTER + INTRA:          -7.833
REMARK INTER:                  -7.326
REMARK INTRA:                  -0.507
REMARK UNBOUND:                -0.470
REMARK  Name = /home/qwerty/github/datacon2025hack/step_04_hit_selection/docking/ligands/lig_536.pdb
REMARK  9 active torsions:
REMARK  status: ('A' for Active; 'I' for Inactive)
REMARK    1  A    between atoms: C1_1  and  O1_2
REMARK    2  A    between atoms: O1_2  and  C2_3
REMARK    3  A    between atoms: C4_5  and  C5_6
REMARK    4  A    between atoms: C6_9  and  C7_10
REMARK    5  A    between atoms: C10_13  and  C11_14
REMARK    6  A    between atoms: C11_14  and  C12_15
REMARK    7  A    between atoms: C11_14  and  C13_16
REMARK    8  A    between atoms: C11_14  and  C14_17
REMARK    9  A    between atoms: C17_22  and  O3_23
REMARK                            x       y       z     vdW  Elec       q    Type
REMARK                         _______ _______ _______ _____ _____    ______ ____
ROOT
ATOM      1  C5  UNL     1      12.763   3.132  20.837  0.00  0.00    +0.203 A 
ATOM      2  N1  UNL     1      13.740   3.073  19.909  0.00  0.00    -0.056 NA
ATOM      3  O2  UNL     1      14.533   2.131  20.317  0.00  0.00    -0.332 OA
ATOM      4  C6  UNL     1      14.078   1.627  21.438  0.00  0.00    +0.265 A 
ATOM      5  N2  UNL     1      12.938   2.230  21.827  0.00  0.00    -0.187 NA
ENDROOT
BRANCH   1   8
ATOM      6  C2  UNL     1       9.258   4.576  21.136  0.00  0.00    +0.162 A 
ATOM      7  C3  UNL     1      10.343   3.679  21.193  0.00  0.00    +0.061 A 
ATOM      8  C4  UNL     1      11.626   4.078  20.777  0.00  0.00    +0.026 A 
ATOM      9  C15 UNL     1      11.815   5.385  20.302  0.00  0.00    +0.015 A 
ATOM     10  C16 UNL     1      10.743   6.278  20.245  0.00  0.00    +0.050 A 
ATOM     11  C17 UNL     1       9.467   5.878  20.660  0.00  0.00    +0.158 A 
BRANCH   6  13
ATOM     12  C1  UNL     1       7.556   4.068  22.899  0.00  0.00    +0.277 C 
ATOM     13  O1  UNL     1       7.964   4.213  21.542  0.00  0.00    -0.491 OA
ENDBRANCH   6  13
BRANCH  11  14
ATOM     14  O3  UNL     1       8.398   6.770  20.602  0.00  0.00    -0.503 OA
ATOM     15  H18 UNL     1       8.511   7.750  20.836  0.00  0.00    +0.292 HD
ENDBRANCH  11  14
ENDBRANCH   1   8
BRANCH   4  16
ATOM     16  C7  UNL     1      14.729   0.542  22.177  0.00  0.00    +0.077 A 
ATOM     17  C8  UNL     1      15.742  -0.280  21.700  0.00  0.00    +0.021 A 
ATOM     18  C9  UNL     1      16.167  -1.231  22.636  0.00  0.00    +0.012 A 
ATOM     19  C10 UNL     1      15.492  -1.165  23.857  0.00  0.00    -0.004 A 
ATOM     20  S1  UNL     1      14.364   0.090  23.753  0.00  0.00    -0.088 S 
BRANCH  19  21
ATOM     21  C11 UNL     1      15.742  -2.069  25.056  0.00  0.00    -0.006 C 
ATOM     22  C12 UNL     1      16.133  -1.207  26.271  0.00  0.00    +0.016 C 
ATOM     23  C13 UNL     1      14.457  -2.858  25.375  0.00  0.00    +0.016 C 
ATOM     24  C14 UNL     1      16.880  -3.072  24.771  0.00  0.00    +0.016 C 
ENDBRANCH  19  21
ENDBRANCH   4  16
TORSDOF 5
ENDMDL
MODEL 8
REMARK VINA RESULT:    -5.763     12.526     15.008
REMARK INTER + INTRA:          -7.749
REMARK INTER:                  -7.266
REMARK INTRA:                  -0.483
REMARK UNBOUND:                -0.470
REMARK  Name = /home/qwerty/github/datacon2025hack/step_04_hit_selection/docking/ligands/lig_536.pdb
REMARK  9 active torsions:
REMARK  status: ('A' for Active; 'I' for Inactive)
REMARK    1  A    between atoms: C1_1  and  O1_2
REMARK    2  A    between atoms: O1_2  and  C2_3
REMARK    3  A    between atoms: C4_5  and  C5_6
REMARK    4  A    between atoms: C6_9  and  C7_10
REMARK    5  A    between atoms: C10_13  and  C11_14
REMARK    6  A    between atoms: C11_14  and  C12_15
REMARK    7  A    between atoms: C11_14  and  C13_16
REMARK    8  A    between atoms: C11_14  and  C14_17
REMARK    9  A    between atoms: C17_22  and  O3_23
REMARK                            x       y       z     vdW  Elec       q    Type
REMARK                         _______ _______ _______ _____ _____    ______ ____
ROOT
ATOM      1  C5  UNL     1      12.798  14.123  27.475  0.00  0.00    +0.203 A 
ATOM      2  N1  UNL     1      13.233  14.849  26.424  0.00  0.00    -0.056 NA
ATOM      3  O2  UNL     1      14.355  15.369  26.818  0.00  0.00    -0.332 OA
ATOM      4  C6  UNL     1      14.609  14.990  28.046  0.00  0.00    +0.265 A 
ATOM      5  N2  UNL     1      13.642  14.184  28.527  0.00  0.00    -0.187 NA
ENDROOT
BRANCH   1   8
ATOM      6  C2  UNL     1       9.133  13.202  27.895  0.00  0.00    +0.162 A 
ATOM      7  C3  UNL     1      10.334  13.939  27.893  0.00  0.00    +0.061 A 
ATOM      8  C4  UNL     1      11.538  13.346  27.475  0.00  0.00    +0.026 A 
ATOM      9  C15 UNL     1      11.532  12.006  27.057  0.00  0.00    +0.015 A 
ATOM     10  C16 UNL     1      10.344  11.272  27.056  0.00  0.00    +0.050 A 
ATOM     11  C17 UNL     1       9.146  11.865  27.474  0.00  0.00    +0.158 A 
BRANCH   6  13
ATOM     12  C1  UNL     1       7.526  13.942  29.665  0.00  0.00    +0.277 C 
ATOM     13  O1  UNL     1       7.912  13.760  28.306  0.00  0.00    -0.491 OA
ENDBRANCH   6  13
BRANCH  11  14
ATOM     14  O3  UNL     1       7.961  11.131  27.473  0.00  0.00    -0.503 OA
ATOM     15  H18 UNL     1       7.564  10.765  26.616  0.00  0.00    +0.292 HD
ENDBRANCH  11  14
ENDBRANCH   1   8
BRANCH   4  16
ATOM     16  C7  UNL     1      15.797  15.391  28.803  0.00  0.00    +0.077 A 
ATOM     17  C8  UNL     1      16.373  16.655  28.810  0.00  0.00    +0.021 A 
ATOM     18  C9  UNL     1      17.505  16.741  29.631  0.00  0.00    +0.012 A 
ATOM     19  C10 UNL     1      17.829  15.546  30.275  0.00  0.00    -0.004 A 
ATOM     20  S1  UNL     1      16.689  14.387  29.811  0.00  0.00    -0.088 S 
BRANCH  19  21
ATOM     21  C11 UNL     1      19.001  15.341  31.225  0.00  0.00    -0.006 C 
ATOM     22  C12 UNL     1      19.565  16.713  31.640  0.00  0.00    +0.016 C 
ATOM     23  C13 UNL     1      18.517  14.582  32.475  0.00  0.00    +0.016 C 
ATOM     24  C14 UNL     1      20.126  14.525  30.554  0.00  0.00    +0.016 C 
ENDBRANCH  19  21
ENDBRANCH   4  16
TORSDOF 5
ENDMDL
MODEL 9
REMARK VINA RESULT:    -5.689      7.832     12.383
REMARK INTER + INTRA:          -7.655
REMARK INTER:                  -7.162
REMARK INTRA:                  -0.493
REMARK UNBOUND:                -0.470
REMARK  Name = /home/qwerty/github/datacon2025hack/step_04_hit_selection/docking/ligands/lig_536.pdb
REMARK  9 active torsions:
REMARK  status: ('A' for Active; 'I' for Inactive)
REMARK    1  A    between atoms: C1_1  and  O1_2
REMARK    2  A    between atoms: O1_2  and  C2_3
REMARK    3  A    between atoms: C4_5  and  C5_6
REMARK    4  A    between atoms: C6_9  and  C7_10
REMARK    5  A    between atoms: C10_13  and  C11_14
REMARK    6  A    between atoms: C11_14  and  C12_15
REMARK    7  A    between atoms: C11_14  and  C13_16
REMARK    8  A    between atoms: C11_14  and  C14_17
REMARK    9  A    between atoms: C17_22  and  O3_23
REMARK                            x       y       z     vdW  Elec       q    Type
REMARK                         _______ _______ _______ _____ _____    ______ ____
ROOT
ATOM      1  C5  UNL     1      17.004   0.383  24.101  0.00  0.00    +0.203 A 
ATOM      2  N1  UNL     1      16.223   0.113  25.168  0.00  0.00    -0.056 NA
ATOM      3  O2  UNL     1      16.986   0.313  26.199  0.00  0.00    -0.332 OA
ATOM      4  C6  UNL     1      18.176   0.688  25.801  0.00  0.00    +0.265 A 
ATOM      5  N2  UNL     1      18.253   0.753  24.458  0.00  0.00    -0.187 NA
ENDROOT
BRANCH   1   8
ATOM      6  C2  UNL     1      15.240   1.170  20.825  0.00  0.00    +0.162 A 
ATOM      7  C3  UNL     1      15.682   1.259  22.161  0.00  0.00    +0.061 A 
ATOM      8  C4  UNL     1      16.543   0.286  22.698  0.00  0.00    +0.026 A 
ATOM      9  C15 UNL     1      16.961  -0.781  21.887  0.00  0.00    +0.015 A 
ATOM     10  C16 UNL     1      16.527  -0.874  20.563  0.00  0.00    +0.050 A 
ATOM     11  C17 UNL     1      15.669   0.097  20.030  0.00  0.00    +0.158 A 
BRANCH   6  13
ATOM     12  C1  UNL     1      14.752   3.461  19.948  0.00  0.00    +0.277 C 
ATOM     13  O1  UNL     1      14.381   2.121  20.255  0.00  0.00    -0.491 OA
ENDBRANCH   6  13
BRANCH  11  14
ATOM     14  O3  UNL     1      15.237   0.003  18.709  0.00  0.00    -0.503 OA
ATOM     15  H18 UNL     1      14.404   0.483  18.388  0.00  0.00    +0.292 HD
ENDBRANCH  11  14
ENDBRANCH   1   8
BRANCH   4  16
ATOM     16  C7  UNL     1      19.286   0.999  26.705  0.00  0.00    +0.077 A 
ATOM     17  C8  UNL     1      20.631   1.051  26.361  0.00  0.00    +0.021 A 
ATOM     18  C9  UNL     1      21.465   1.375  27.438  0.00  0.00    +0.012 A 
ATOM     19  C10 UNL     1      20.783   1.581  28.639  0.00  0.00    -0.004 A 
ATOM     20  S1  UNL     1      19.135   1.355  28.339  0.00  0.00    -0.088 S 
BRANCH  19  21
ATOM     21  C11 UNL     1      21.425   1.944  29.970  0.00  0.00    -0.006 C 
ATOM     22  C12 UNL     1      22.884   1.447  29.984  0.00  0.00    +0.016 C 
ATOM     23  C13 UNL     1      21.400   3.475  30.147  0.00  0.00    +0.016 C 
ATOM     24  C14 UNL     1      20.669   1.296  31.150  0.00  0.00    +0.016 C 
ENDBRANCH  19  21
ENDBRANCH   4  16
TORSDOF 5
ENDMDL
