MODEL 1
REMARK VINA RESULT:    -7.319      0.000      0.000
REMARK INTER + INTRA:          -9.146
REMARK INTER:                  -8.603
REMARK INTRA:                  -0.543
REMARK UNBOUND:                -0.543
REMARK  Name = /home/qwerty/github/datacon2025hack/step_04_hit_selection/docking/ligands/lig_559.pdb
REMARK  3 active torsions:
REMARK  status: ('A' for Active; 'I' for Inactive)
REMARK    1  A    between atoms: C1_2  and  C2_3
REMARK    2  A    between atoms: C4_6  and  C5_7
REMARK    3  A    between atoms: C17_23  and  C18_24
REMARK                            x       y       z     vdW  Elec       q    Type
REMARK                         _______ _______ _______ _____ _____    ______ ____
ROOT
ATOM      1  O1  UNL     1      21.415   5.057  20.666  0.00  0.00    -0.268 OA
ATOM      2  C1  UNL     1      20.741   5.791  21.442  0.00  0.00    +0.265 C 
ATOM      3  N2  UNL     1      20.087   5.201  22.584  0.00  0.00    -0.296 N 
ATOM      4  C9  UNL     1      19.665   3.794  22.548  0.00  0.00    +0.110 C 
ATOM      5  C10 UNL     1      20.411   2.962  23.608  0.00  0.00    +0.046 C 
ATOM      6  C11 UNL     1      20.872   3.806  24.839  0.00  0.00    +0.048 C 
ATOM      7  C12 UNL     1      19.926   5.005  25.062  0.00  0.00    +0.046 C 
ATOM      8  C13 UNL     1      19.951   5.948  23.846  0.00  0.00    +0.110 C 
ATOM      9  N3  UNL     1      22.259   4.314  24.667  0.00  0.00    -0.303 NA
ATOM     10  C14 UNL     1      23.127   3.605  25.624  0.00  0.00    +0.117 C 
ATOM     11  C15 UNL     1      22.219   2.835  26.494  0.00  0.00    -0.028 A 
ATOM     12  C16 UNL     1      22.550   2.077  27.619  0.00  0.00    +0.017 A 
ATOM     13  C17 UNL     1      21.521   1.401  28.311  0.00  0.00    +0.055 A 
ATOM     14  C19 UNL     1      20.185   1.543  27.871  0.00  0.00    +0.013 A 
ATOM     15  C20 UNL     1      19.887   2.311  26.734  0.00  0.00    +0.006 A 
ATOM     16  C21 UNL     1      20.933   2.949  26.060  0.00  0.00    -0.023 A 
ATOM     17  H13 UNL     1      22.619   4.176  23.694  0.00  0.00    +0.123 HD
ENDROOT
BRANCH   2  18
ATOM     18  C2  UNL     1      20.643   7.236  21.147  0.00  0.00    +0.133 A 
ATOM     19  C3  UNL     1      21.716   8.117  21.293  0.00  0.00    +0.080 A 
ATOM     20  S1  UNL     1      21.197   9.649  20.833  0.00  0.00    -0.074 S 
ATOM     21  C4  UNL     1      19.640   9.132  20.461  0.00  0.00    +0.116 A 
ATOM     22  N1  UNL     1      19.499   7.807  20.678  0.00  0.00    -0.234 NA
BRANCH  21  23
ATOM     23  C5  UNL     1      18.557   9.989  19.964  0.00  0.00    +0.044 A 
ATOM     24  C6  UNL     1      18.667  11.339  19.655  0.00  0.00    +0.018 A 
ATOM     25  C7  UNL     1      17.468  11.900  19.201  0.00  0.00    +0.008 A 
ATOM     26  C8  UNL     1      16.413  10.998  19.149  0.00  0.00    +0.046 A 
ATOM     27  S2  UNL     1      16.973   9.501  19.671  0.00  0.00    -0.095 S 
ENDBRANCH  21  23
ENDBRANCH   2  18
BRANCH  13  28
ATOM     28  C18 UNL     1      21.833   0.616  29.560  0.00  0.00    +0.417 C 
ATOM     29  F1  UNL     1      20.683   0.393  30.298  0.00  0.00    -0.166 F 
ATOM     30  F2  UNL     1      22.383  -0.603  29.206  0.00  0.00    -0.166 F 
ATOM     31  F3  UNL     1      22.732   1.303  30.356  0.00  0.00    -0.166 F 
ENDBRANCH  13  28
TORSDOF 3
ENDMDL
MODEL 2
REMARK VINA RESULT:    -7.111     10.014     12.792
REMARK INTER + INTRA:          -8.900
REMARK INTER:                  -8.360
REMARK INTRA:                  -0.540
REMARK UNBOUND:                -0.543
REMARK  Name = /home/qwerty/github/datacon2025hack/step_04_hit_selection/docking/ligands/lig_559.pdb
REMARK  3 active torsions:
REMARK  status: ('A' for Active; 'I' for Inactive)
REMARK    1  A    between atoms: C1_2  and  C2_3
REMARK    2  A    between atoms: C4_6  and  C5_7
REMARK    3  A    between atoms: C17_23  and  C18_24
REMARK                            x       y       z     vdW  Elec       q    Type
REMARK                         _______ _______ _______ _____ _____    ______ ____
ROOT
ATOM      1  O1  UNL     1      10.364   7.790  20.445  0.00  0.00    -0.268 OA
ATOM      2  C1  UNL     1      11.034   7.205  21.341  0.00  0.00    +0.265 C 
ATOM      3  N2  UNL     1      11.487   7.954  22.488  0.00  0.00    -0.296 N 
ATOM      4  C9  UNL     1      11.739   9.397  22.375  0.00  0.00    +0.110 C 
ATOM      5  C10 UNL     1      10.790  10.200  23.285  0.00  0.00    +0.046 C 
ATOM      6  C11 UNL     1      10.304   9.394  24.531  0.00  0.00    +0.048 C 
ATOM      7  C12 UNL     1      11.357   8.345  24.944  0.00  0.00    +0.046 C 
ATOM      8  C13 UNL     1      11.576   7.322  23.816  0.00  0.00    +0.110 C 
ATOM      9  N3  UNL     1       9.014   8.702  24.269  0.00  0.00    -0.303 NA
ATOM     10  C14 UNL     1       7.970   9.360  25.073  0.00  0.00    +0.117 C 
ATOM     11  C15 UNL     1       8.682  10.300  25.961  0.00  0.00    -0.028 A 
ATOM     12  C16 UNL     1       8.144  11.088  26.980  0.00  0.00    +0.017 A 
ATOM     13  C17 UNL     1       9.004  11.937  27.710  0.00  0.00    +0.055 A 
ATOM     14  C19 UNL     1      10.387  11.936  27.415  0.00  0.00    +0.013 A 
ATOM     15  C20 UNL     1      10.895  11.133  26.381  0.00  0.00    +0.006 A 
ATOM     16  C21 UNL     1      10.011  10.321  25.664  0.00  0.00    -0.023 A 
ATOM     17  H13 UNL     1       8.746   8.723  23.257  0.00  0.00    +0.123 HD
ENDROOT
BRANCH   2  18
ATOM     18  C2  UNL     1      11.336   5.767  21.180  0.00  0.00    +0.133 A 
ATOM     19  C3  UNL     1      10.365   4.770  21.288  0.00  0.00    +0.080 A 
ATOM     20  S1  UNL     1      11.111   3.288  21.013  0.00  0.00    -0.074 S 
ATOM     21  C4  UNL     1      12.627   3.971  20.760  0.00  0.00    +0.116 A 
ATOM     22  N1  UNL     1      12.584   5.315  20.879  0.00  0.00    -0.234 NA
BRANCH  21  23
ATOM     23  C5  UNL     1      13.853   3.226  20.450  0.00  0.00    +0.044 A 
ATOM     24  C6  UNL     1      15.035   3.774  19.970  0.00  0.00    +0.018 A 
ATOM     25  C7  UNL     1      16.041   2.821  19.765  0.00  0.00    +0.008 A 
ATOM     26  C8  UNL     1      15.657   1.525  20.084  0.00  0.00    +0.046 A 
ATOM     27  S2  UNL     1      14.063   1.564  20.620  0.00  0.00    -0.095 S 
ENDBRANCH  21  23
ENDBRANCH   2  18
BRANCH  13  28
ATOM     28  C18 UNL     1       8.469  12.763  28.852  0.00  0.00    +0.417 C 
ATOM     29  F1  UNL     1       9.500  13.196  29.668  0.00  0.00    -0.166 F 
ATOM     30  F2  UNL     1       7.804  13.864  28.345  0.00  0.00    -0.166 F 
ATOM     31  F3  UNL     1       7.592  12.020  29.622  0.00  0.00    -0.166 F 
ENDBRANCH  13  28
TORSDOF 3
ENDMDL
MODEL 3
REMARK VINA RESULT:    -7.023      9.483     11.386
REMARK INTER + INTRA:          -8.797
REMARK INTER:                  -8.279
REMARK INTRA:                  -0.518
REMARK UNBOUND:                -0.543
REMARK  Name = /home/qwerty/github/datacon2025hack/step_04_hit_selection/docking/ligands/lig_559.pdb
REMARK  3 active torsions:
REMARK  status: ('A' for Active; 'I' for Inactive)
REMARK    1  A    between atoms: C1_2  and  C2_3
REMARK    2  A    between atoms: C4_6  and  C5_7
REMARK    3  A    between atoms: C17_23  and  C18_24
REMARK                            x       y       z     vdW  Elec       q    Type
REMARK                         _______ _______ _______ _____ _____    ______ ____
ROOT
ATOM      1  O1  UNL     1      22.535   8.309  35.576  0.00  0.00    -0.268 OA
ATOM      2  C1  UNL     1      21.371   8.380  35.093  0.00  0.00    +0.265 C 
ATOM      3  N2  UNL     1      21.122   7.863  33.768  0.00  0.00    -0.296 N 
ATOM      4  C9  UNL     1      22.201   7.834  32.772  0.00  0.00    +0.110 C 
ATOM      5  C10 UNL     1      22.535   6.388  32.356  0.00  0.00    +0.046 C 
ATOM      6  C11 UNL     1      21.328   5.410  32.508  0.00  0.00    +0.048 C 
ATOM      7  C12 UNL     1      19.992   6.165  32.340  0.00  0.00    +0.046 C 
ATOM      8  C13 UNL     1      19.832   7.235  33.433  0.00  0.00    +0.110 C 
ATOM      9  N3  UNL     1      21.333   4.733  33.832  0.00  0.00    -0.303 NA
ATOM     10  C14 UNL     1      21.648   3.310  33.616  0.00  0.00    +0.117 C 
ATOM     11  C15 UNL     1      21.623   3.112  32.155  0.00  0.00    -0.028 A 
ATOM     12  C16 UNL     1      21.762   1.914  31.451  0.00  0.00    +0.017 A 
ATOM     13  C17 UNL     1      21.720   1.944  30.040  0.00  0.00    +0.055 A 
ATOM     14  C19 UNL     1      21.499   3.176  29.383  0.00  0.00    +0.013 A 
ATOM     15  C20 UNL     1      21.365   4.363  30.120  0.00  0.00    +0.006 A 
ATOM     16  C21 UNL     1      21.434   4.300  31.516  0.00  0.00    -0.023 A 
ATOM     17  H13 UNL     1      22.027   5.152  34.494  0.00  0.00    +0.123 HD
ENDROOT
BRANCH   2  18
ATOM     18  C2  UNL     1      20.300   8.998  35.903  0.00  0.00    +0.133 A 
ATOM     19  C3  UNL     1      19.937   8.530  37.167  0.00  0.00    +0.080 A 
ATOM     20  S1  UNL     1      18.709   9.518  37.753  0.00  0.00    -0.074 S 
ATOM     21  C4  UNL     1      18.695  10.500  36.387  0.00  0.00    +0.116 A 
ATOM     22  N1  UNL     1      19.612  10.095  35.483  0.00  0.00    -0.234 NA
BRANCH  21  23
ATOM     23  C5  UNL     1      17.811  11.654  36.180  0.00  0.00    +0.044 A 
ATOM     24  C6  UNL     1      17.981  12.644  35.221  0.00  0.00    +0.018 A 
ATOM     25  C7  UNL     1      16.979  13.622  35.254  0.00  0.00    +0.008 A 
ATOM     26  C8  UNL     1      16.020  13.405  36.236  0.00  0.00    +0.046 A 
ATOM     27  S2  UNL     1      16.419  11.996  37.062  0.00  0.00    -0.095 S 
ENDBRANCH  21  23
ENDBRANCH   2  18
BRANCH  13  28
ATOM     28  C18 UNL     1      21.814   0.664  29.248  0.00  0.00    +0.417 C 
ATOM     29  F1  UNL     1      21.020   0.730  28.116  0.00  0.00    -0.166 F 
ATOM     30  F2  UNL     1      23.128   0.462  28.866  0.00  0.00    -0.166 F 
ATOM     31  F3  UNL     1      21.395  -0.412  30.009  0.00  0.00    -0.166 F 
ENDBRANCH  13  28
TORSDOF 3
ENDMDL
MODEL 4
REMARK VINA RESULT:    -6.972      7.855      9.672
REMARK INTER + INTRA:          -8.737
REMARK INTER:                  -8.453
REMARK INTRA:                  -0.284
REMARK UNBOUND:                -0.543
REMARK  Name = /home/qwerty/github/datacon2025hack/step_04_hit_selection/docking/ligands/lig_559.pdb
REMARK  3 active torsions:
REMARK  status: ('A' for Active; 'I' for Inactive)
REMARK    1  A    between atoms: C1_2  and  C2_3
REMARK    2  A    between atoms: C4_6  and  C5_7
REMARK    3  A    between atoms: C17_23  and  C18_24
REMARK                            x       y       z     vdW  Elec       q    Type
REMARK                         _______ _______ _______ _____ _____    ______ ____
ROOT
ATOM      1  O1  UNL     1      21.423   2.397  33.083  0.00  0.00    -0.268 OA
ATOM      2  C1  UNL     1      21.691   3.326  32.271  0.00  0.00    +0.265 C 
ATOM      3  N2  UNL     1      21.842   3.019  30.869  0.00  0.00    -0.296 N 
ATOM      4  C9  UNL     1      22.294   1.686  30.450  0.00  0.00    +0.110 C 
ATOM      5  C10 UNL     1      21.211   0.965  29.625  0.00  0.00    +0.046 C 
ATOM      6  C11 UNL     1      20.254   1.946  28.875  0.00  0.00    +0.048 C 
ATOM      7  C12 UNL     1      20.980   3.267  28.546  0.00  0.00    +0.046 C 
ATOM      8  C13 UNL     1      21.420   3.981  29.836  0.00  0.00    +0.110 C 
ATOM      9  N3  UNL     1      19.041   2.252  29.680  0.00  0.00    -0.303 NA
ATOM     10  C14 UNL     1      17.885   1.620  29.021  0.00  0.00    +0.117 C 
ATOM     11  C15 UNL     1      18.385   1.120  27.726  0.00  0.00    -0.028 A 
ATOM     12  C16 UNL     1      17.651   0.531  26.696  0.00  0.00    +0.017 A 
ATOM     13  C17 UNL     1      18.330   0.108  25.532  0.00  0.00    +0.055 A 
ATOM     14  C19 UNL     1      19.723   0.328  25.428  0.00  0.00    +0.013 A 
ATOM     15  C20 UNL     1      20.432   0.921  26.485  0.00  0.00    +0.006 A 
ATOM     16  C21 UNL     1      19.731   1.308  27.631  0.00  0.00    -0.023 A 
ATOM     17  H13 UNL     1      19.117   1.909  30.666  0.00  0.00    +0.123 HD
ENDROOT
BRANCH   2  18
ATOM     18  C2  UNL     1      21.847   4.701  32.790  0.00  0.00    +0.133 A 
ATOM     19  C3  UNL     1      21.166   5.172  33.913  0.00  0.00    +0.080 A 
ATOM     20  S1  UNL     1      21.642   6.763  34.180  0.00  0.00    -0.074 S 
ATOM     21  C4  UNL     1      22.695   6.786  32.868  0.00  0.00    +0.116 A 
ATOM     22  N1  UNL     1      22.698   5.601  32.222  0.00  0.00    -0.234 NA
BRANCH  21  23
ATOM     23  C5  UNL     1      23.514   7.933  32.457  0.00  0.00    +0.044 A 
ATOM     24  C6  UNL     1      24.784   8.233  32.932  0.00  0.00    +0.018 A 
ATOM     25  C7  UNL     1      25.327   9.390  32.359  0.00  0.00    +0.008 A 
ATOM     26  C8  UNL     1      24.491  10.001  31.434  0.00  0.00    +0.046 A 
ATOM     27  S2  UNL     1      23.073   9.101  31.329  0.00  0.00    -0.095 S 
ENDBRANCH  21  23
ENDBRANCH   2  18
BRANCH  13  28
ATOM     28  C18 UNL     1      17.564  -0.485  24.377  0.00  0.00    +0.417 C 
ATOM     29  F1  UNL     1      17.723  -1.860  24.337  0.00  0.00    -0.166 F 
ATOM     30  F2  UNL     1      16.220  -0.191  24.523  0.00  0.00    -0.166 F 
ATOM     31  F3  UNL     1      18.011   0.037  23.176  0.00  0.00    -0.166 F 
ENDBRANCH  13  28
TORSDOF 3
ENDMDL
MODEL 5
REMARK VINA RESULT:    -6.938     11.262     13.349
REMARK INTER + INTRA:          -8.698
REMARK INTER:                  -8.158
REMARK INTRA:                  -0.539
REMARK UNBOUND:                -0.543
REMARK  Name = /home/qwerty/github/datacon2025hack/step_04_hit_selection/docking/ligands/lig_559.pdb
REMARK  3 active torsions:
REMARK  status: ('A' for Active; 'I' for Inactive)
REMARK    1  A    between atoms: C1_2  and  C2_3
REMARK    2  A    between atoms: C4_6  and  C5_7
REMARK    3  A    between atoms: C17_23  and  C18_24
REMARK                            x       y       z     vdW  Elec       q    Type
REMARK                         _______ _______ _______ _____ _____    ______ ____
ROOT
ATOM      1  O1  UNL     1      16.795  17.085  29.124  0.00  0.00    -0.268 OA
ATOM      2  C1  UNL     1      17.022  16.075  28.404  0.00  0.00    +0.265 C 
ATOM      3  N2  UNL     1      16.301  14.850  28.655  0.00  0.00    -0.296 N 
ATOM      4  C9  UNL     1      15.812  14.545  30.005  0.00  0.00    +0.110 C 
ATOM      5  C10 UNL     1      14.273  14.465  30.035  0.00  0.00    +0.046 C 
ATOM      6  C11 UNL     1      13.652  14.055  28.662  0.00  0.00    +0.048 C 
ATOM      7  C12 UNL     1      14.636  13.177  27.861  0.00  0.00    +0.046 C 
ATOM      8  C13 UNL     1      15.926  13.954  27.547  0.00  0.00    +0.110 C 
ATOM      9  N3  UNL     1      13.296  15.245  27.844  0.00  0.00    -0.303 NA
ATOM     10  C14 UNL     1      11.827  15.326  27.772  0.00  0.00    +0.117 C 
ATOM     11  C15 UNL     1      11.327  14.073  28.370  0.00  0.00    -0.028 A 
ATOM     12  C16 UNL     1      10.005  13.630  28.447  0.00  0.00    +0.017 A 
ATOM     13  C17 UNL     1       9.737  12.395  29.077  0.00  0.00    +0.055 A 
ATOM     14  C19 UNL     1      10.815  11.626  29.575  0.00  0.00    +0.013 A 
ATOM     15  C20 UNL     1      12.132  12.103  29.483  0.00  0.00    +0.006 A 
ATOM     16  C21 UNL     1      12.359  13.341  28.873  0.00  0.00    -0.023 A 
ATOM     17  H13 UNL     1      13.679  16.135  28.241  0.00  0.00    +0.123 HD
ENDROOT
BRANCH   2  18
ATOM     18  C2  UNL     1      18.029  16.180  27.326  0.00  0.00    +0.133 A 
ATOM     19  C3  UNL     1      17.870  17.012  26.217  0.00  0.00    +0.080 A 
ATOM     20  S1  UNL     1      19.239  16.859  25.253  0.00  0.00    -0.074 S 
ATOM     21  C4  UNL     1      19.978  15.754  26.283  0.00  0.00    +0.116 A 
ATOM     22  N1  UNL     1      19.204  15.493  27.358  0.00  0.00    -0.234 NA
BRANCH  21  23
ATOM     23  C5  UNL     1      21.292  15.137  26.065  0.00  0.00    +0.044 A 
ATOM     24  C6  UNL     1      22.487  15.551  26.641  0.00  0.00    +0.018 A 
ATOM     25  C7  UNL     1      23.584  14.773  26.252  0.00  0.00    +0.008 A 
ATOM     26  C8  UNL     1      23.259  13.747  25.373  0.00  0.00    +0.046 A 
ATOM     27  S2  UNL     1      21.604  13.809  25.080  0.00  0.00    -0.095 S 
ENDBRANCH  21  23
ENDBRANCH   2  18
BRANCH  13  28
ATOM     28  C18 UNL     1       8.329  11.858  29.133  0.00  0.00    +0.417 C 
ATOM     29  F1  UNL     1       7.481  12.771  29.737  0.00  0.00    -0.166 F 
ATOM     30  F2  UNL     1       7.884  11.614  27.846  0.00  0.00    -0.166 F 
ATOM     31  F3  UNL     1       8.285  10.680  29.857  0.00  0.00    -0.166 F 
ENDBRANCH  13  28
TORSDOF 3
ENDMDL
MODEL 6
REMARK VINA RESULT:    -6.914     14.013     16.512
REMARK INTER + INTRA:          -8.669
REMARK INTER:                  -8.130
REMARK INTRA:                  -0.539
REMARK UNBOUND:                -0.543
REMARK  Name = /home/qwerty/github/datacon2025hack/step_04_hit_selection/docking/ligands/lig_559.pdb
REMARK  3 active torsions:
REMARK  status: ('A' for Active; 'I' for Inactive)
REMARK    1  A    between atoms: C1_2  and  C2_3
REMARK    2  A    between atoms: C4_6  and  C5_7
REMARK    3  A    between atoms: C17_23  and  C18_24
REMARK                            x       y       z     vdW  Elec       q    Type
REMARK                         _______ _______ _______ _____ _____    ______ ____
ROOT
ATOM      1  O1  UNL     1      13.782  12.490  36.803  0.00  0.00    -0.268 OA
ATOM      2  C1  UNL     1      14.435  11.799  35.973  0.00  0.00    +0.265 C 
ATOM      3  N2  UNL     1      13.740  11.168  34.876  0.00  0.00    -0.296 N 
ATOM      4  C9  UNL     1      12.329  10.788  35.017  0.00  0.00    +0.110 C 
ATOM      5  C10 UNL     1      11.442  11.564  34.025  0.00  0.00    +0.046 C 
ATOM      6  C11 UNL     1      12.203  12.007  32.735  0.00  0.00    +0.048 C 
ATOM      7  C12 UNL     1      13.353  11.027  32.420  0.00  0.00    +0.046 C 
ATOM      8  C13 UNL     1      14.386  11.016  33.560  0.00  0.00    +0.110 C 
ATOM      9  N3  UNL     1      12.765  13.377  32.872  0.00  0.00    -0.303 NA
ATOM     10  C14 UNL     1      12.013  14.271  31.975  0.00  0.00    +0.117 C 
ATOM     11  C15 UNL     1      11.152  13.391  31.163  0.00  0.00    -0.028 A 
ATOM     12  C16 UNL     1      10.321  13.750  30.100  0.00  0.00    +0.017 A 
ATOM     13  C17 UNL     1       9.564  12.746  29.457  0.00  0.00    +0.055 A 
ATOM     14  C19 UNL     1       9.699  11.404  29.881  0.00  0.00    +0.013 A 
ATOM     15  C20 UNL     1      10.541  11.076  30.956  0.00  0.00    +0.006 A 
ATOM     16  C21 UNL     1      11.259  12.100  31.583  0.00  0.00    -0.023 A 
ATOM     17  H13 UNL     1      12.712  13.736  33.855  0.00  0.00    +0.123 HD
ENDROOT
BRANCH   2  18
ATOM     18  C2  UNL     1      15.894  11.655  36.157  0.00  0.00    +0.133 A 
ATOM     19  C3  UNL     1      16.779  12.732  36.084  0.00  0.00    +0.080 A 
ATOM     20  S1  UNL     1      18.330  12.151  36.375  0.00  0.00    -0.074 S 
ATOM     21  C4  UNL     1      17.816  10.564  36.589  0.00  0.00    +0.116 A 
ATOM     22  N1  UNL     1      16.478  10.460  36.445  0.00  0.00    -0.234 NA
BRANCH  21  23
ATOM     23  C5  UNL     1      18.688   9.423  36.893  0.00  0.00    +0.044 A 
ATOM     24  C6  UNL     1      18.338   8.316  37.657  0.00  0.00    +0.018 A 
ATOM     25  C7  UNL     1      19.374   7.381  37.778  0.00  0.00    +0.008 A 
ATOM     26  C8  UNL     1      20.536   7.746  37.111  0.00  0.00    +0.046 A 
ATOM     27  S2  UNL     1      20.276   9.233  36.371  0.00  0.00    -0.095 S 
ENDBRANCH  21  23
ENDBRANCH   2  18
BRANCH  13  28
ATOM     28  C18 UNL     1       8.697  13.087  28.272  0.00  0.00    +0.417 C 
ATOM     29  F1  UNL     1       7.508  13.664  28.686  0.00  0.00    -0.166 F 
ATOM     30  F2  UNL     1       9.370  13.979  27.457  0.00  0.00    -0.166 F 
ATOM     31  F3  UNL     1       8.395  11.950  27.545  0.00  0.00    -0.166 F 
ENDBRANCH  13  28
TORSDOF 3
ENDMDL
MODEL 7
REMARK VINA RESULT:    -6.911      6.079      7.021
REMARK INTER + INTRA:          -8.665
REMARK INTER:                  -8.123
REMARK INTRA:                  -0.542
REMARK UNBOUND:                -0.543
REMARK  Name = /home/qwerty/github/datacon2025hack/step_04_hit_selection/docking/ligands/lig_559.pdb
REMARK  3 active torsions:
REMARK  status: ('A' for Active; 'I' for Inactive)
REMARK    1  A    between atoms: C1_2  and  C2_3
REMARK    2  A    between atoms: C4_6  and  C5_7
REMARK    3  A    between atoms: C17_23  and  C18_24
REMARK                            x       y       z     vdW  Elec       q    Type
REMARK                         _______ _______ _______ _____ _____    ______ ____
ROOT
ATOM      1  O1  UNL     1      14.666  -0.697  22.890  0.00  0.00    -0.268 OA
ATOM      2  C1  UNL     1      14.537   0.513  23.224  0.00  0.00    +0.265 C 
ATOM      3  N2  UNL     1      15.040   0.951  24.504  0.00  0.00    -0.296 N 
ATOM      4  C9  UNL     1      15.121   0.009  25.628  0.00  0.00    +0.110 C 
ATOM      5  C10 UNL     1      16.581  -0.200  26.075  0.00  0.00    +0.046 C 
ATOM      6  C11 UNL     1      17.499   1.026  25.768  0.00  0.00    +0.048 C 
ATOM      7  C12 UNL     1      16.679   2.333  25.771  0.00  0.00    +0.046 C 
ATOM      8  C13 UNL     1      15.603   2.302  24.672  0.00  0.00    +0.110 C 
ATOM      9  N3  UNL     1      18.177   0.888  24.452  0.00  0.00    -0.303 NA
ATOM     10  C14 UNL     1      19.613   0.672  24.698  0.00  0.00    +0.117 C 
ATOM     11  C15 UNL     1      19.808   0.890  26.144  0.00  0.00    -0.028 A 
ATOM     12  C16 UNL     1      21.011   0.899  26.853  0.00  0.00    +0.017 A 
ATOM     13  C17 UNL     1      20.977   1.116  28.248  0.00  0.00    +0.055 A 
ATOM     14  C19 UNL     1      19.735   1.358  28.878  0.00  0.00    +0.013 A 
ATOM     15  C20 UNL     1      18.543   1.340  28.136  0.00  0.00    +0.006 A 
ATOM     16  C21 UNL     1      18.612   1.099  26.760  0.00  0.00    -0.023 A 
ATOM     17  H13 UNL     1      17.793   0.096  23.884  0.00  0.00    +0.123 HD
ENDROOT
BRANCH   2  18
ATOM     18  C2  UNL     1      13.868   1.442  22.289  0.00  0.00    +0.133 A 
ATOM     19  C3  UNL     1      14.458   1.884  21.104  0.00  0.00    +0.080 A 
ATOM     20  S1  UNL     1      13.365   2.897  20.326  0.00  0.00    -0.074 S 
ATOM     21  C4  UNL     1      12.189   2.727  21.516  0.00  0.00    +0.116 A 
ATOM     22  N1  UNL     1      12.608   1.909  22.505  0.00  0.00    -0.234 NA
BRANCH  21  23
ATOM     23  C5  UNL     1      10.871   3.374  21.507  0.00  0.00    +0.044 A 
ATOM     24  C6  UNL     1      10.474   4.394  20.652  0.00  0.00    +0.018 A 
ATOM     25  C7  UNL     1       9.158   4.817  20.871  0.00  0.00    +0.008 A 
ATOM     26  C8  UNL     1       8.515   4.133  21.895  0.00  0.00    +0.046 A 
ATOM     27  S2  UNL     1       9.586   3.002  22.528  0.00  0.00    -0.095 S 
ENDBRANCH  21  23
ENDBRANCH   2  18
BRANCH  13  28
ATOM     28  C18 UNL     1      22.259   1.185  29.039  0.00  0.00    +0.417 C 
ATOM     29  F1  UNL     1      23.283   1.709  28.268  0.00  0.00    -0.166 F 
ATOM     30  F2  UNL     1      22.069   1.993  30.145  0.00  0.00    -0.166 F 
ATOM     31  F3  UNL     1      22.639  -0.077  29.461  0.00  0.00    -0.166 F 
ENDBRANCH  13  28
TORSDOF 3
ENDMDL
MODEL 8
REMARK VINA RESULT:    -6.906      1.919      2.658
REMARK INTER + INTRA:          -8.659
REMARK INTER:                  -8.160
REMARK INTRA:                  -0.499
REMARK UNBOUND:                -0.543
REMARK  Name = /home/qwerty/github/datacon2025hack/step_04_hit_selection/docking/ligands/lig_559.pdb
REMARK  3 active torsions:
REMARK  status: ('A' for Active; 'I' for Inactive)
REMARK    1  A    between atoms: C1_2  and  C2_3
REMARK    2  A    between atoms: C4_6  and  C5_7
REMARK    3  A    between atoms: C17_23  and  C18_24
REMARK                            x       y       z     vdW  Elec       q    Type
REMARK                         _______ _______ _______ _____ _____    ______ ____
ROOT
ATOM      1  O1  UNL     1      17.579   6.610  23.634  0.00  0.00    -0.268 OA
ATOM      2  C1  UNL     1      18.782   6.690  23.261  0.00  0.00    +0.265 C 
ATOM      3  N2  UNL     1      19.834   6.322  24.179  0.00  0.00    -0.296 N 
ATOM      4  C9  UNL     1      19.629   6.455  25.628  0.00  0.00    +0.110 C 
ATOM      5  C10 UNL     1      19.695   5.082  26.326  0.00  0.00    +0.046 C 
ATOM      6  C11 UNL     1      20.576   4.045  25.562  0.00  0.00    +0.048 C 
ATOM      7  C12 UNL     1      21.684   4.759  24.759  0.00  0.00    +0.046 C 
ATOM      8  C13 UNL     1      21.071   5.686  23.695  0.00  0.00    +0.110 C 
ATOM      9  N3  UNL     1      19.765   3.218  24.629  0.00  0.00    -0.303 NA
ATOM     10  C14 UNL     1      19.719   1.844  25.159  0.00  0.00    +0.117 C 
ATOM     11  C15 UNL     1      20.669   1.818  26.286  0.00  0.00    -0.028 A 
ATOM     12  C16 UNL     1      21.057   0.717  27.053  0.00  0.00    +0.017 A 
ATOM     13  C17 UNL     1      21.980   0.911  28.105  0.00  0.00    +0.055 A 
ATOM     14  C19 UNL     1      22.513   2.202  28.325  0.00  0.00    +0.013 A 
ATOM     15  C20 UNL     1      22.100   3.288  27.537  0.00  0.00    +0.006 A 
ATOM     16  C21 UNL     1      21.168   3.064  26.518  0.00  0.00    -0.023 A 
ATOM     17  H13 UNL     1      18.791   3.584  24.511  0.00  0.00    +0.123 HD
ENDROOT
BRANCH   2  18
ATOM     18  C2  UNL     1      19.073   7.165  21.892  0.00  0.00    +0.133 A 
ATOM     19  C3  UNL     1      19.031   6.331  20.774  0.00  0.00    +0.080 A 
ATOM     20  S1  UNL     1      19.396   7.260  19.420  0.00  0.00    -0.074 S 
ATOM     21  C4  UNL     1      19.584   8.678  20.305  0.00  0.00    +0.116 A 
ATOM     22  N1  UNL     1      19.373   8.465  21.621  0.00  0.00    -0.234 NA
BRANCH  21  23
ATOM     23  C5  UNL     1      19.932   9.989  19.744  0.00  0.00    +0.044 A 
ATOM     24  C6  UNL     1      19.052  11.045  19.545  0.00  0.00    +0.018 A 
ATOM     25  C7  UNL     1      19.666  12.177  18.994  0.00  0.00    +0.008 A 
ATOM     26  C8  UNL     1      21.026  12.017  18.759  0.00  0.00    +0.046 A 
ATOM     27  S2  UNL     1      21.464  10.465  19.237  0.00  0.00    -0.095 S 
ENDBRANCH  21  23
ENDBRANCH   2  18
BRANCH  13  28
ATOM     28  C18 UNL     1      22.462  -0.262  28.920  0.00  0.00    +0.417 C 
ATOM     29  F1  UNL     1      22.459  -1.420  28.162  0.00  0.00    -0.166 F 
ATOM     30  F2  UNL     1      23.750  -0.013  29.358  0.00  0.00    -0.166 F 
ATOM     31  F3  UNL     1      21.643  -0.462  30.018  0.00  0.00    -0.166 F 
ENDBRANCH  13  28
TORSDOF 3
ENDMDL
MODEL 9
REMARK VINA RESULT:    -6.847     13.447     16.218
REMARK INTER + INTRA:          -8.591
REMARK INTER:                  -8.257
REMARK INTRA:                  -0.333
REMARK UNBOUND:                -0.543
REMARK  Name = /home/qwerty/github/datacon2025hack/step_04_hit_selection/docking/ligands/lig_559.pdb
REMARK  3 active torsions:
REMARK  status: ('A' for Active; 'I' for Inactive)
REMARK    1  A    between atoms: C1_2  and  C2_3
REMARK    2  A    between atoms: C4_6  and  C5_7
REMARK    3  A    between atoms: C17_23  and  C18_24
REMARK                            x       y       z     vdW  Elec       q    Type
REMARK                         _______ _______ _______ _____ _____    ______ ____
ROOT
ATOM      1  O1  UNL     1       6.607   3.627  28.023  0.00  0.00    -0.268 OA
ATOM      2  C1  UNL     1       7.853   3.808  27.935  0.00  0.00    +0.265 C 
ATOM      3  N2  UNL     1       8.351   5.071  27.445  0.00  0.00    -0.296 N 
ATOM      4  C9  UNL     1       7.546   5.871  26.513  0.00  0.00    +0.110 C 
ATOM      5  C10 UNL     1       7.160   7.227  27.135  0.00  0.00    +0.046 C 
ATOM      6  C11 UNL     1       8.177   7.723  28.211  0.00  0.00    +0.048 C 
ATOM      7  C12 UNL     1       9.591   7.180  27.914  0.00  0.00    +0.046 C 
ATOM      8  C13 UNL     1       9.604   5.642  27.969  0.00  0.00    +0.110 C 
ATOM      9  N3  UNL     1       7.779   7.298  29.580  0.00  0.00    -0.303 NA
ATOM     10  C14 UNL     1       7.365   8.498  30.328  0.00  0.00    +0.117 C 
ATOM     11  C15 UNL     1       7.717   9.645  29.471  0.00  0.00    -0.028 A 
ATOM     12  C16 UNL     1       7.615  11.004  29.775  0.00  0.00    +0.017 A 
ATOM     13  C17 UNL     1       7.997  11.951  28.800  0.00  0.00    +0.055 A 
ATOM     14  C19 UNL     1       8.508  11.498  27.561  0.00  0.00    +0.013 A 
ATOM     15  C20 UNL     1       8.594  10.124  27.286  0.00  0.00    +0.006 A 
ATOM     16  C21 UNL     1       8.186   9.214  28.267  0.00  0.00    -0.023 A 
ATOM     17  H13 UNL     1       6.998   6.600  29.572  0.00  0.00    +0.123 HD
ENDROOT
BRANCH   2  18
ATOM     18  C2  UNL     1       8.761   2.713  28.333  0.00  0.00    +0.133 A 
ATOM     19  C3  UNL     1       9.875   2.337  27.581  0.00  0.00    +0.080 A 
ATOM     20  S1  UNL     1      10.648   1.081  28.389  0.00  0.00    -0.074 S 
ATOM     21  C4  UNL     1       9.547   1.071  29.660  0.00  0.00    +0.116 A 
ATOM     22  N1  UNL     1       8.593   2.011  29.488  0.00  0.00    -0.234 NA
BRANCH  21  23
ATOM     23  C5  UNL     1       9.593   0.170  30.817  0.00  0.00    +0.044 A 
ATOM     24  C6  UNL     1       9.232  -1.172  30.815  0.00  0.00    +0.018 A 
ATOM     25  C7  UNL     1       9.381  -1.785  32.065  0.00  0.00    +0.008 A 
ATOM     26  C8  UNL     1       9.859  -0.932  33.052  0.00  0.00    +0.046 A 
ATOM     27  S2  UNL     1      10.096   0.586  32.368  0.00  0.00    -0.095 S 
ENDBRANCH  21  23
ENDBRANCH   2  18
BRANCH  13  28
ATOM     28  C18 UNL     1       7.951  13.425  29.111  0.00  0.00    +0.417 C 
ATOM     29  F1  UNL     1       6.933  13.705  30.007  0.00  0.00    -0.166 F 
ATOM     30  F2  UNL     1       9.157  13.812  29.666  0.00  0.00    -0.166 F 
ATOM     31  F3  UNL     1       7.728  14.160  27.960  0.00  0.00    -0.166 F 
ENDBRANCH  13  28
TORSDOF 3
ENDMDL
