MODEL 1
REMARK VINA RESULT:    -7.214      0.000      0.000
REMARK INTER + INTRA:          -8.654
REMARK INTER:                  -8.480
REMARK INTRA:                  -0.174
REMARK UNBOUND:                -0.174
REMARK  Name = /home/qwerty/github/datacon2025hack/step_04_hit_selection/docking/ligands/lig_211.pdb
REMARK  5 active torsions:
REMARK  status: ('A' for Active; 'I' for Inactive)
REMARK    1  A    between atoms: C1_1  and  O1_2
REMARK    2  A    between atoms: O1_2  and  C2_3
REMARK    3  A    between atoms: C10_11  and  N1_12
REMARK    4  A    between atoms: C15_19  and  C16_20
REMARK    5  A    between atoms: C17_23  and  C18_24
REMARK                            x       y       z     vdW  Elec       q    Type
REMARK                         _______ _______ _______ _____ _____    ______ ____
ROOT
ATOM      1  N1  UNL     1      10.611  13.426  30.879  0.00  0.00    -0.296 N 
ATOM      2  C11 UNL     1      11.941  13.676  31.360  0.00  0.00    +0.302 C 
ATOM      3  O2  UNL     1      12.717  14.420  30.700  0.00  0.00    -0.253 OA
ATOM      4  N2  UNL     1      12.387  13.115  32.609  0.00  0.00    -0.285 N 
ATOM      5  C12 UNL     1      11.968  11.769  33.027  0.00  0.00    +0.109 C 
ATOM      6  C13 UNL     1      11.476  11.787  34.482  0.00  0.00    +0.020 C 
ATOM      7  C14 UNL     1      12.286  12.732  35.399  0.00  0.00    +0.014 C 
ATOM      8  C15 UNL     1      13.622  13.166  34.769  0.00  0.00    +0.076 C 
ATOM      9  C19 UNL     1      13.369  13.854  33.415  0.00  0.00    +0.120 C 
ATOM     10  H12 UNL     1       9.908  13.026  31.541  0.00  0.00    +0.151 HD
ENDROOT
BRANCH   1  19
ATOM     11  C2  UNL     1       8.303   9.245  28.247  0.00  0.00    +0.120 A 
ATOM     12  C3  UNL     1       7.434   9.815  29.197  0.00  0.00    +0.046 A 
ATOM     13  C4  UNL     1       7.560  11.161  29.552  0.00  0.00    +0.007 A 
ATOM     14  C5  UNL     1       8.563  11.949  28.974  0.00  0.00    -0.042 A 
ATOM     15  C6  UNL     1       9.435  11.388  28.030  0.00  0.00    -0.041 A 
ATOM     16  C7  UNL     1       9.298  10.041  27.665  0.00  0.00    +0.049 A 
ATOM     17  C8  UNL     1      10.476  12.274  27.404  0.00  0.00    +0.037 C 
ATOM     18  C9  UNL     1      11.166  13.133  28.479  0.00  0.00    +0.027 C 
ATOM     19  C10 UNL     1      10.196  13.784  29.516  0.00  0.00    +0.079 C 
ATOM     20  C20 UNL     1       8.709  13.410  29.300  0.00  0.00    +0.057 C 
BRANCH  11  22
ATOM     21  C1  UNL     1       7.095   7.338  27.173  0.00  0.00    +0.277 C 
ATOM     22  O1  UNL     1       8.211   7.902  27.854  0.00  0.00    -0.495 OA
ENDBRANCH  11  22
ENDBRANCH   1  19
BRANCH   8  23
ATOM     23  C16 UNL     1      14.383  14.075  35.693  0.00  0.00    +0.156 A 
ATOM     24  N3  UNL     1      15.397  13.666  36.485  0.00  0.00    -0.157 NA
ATOM     25  N4  UNL     1      15.788  14.738  37.148  0.00  0.00    -0.263 N 
ATOM     26  C17 UNL     1      15.010  15.762  36.765  0.00  0.00    +0.122 A 
ATOM     27  C18 UNL     1      15.178  17.165  37.247  0.00  0.00    +0.087 C 
ATOM     28  N5  UNL     1      14.109  15.391  35.834  0.00  0.00    -0.216 NA
ATOM     29  H20 UNL     1      16.571  14.760  37.840  0.00  0.00    +0.190 HD
ENDBRANCH   8  23
TORSDOF 3
ENDMDL
MODEL 2
REMARK VINA RESULT:    -7.014      8.856     13.519
REMARK INTER + INTRA:          -8.418
REMARK INTER:                  -7.923
REMARK INTRA:                  -0.495
REMARK UNBOUND:                -0.174
REMARK  Name = /home/qwerty/github/datacon2025hack/step_04_hit_selection/docking/ligands/lig_211.pdb
REMARK  5 active torsions:
REMARK  status: ('A' for Active; 'I' for Inactive)
REMARK    1  A    between atoms: C1_1  and  O1_2
REMARK    2  A    between atoms: O1_2  and  C2_3
REMARK    3  A    between atoms: C10_11  and  N1_12
REMARK    4  A    between atoms: C15_19  and  C16_20
REMARK    5  A    between atoms: C17_23  and  C18_24
REMARK                            x       y       z     vdW  Elec       q    Type
REMARK                         _______ _______ _______ _____ _____    ______ ____
ROOT
ATOM      1  N1  UNL     1      10.210   7.657  21.912  0.00  0.00    -0.296 N 
ATOM      2  C11 UNL     1      10.838   6.912  20.857  0.00  0.00    +0.302 C 
ATOM      3  O2  UNL     1      11.298   7.518  19.851  0.00  0.00    -0.253 OA
ATOM      4  N2  UNL     1      10.980   5.483  20.952  0.00  0.00    -0.285 N 
ATOM      5  C12 UNL     1       9.932   4.656  21.568  0.00  0.00    +0.109 C 
ATOM      6  C13 UNL     1      10.544   3.674  22.578  0.00  0.00    +0.020 C 
ATOM      7  C14 UNL     1      11.908   3.098  22.133  0.00  0.00    +0.014 C 
ATOM      8  C15 UNL     1      12.189   3.330  20.637  0.00  0.00    +0.076 C 
ATOM      9  C19 UNL     1      12.137   4.836  20.316  0.00  0.00    +0.120 C 
ATOM     10  H12 UNL     1      10.063   7.188  22.835  0.00  0.00    +0.151 HD
ENDROOT
BRANCH   1  19
ATOM     11  C2  UNL     1       8.349   9.844  26.548  0.00  0.00    +0.120 A 
ATOM     12  C3  UNL     1       9.749   9.694  26.560  0.00  0.00    +0.046 A 
ATOM     13  C4  UNL     1      10.472   9.712  25.363  0.00  0.00    +0.007 A 
ATOM     14  C5  UNL     1       9.803   9.864  24.142  0.00  0.00    -0.042 A 
ATOM     15  C6  UNL     1       8.410  10.010  24.121  0.00  0.00    -0.041 A 
ATOM     16  C7  UNL     1       7.688  10.006  25.324  0.00  0.00    +0.049 A 
ATOM     17  C8  UNL     1       7.731  10.206  22.794  0.00  0.00    +0.037 C 
ATOM     18  C9  UNL     1       8.285   9.214  21.756  0.00  0.00    +0.027 C 
ATOM     19  C10 UNL     1       9.841   9.070  21.756  0.00  0.00    +0.079 C 
ATOM     20  C20 UNL     1      10.547   9.925  22.835  0.00  0.00    +0.057 C 
BRANCH  11  22
ATOM     21  C1  UNL     1       7.893  10.598  28.887  0.00  0.00    +0.277 C 
ATOM     22  O1  UNL     1       7.582   9.840  27.722  0.00  0.00    -0.495 OA
ENDBRANCH  11  22
ENDBRANCH   1  19
BRANCH   8  23
ATOM     23  C16 UNL     1      13.518   2.748  20.242  0.00  0.00    +0.156 A 
ATOM     24  N3  UNL     1      14.463   3.427  19.558  0.00  0.00    -0.157 NA
ATOM     25  N4  UNL     1      15.462   2.580  19.391  0.00  0.00    -0.263 N 
ATOM     26  C17 UNL     1      15.109   1.416  19.956  0.00  0.00    +0.122 A 
ATOM     27  C18 UNL     1      15.998   0.219  20.029  0.00  0.00    +0.087 C 
ATOM     28  N5  UNL     1      13.886   1.477  20.517  0.00  0.00    -0.216 NA
ATOM     29  H20 UNL     1      16.359   2.804  18.906  0.00  0.00    +0.190 HD
ENDBRANCH   8  23
TORSDOF 3
ENDMDL
MODEL 3
REMARK VINA RESULT:    -6.998     13.996     17.247
REMARK INTER + INTRA:          -8.400
REMARK INTER:                  -7.904
REMARK INTRA:                  -0.496
REMARK UNBOUND:                -0.174
REMARK  Name = /home/qwerty/github/datacon2025hack/step_04_hit_selection/docking/ligands/lig_211.pdb
REMARK  5 active torsions:
REMARK  status: ('A' for Active; 'I' for Inactive)
REMARK    1  A    between atoms: C1_1  and  O1_2
REMARK    2  A    between atoms: O1_2  and  C2_3
REMARK    3  A    between atoms: C10_11  and  N1_12
REMARK    4  A    between atoms: C15_19  and  C16_20
REMARK    5  A    between atoms: C17_23  and  C18_24
REMARK                            x       y       z     vdW  Elec       q    Type
REMARK                         _______ _______ _______ _____ _____    ______ ____
ROOT
ATOM      1  N1  UNL     1      19.540   3.160  25.358  0.00  0.00    -0.296 N 
ATOM      2  C11 UNL     1      18.922   3.310  24.069  0.00  0.00    +0.302 C 
ATOM      3  O2  UNL     1      19.515   3.954  23.161  0.00  0.00    -0.253 OA
ATOM      4  N2  UNL     1      17.648   2.701  23.792  0.00  0.00    -0.285 N 
ATOM      5  C12 UNL     1      16.602   2.629  24.822  0.00  0.00    +0.109 C 
ATOM      6  C13 UNL     1      16.018   1.211  24.899  0.00  0.00    +0.020 C 
ATOM      7  C14 UNL     1      15.882   0.522  23.522  0.00  0.00    +0.014 C 
ATOM      8  C15 UNL     1      16.004   1.512  22.349  0.00  0.00    +0.076 C 
ATOM      9  C19 UNL     1      17.352   2.254  22.423  0.00  0.00    +0.120 C 
ATOM     10  H12 UNL     1      19.169   2.430  26.007  0.00  0.00    +0.151 HD
ENDROOT
BRANCH   1  19
ATOM     11  C2  UNL     1      21.477   1.685  30.236  0.00  0.00    +0.120 A 
ATOM     12  C3  UNL     1      21.815   0.757  29.232  0.00  0.00    +0.046 A 
ATOM     13  C4  UNL     1      21.940   1.170  27.903  0.00  0.00    +0.007 A 
ATOM     14  C5  UNL     1      21.716   2.510  27.560  0.00  0.00    -0.042 A 
ATOM     15  C6  UNL     1      21.375   3.438  28.553  0.00  0.00    -0.041 A 
ATOM     16  C7  UNL     1      21.263   3.024  29.888  0.00  0.00    +0.049 A 
ATOM     17  C8  UNL     1      21.177   4.874  28.151  0.00  0.00    +0.037 C 
ATOM     18  C9  UNL     1      20.320   4.960  26.876  0.00  0.00    +0.027 C 
ATOM     19  C10 UNL     1      20.715   3.947  25.754  0.00  0.00    +0.079 C 
ATOM     20  C20 UNL     1      21.877   3.002  26.147  0.00  0.00    +0.057 C 
BRANCH  11  22
ATOM     21  C1  UNL     1      20.219   0.641  32.128  0.00  0.00    +0.277 C 
ATOM     22  O1  UNL     1      21.346   1.320  31.585  0.00  0.00    -0.495 OA
ENDBRANCH  11  22
ENDBRANCH   1  19
BRANCH   8  23
ATOM     23  C16 UNL     1      15.857   0.807  21.030  0.00  0.00    +0.156 A 
ATOM     24  N3  UNL     1      14.928   1.127  20.104  0.00  0.00    -0.157 NA
ATOM     25  N4  UNL     1      15.109   0.280  19.109  0.00  0.00    -0.263 N 
ATOM     26  C17 UNL     1      16.119  -0.536  19.444  0.00  0.00    +0.122 A 
ATOM     27  C18 UNL     1      16.667  -1.599  18.551  0.00  0.00    +0.087 C 
ATOM     28  N5  UNL     1      16.633  -0.234  20.652  0.00  0.00    -0.216 NA
ATOM     29  H20 UNL     1      14.553   0.271  18.224  0.00  0.00    +0.190 HD
ENDBRANCH   8  23
TORSDOF 3
ENDMDL
MODEL 4
REMARK VINA RESULT:    -6.958     12.062     13.068
REMARK INTER + INTRA:          -8.352
REMARK INTER:                  -7.848
REMARK INTRA:                  -0.504
REMARK UNBOUND:                -0.174
REMARK  Name = /home/qwerty/github/datacon2025hack/step_04_hit_selection/docking/ligands/lig_211.pdb
REMARK  5 active torsions:
REMARK  status: ('A' for Active; 'I' for Inactive)
REMARK    1  A    between atoms: C1_1  and  O1_2
REMARK    2  A    between atoms: O1_2  and  C2_3
REMARK    3  A    between atoms: C10_11  and  N1_12
REMARK    4  A    between atoms: C15_19  and  C16_20
REMARK    5  A    between atoms: C17_23  and  C18_24
REMARK                            x       y       z     vdW  Elec       q    Type
REMARK                         _______ _______ _______ _____ _____    ______ ____
ROOT
ATOM      1  N1  UNL     1      20.846   5.005  30.851  0.00  0.00    -0.296 N 
ATOM      2  C11 UNL     1      20.434   6.160  31.600  0.00  0.00    +0.302 C 
ATOM      3  O2  UNL     1      19.397   6.791  31.257  0.00  0.00    -0.253 OA
ATOM      4  N2  UNL     1      21.172   6.582  32.761  0.00  0.00    -0.285 N 
ATOM      5  C12 UNL     1      22.637   6.477  32.808  0.00  0.00    +0.109 C 
ATOM      6  C13 UNL     1      23.088   5.827  34.124  0.00  0.00    +0.020 C 
ATOM      7  C14 UNL     1      22.243   6.252  35.346  0.00  0.00    +0.014 C 
ATOM      8  C15 UNL     1      21.382   7.497  35.067  0.00  0.00    +0.076 C 
ATOM      9  C19 UNL     1      20.454   7.239  33.864  0.00  0.00    +0.120 C 
ATOM     10  H12 UNL     1      21.543   4.355  31.280  0.00  0.00    +0.151 HD
ENDROOT
BRANCH   1  19
ATOM     11  C2  UNL     1      22.364   0.075  29.082  0.00  0.00    +0.120 A 
ATOM     12  C3  UNL     1      21.387  -0.005  30.094  0.00  0.00    +0.046 A 
ATOM     13  C4  UNL     1      20.475   1.038  30.279  0.00  0.00    +0.007 A 
ATOM     14  C5  UNL     1      20.537   2.178  29.466  0.00  0.00    -0.042 A 
ATOM     15  C6  UNL     1      21.508   2.266  28.460  0.00  0.00    -0.041 A 
ATOM     16  C7  UNL     1      22.414   1.213  28.267  0.00  0.00    +0.049 A 
ATOM     17  C8  UNL     1      21.521   3.489  27.585  0.00  0.00    +0.037 C 
ATOM     18  C9  UNL     1      21.368   4.761  28.438  0.00  0.00    +0.027 C 
ATOM     19  C10 UNL     1      20.266   4.677  29.543  0.00  0.00    +0.079 C 
ATOM     20  C20 UNL     1      19.551   3.305  29.608  0.00  0.00    +0.057 C 
BRANCH  11  22
ATOM     21  C1  UNL     1      24.661  -0.895  29.251  0.00  0.00    +0.277 C 
ATOM     22  O1  UNL     1      23.295  -0.949  28.854  0.00  0.00    -0.495 OA
ENDBRANCH  11  22
ENDBRANCH   1  19
BRANCH   8  23
ATOM     23  C16 UNL     1      20.583   7.884  36.280  0.00  0.00    +0.156 A 
ATOM     24  N3  UNL     1      20.685   7.268  37.476  0.00  0.00    -0.157 NA
ATOM     25  N4  UNL     1      19.820   7.876  38.267  0.00  0.00    -0.263 N 
ATOM     26  C17 UNL     1      19.208   8.829  37.547  0.00  0.00    +0.122 A 
ATOM     27  C18 UNL     1      18.200   9.779  38.104  0.00  0.00    +0.087 C 
ATOM     28  N5  UNL     1      19.666   8.878  36.281  0.00  0.00    -0.216 NA
ATOM     29  H20 UNL     1      19.664   7.642  39.273  0.00  0.00    +0.190 HD
ENDBRANCH   8  23
TORSDOF 3
ENDMDL
MODEL 5
REMARK VINA RESULT:    -6.948      6.079     11.967
REMARK INTER + INTRA:          -8.341
REMARK INTER:                  -7.846
REMARK INTRA:                  -0.494
REMARK UNBOUND:                -0.174
REMARK  Name = /home/qwerty/github/datacon2025hack/step_04_hit_selection/docking/ligands/lig_211.pdb
REMARK  5 active torsions:
REMARK  status: ('A' for Active; 'I' for Inactive)
REMARK    1  A    between atoms: C1_1  and  O1_2
REMARK    2  A    between atoms: O1_2  and  C2_3
REMARK    3  A    between atoms: C10_11  and  N1_12
REMARK    4  A    between atoms: C15_19  and  C16_20
REMARK    5  A    between atoms: C17_23  and  C18_24
REMARK                            x       y       z     vdW  Elec       q    Type
REMARK                         _______ _______ _______ _____ _____    ______ ____
ROOT
ATOM      1  N1  UNL     1       8.731   8.543  27.176  0.00  0.00    -0.296 N 
ATOM      2  C11 UNL     1       8.367   7.349  26.465  0.00  0.00    +0.302 C 
ATOM      3  O2  UNL     1       7.474   6.590  26.932  0.00  0.00    -0.253 OA
ATOM      4  N2  UNL     1       8.987   7.028  25.206  0.00  0.00    -0.285 N 
ATOM      5  C12 UNL     1      10.407   7.319  24.964  0.00  0.00    +0.109 C 
ATOM      6  C13 UNL     1      10.589   8.026  23.613  0.00  0.00    +0.020 C 
ATOM      7  C14 UNL     1       9.643   7.502  22.507  0.00  0.00    +0.014 C 
ATOM      8  C15 UNL     1       8.991   6.156  22.874  0.00  0.00    +0.076 C 
ATOM      9  C19 UNL     1       8.213   6.290  24.197  0.00  0.00    +0.120 C 
ATOM     10  H12 UNL     1       9.275   9.278  26.670  0.00  0.00    +0.151 HD
ENDROOT
BRANCH   1  19
ATOM     11  C2  UNL     1      10.267  13.451  28.989  0.00  0.00    +0.120 A 
ATOM     12  C3  UNL     1       9.175  13.534  28.104  0.00  0.00    +0.046 A 
ATOM     13  C4  UNL     1       8.286  12.462  27.977  0.00  0.00    +0.007 A 
ATOM     14  C5  UNL     1       8.486  11.293  28.721  0.00  0.00    -0.042 A 
ATOM     15  C6  UNL     1       9.573  11.201  29.601  0.00  0.00    -0.041 A 
ATOM     16  C7  UNL     1      10.455  12.283  29.737  0.00  0.00    +0.049 A 
ATOM     17  C8  UNL     1       9.734   9.943  30.409  0.00  0.00    +0.037 C 
ATOM     18  C9  UNL     1       9.527   8.705  29.520  0.00  0.00    +0.027 C 
ATOM     19  C10 UNL     1       8.299   8.790  28.558  0.00  0.00    +0.079 C 
ATOM     20  C20 UNL     1       7.532  10.132  28.642  0.00  0.00    +0.057 C 
BRANCH  11  22
ATOM     21  C1  UNL     1      12.104  14.930  28.160  0.00  0.00    +0.277 C 
ATOM     22  O1  UNL     1      11.181  14.502  29.156  0.00  0.00    -0.495 OA
ENDBRANCH  11  22
ENDBRANCH   1  19
BRANCH   8  23
ATOM     23  C16 UNL     1       8.088   5.676  21.773  0.00  0.00    +0.156 A 
ATOM     24  N3  UNL     1       8.291   4.539  21.075  0.00  0.00    -0.157 NA
ATOM     25  N4  UNL     1       7.307   4.477  20.198  0.00  0.00    -0.263 N 
ATOM     26  C17 UNL     1       6.541   5.566  20.365  0.00  0.00    +0.122 A 
ATOM     27  C18 UNL     1       5.289   5.834  19.597  0.00  0.00    +0.087 C 
ATOM     28  N5  UNL     1       6.993   6.353  21.361  0.00  0.00    -0.216 NA
ATOM     29  H20 UNL     1       7.169   3.704  19.509  0.00  0.00    +0.190 HD
ENDBRANCH   8  23
TORSDOF 3
ENDMDL
MODEL 6
REMARK VINA RESULT:    -6.922     13.372     16.586
REMARK INTER + INTRA:          -8.310
REMARK INTER:                  -7.806
REMARK INTRA:                  -0.504
REMARK UNBOUND:                -0.174
REMARK  Name = /home/qwerty/github/datacon2025hack/step_04_hit_selection/docking/ligands/lig_211.pdb
REMARK  5 active torsions:
REMARK  status: ('A' for Active; 'I' for Inactive)
REMARK    1  A    between atoms: C1_1  and  O1_2
REMARK    2  A    between atoms: O1_2  and  C2_3
REMARK    3  A    between atoms: C10_11  and  N1_12
REMARK    4  A    between atoms: C15_19  and  C16_20
REMARK    5  A    between atoms: C17_23  and  C18_24
REMARK                            x       y       z     vdW  Elec       q    Type
REMARK                         _______ _______ _______ _____ _____    ______ ____
ROOT
ATOM      1  N1  UNL     1      14.878   0.490  22.396  0.00  0.00    -0.296 N 
ATOM      2  C11 UNL     1      13.639   0.917  21.805  0.00  0.00    +0.302 C 
ATOM      3  O2  UNL     1      12.566   0.327  22.106  0.00  0.00    -0.253 OA
ATOM      4  N2  UNL     1      13.606   2.035  20.900  0.00  0.00    -0.285 N 
ATOM      5  C12 UNL     1      14.701   2.274  19.948  0.00  0.00    +0.109 C 
ATOM      6  C13 UNL     1      15.145   3.743  19.995  0.00  0.00    +0.020 C 
ATOM      7  C14 UNL     1      13.977   4.737  20.189  0.00  0.00    +0.014 C 
ATOM      8  C15 UNL     1      12.603   4.095  19.925  0.00  0.00    +0.076 C 
ATOM      9  C19 UNL     1      12.402   2.878  20.849  0.00  0.00    +0.120 C 
ATOM     10  H12 UNL     1      15.703   1.129  22.339  0.00  0.00    +0.151 HD
ENDROOT
BRANCH   1  19
ATOM     11  C2  UNL     1      19.091   0.486  25.856  0.00  0.00    +0.120 A 
ATOM     12  C3  UNL     1      18.011   1.249  26.341  0.00  0.00    +0.046 A 
ATOM     13  C4  UNL     1      16.702   0.946  25.954  0.00  0.00    +0.007 A 
ATOM     14  C5  UNL     1      16.460  -0.112  25.068  0.00  0.00    -0.042 A 
ATOM     15  C6  UNL     1      17.530  -0.873  24.578  0.00  0.00    -0.041 A 
ATOM     16  C7  UNL     1      18.841  -0.576  24.979  0.00  0.00    +0.049 A 
ATOM     17  C8  UNL     1      17.227  -2.022  23.657  0.00  0.00    +0.037 C 
ATOM     18  C9  UNL     1      16.203  -1.598  22.589  0.00  0.00    +0.027 C 
ATOM     19  C10 UNL     1      14.993  -0.774  23.134  0.00  0.00    +0.079 C 
ATOM     20  C20 UNL     1      15.064  -0.494  24.656  0.00  0.00    +0.057 C 
BRANCH  11  22
ATOM     21  C1  UNL     1      20.822   1.228  27.501  0.00  0.00    +0.277 C 
ATOM     22  O1  UNL     1      20.420   0.747  26.222  0.00  0.00    -0.495 OA
ENDBRANCH  11  22
ENDBRANCH   1  19
BRANCH   8  23
ATOM     23  C16 UNL     1      11.495   5.094  20.115  0.00  0.00    +0.156 A 
ATOM     24  N3  UNL     1      10.189   4.763  20.192  0.00  0.00    -0.157 NA
ATOM     25  N4  UNL     1       9.540   5.903  20.340  0.00  0.00    -0.263 N 
ATOM     26  C17 UNL     1      10.446   6.893  20.338  0.00  0.00    +0.122 A 
ATOM     27  C18 UNL     1      10.110   8.333  20.541  0.00  0.00    +0.087 C 
ATOM     28  N5  UNL     1      11.703   6.426  20.207  0.00  0.00    -0.216 NA
ATOM     29  H20 UNL     1       8.504   5.991  20.442  0.00  0.00    +0.190 HD
ENDBRANCH   8  23
TORSDOF 3
ENDMDL
MODEL 7
REMARK VINA RESULT:    -6.836     13.824     16.678
REMARK INTER + INTRA:          -8.209
REMARK INTER:                  -8.045
REMARK INTRA:                  -0.164
REMARK UNBOUND:                -0.174
REMARK  Name = /home/qwerty/github/datacon2025hack/step_04_hit_selection/docking/ligands/lig_211.pdb
REMARK  5 active torsions:
REMARK  status: ('A' for Active; 'I' for Inactive)
REMARK    1  A    between atoms: C1_1  and  O1_2
REMARK    2  A    between atoms: O1_2  and  C2_3
REMARK    3  A    between atoms: C10_11  and  N1_12
REMARK    4  A    between atoms: C15_19  and  C16_20
REMARK    5  A    between atoms: C17_23  and  C18_24
REMARK                            x       y       z     vdW  Elec       q    Type
REMARK                         _______ _______ _______ _____ _____    ______ ____
ROOT
ATOM      1  N1  UNL     1      20.444   2.815  25.597  0.00  0.00    -0.296 N 
ATOM      2  C11 UNL     1      19.347   3.493  24.965  0.00  0.00    +0.302 C 
ATOM      3  O2  UNL     1      19.394   4.743  24.801  0.00  0.00    -0.253 OA
ATOM      4  N2  UNL     1      18.208   2.756  24.485  0.00  0.00    -0.285 N 
ATOM      5  C12 UNL     1      17.695   1.590  25.219  0.00  0.00    +0.109 C 
ATOM      6  C13 UNL     1      17.469   0.409  24.263  0.00  0.00    +0.020 C 
ATOM      7  C14 UNL     1      16.927   0.828  22.878  0.00  0.00    +0.014 C 
ATOM      8  C15 UNL     1      16.380   2.267  22.866  0.00  0.00    +0.076 C 
ATOM      9  C19 UNL     1      17.479   3.253  23.308  0.00  0.00    +0.120 C 
ATOM     10  H12 UNL     1      20.509   1.776  25.503  0.00  0.00    +0.151 HD
ENDROOT
BRANCH   1  19
ATOM     11  C2  UNL     1      21.199   0.987  30.678  0.00  0.00    +0.120 A 
ATOM     12  C3  UNL     1      21.745   0.114  29.718  0.00  0.00    +0.046 A 
ATOM     13  C4  UNL     1      22.175   0.605  28.481  0.00  0.00    +0.007 A 
ATOM     14  C5  UNL     1      22.052   1.969  28.186  0.00  0.00    -0.042 A 
ATOM     15  C6  UNL     1      21.507   2.843  29.136  0.00  0.00    -0.041 A 
ATOM     16  C7  UNL     1      21.088   2.351  30.381  0.00  0.00    +0.049 A 
ATOM     17  C8  UNL     1      21.424   4.306  28.796  0.00  0.00    +0.037 C 
ATOM     18  C9  UNL     1      20.882   4.495  27.369  0.00  0.00    +0.027 C 
ATOM     19  C10 UNL     1      21.508   3.542  26.301  0.00  0.00    +0.079 C 
ATOM     20  C20 UNL     1      22.538   2.543  26.883  0.00  0.00    +0.057 C 
BRANCH  11  22
ATOM     21  C1  UNL     1      19.426   0.136  32.222  0.00  0.00    +0.277 C 
ATOM     22  O1  UNL     1      20.760   0.543  31.935  0.00  0.00    -0.495 OA
ENDBRANCH  11  22
ENDBRANCH   1  19
BRANCH   8  23
ATOM     23  C16 UNL     1      15.854   2.634  21.506  0.00  0.00    +0.156 A 
ATOM     24  N3  UNL     1      16.214   2.007  20.366  0.00  0.00    -0.157 NA
ATOM     25  N4  UNL     1      15.560   2.622  19.399  0.00  0.00    -0.263 N 
ATOM     26  C17 UNL     1      14.835   3.605  19.955  0.00  0.00    +0.122 A 
ATOM     27  C18 UNL     1      13.909   4.494  19.194  0.00  0.00    +0.087 C 
ATOM     28  N5  UNL     1      14.983   3.645  21.294  0.00  0.00    -0.216 NA
ATOM     29  H20 UNL     1      15.611   2.366  18.387  0.00  0.00    +0.190 HD
ENDBRANCH   8  23
TORSDOF 3
ENDMDL
MODEL 8
REMARK VINA RESULT:    -6.803     12.063     13.246
REMARK INTER + INTRA:          -8.170
REMARK INTER:                  -8.222
REMARK INTRA:                   0.052
REMARK UNBOUND:                -0.174
REMARK  Name = /home/qwerty/github/datacon2025hack/step_04_hit_selection/docking/ligands/lig_211.pdb
REMARK  5 active torsions:
REMARK  status: ('A' for Active; 'I' for Inactive)
REMARK    1  A    between atoms: C1_1  and  O1_2
REMARK    2  A    between atoms: O1_2  and  C2_3
REMARK    3  A    between atoms: C10_11  and  N1_12
REMARK    4  A    between atoms: C15_19  and  C16_20
REMARK    5  A    between atoms: C17_23  and  C18_24
REMARK                            x       y       z     vdW  Elec       q    Type
REMARK                         _______ _______ _______ _____ _____    ______ ____
ROOT
ATOM      1  N1  UNL     1      20.352   2.499  32.481  0.00  0.00    -0.296 N 
ATOM      2  C11 UNL     1      19.601   3.628  32.956  0.00  0.00    +0.302 C 
ATOM      3  O2  UNL     1      18.341   3.582  32.967  0.00  0.00    -0.253 OA
ATOM      4  N2  UNL     1      20.274   4.799  33.455  0.00  0.00    -0.285 N 
ATOM      5  C12 UNL     1      21.523   5.274  32.842  0.00  0.00    +0.109 C 
ATOM      6  C13 UNL     1      22.576   5.564  33.922  0.00  0.00    +0.020 C 
ATOM      7  C14 UNL     1      21.988   6.187  35.209  0.00  0.00    +0.014 C 
ATOM      8  C15 UNL     1      20.559   6.723  35.008  0.00  0.00    +0.076 C 
ATOM      9  C19 UNL     1      19.635   5.593  34.514  0.00  0.00    +0.120 C 
ATOM     10  H12 UNL     1      21.371   2.447  32.708  0.00  0.00    +0.151 HD
ENDROOT
BRANCH   1  19
ATOM     11  C2  UNL     1      22.146   2.067  27.351  0.00  0.00    +0.120 A 
ATOM     12  C3  UNL     1      23.086   1.581  28.281  0.00  0.00    +0.046 A 
ATOM     13  C4  UNL     1      22.662   1.071  29.511  0.00  0.00    +0.007 A 
ATOM     14  C5  UNL     1      21.299   1.053  29.832  0.00  0.00    -0.042 A 
ATOM     15  C6  UNL     1      20.358   1.538  28.913  0.00  0.00    -0.041 A 
ATOM     16  C7  UNL     1      20.784   2.037  27.674  0.00  0.00    +0.049 A 
ATOM     17  C8  UNL     1      18.901   1.470  29.279  0.00  0.00    +0.037 C 
ATOM     18  C9  UNL     1      18.688   1.951  30.725  0.00  0.00    +0.027 C 
ATOM     19  C10 UNL     1      19.717   1.390  31.759  0.00  0.00    +0.079 C 
ATOM     20  C20 UNL     1      20.799   0.478  31.129  0.00  0.00    +0.057 C 
BRANCH  11  22
ATOM     21  C1  UNL     1      22.556   3.969  25.780  0.00  0.00    +0.277 C 
ATOM     22  O1  UNL     1      22.522   2.582  26.101  0.00  0.00    -0.495 OA
ENDBRANCH  11  22
ENDBRANCH   1  19
BRANCH   8  23
ATOM     23  C16 UNL     1      20.027   7.328  36.277  0.00  0.00    +0.156 A 
ATOM     24  N3  UNL     1      20.295   6.848  37.510  0.00  0.00    -0.157 NA
ATOM     25  N4  UNL     1      19.640   7.629  38.348  0.00  0.00    -0.263 N 
ATOM     26  C17 UNL     1      18.985   8.548  37.624  0.00  0.00    +0.122 A 
ATOM     27  C18 UNL     1      18.173   9.654  38.213  0.00  0.00    +0.087 C 
ATOM     28  N5  UNL     1      19.208   8.403  36.303  0.00  0.00    -0.216 NA
ATOM     29  H20 UNL     1      19.651   7.530  39.388  0.00  0.00    +0.190 HD
ENDBRANCH   8  23
TORSDOF 3
ENDMDL
MODEL 9
REMARK VINA RESULT:    -6.659      4.410      6.616
REMARK INTER + INTRA:          -8.001
REMARK INTER:                  -7.505
REMARK INTRA:                  -0.496
REMARK UNBOUND:                -0.174
REMARK  Name = /home/qwerty/github/datacon2025hack/step_04_hit_selection/docking/ligands/lig_211.pdb
REMARK  5 active torsions:
REMARK  status: ('A' for Active; 'I' for Inactive)
REMARK    1  A    between atoms: C1_1  and  O1_2
REMARK    2  A    between atoms: O1_2  and  C2_3
REMARK    3  A    between atoms: C10_11  and  N1_12
REMARK    4  A    between atoms: C15_19  and  C16_20
REMARK    5  A    between atoms: C17_23  and  C18_24
REMARK                            x       y       z     vdW  Elec       q    Type
REMARK                         _______ _______ _______ _____ _____    ______ ____
ROOT
ATOM      1  N1  UNL     1      13.741  12.302  35.107  0.00  0.00    -0.296 N 
ATOM      2  C11 UNL     1      14.468  11.751  36.217  0.00  0.00    +0.302 C 
ATOM      3  O2  UNL     1      13.845  11.169  37.146  0.00  0.00    -0.253 OA
ATOM      4  N2  UNL     1      15.905  11.825  36.261  0.00  0.00    -0.285 N 
ATOM      5  C12 UNL     1      16.619  13.006  35.757  0.00  0.00    +0.109 C 
ATOM      6  C13 UNL     1      17.774  12.585  34.836  0.00  0.00    +0.020 C 
ATOM      7  C14 UNL     1      18.504  11.305  35.304  0.00  0.00    +0.014 C 
ATOM      8  C15 UNL     1      18.176  10.936  36.762  0.00  0.00    +0.076 C 
ATOM      9  C19 UNL     1      16.655  10.753  36.932  0.00  0.00    +0.120 C 
ATOM     10  H12 UNL     1      14.269  12.552  34.240  0.00  0.00    +0.151 HD
ENDROOT
BRANCH   1  19
ATOM     11  C2  UNL     1      11.667  13.199  30.145  0.00  0.00    +0.120 A 
ATOM     12  C3  UNL     1      12.031  11.851  30.329  0.00  0.00    +0.046 A 
ATOM     13  C4  UNL     1      12.030  11.288  31.608  0.00  0.00    +0.007 A 
ATOM     14  C5  UNL     1      11.681  12.067  32.718  0.00  0.00    -0.042 A 
ATOM     15  C6  UNL     1      11.321  13.411  32.544  0.00  0.00    -0.041 A 
ATOM     16  C7  UNL     1      11.309  13.970  31.258  0.00  0.00    +0.049 A 
ATOM     17  C8  UNL     1      10.918  14.205  33.755  0.00  0.00    +0.037 C 
ATOM     18  C9  UNL     1      11.899  13.952  34.913  0.00  0.00    +0.027 C 
ATOM     19  C10 UNL     1      12.281  12.453  35.130  0.00  0.00    +0.079 C 
ATOM     20  C20 UNL     1      11.632  11.490  34.106  0.00  0.00    +0.057 C 
BRANCH  11  22
ATOM     21  C1  UNL     1      10.479  13.940  28.073  0.00  0.00    +0.277 C 
ATOM     22  O1  UNL     1      11.645  13.807  28.880  0.00  0.00    -0.495 OA
ENDBRANCH  11  22
ENDBRANCH   1  19
BRANCH   8  23
ATOM     23  C16 UNL     1      18.910   9.693  37.182  0.00  0.00    +0.156 A 
ATOM     24  N3  UNL     1      18.466   8.841  38.130  0.00  0.00    -0.157 NA
ATOM     25  N4  UNL     1      19.385   7.898  38.222  0.00  0.00    -0.263 N 
ATOM     26  C17 UNL     1      20.363   8.194  37.353  0.00  0.00    +0.122 A 
ATOM     27  C18 UNL     1      21.560   7.333  37.115  0.00  0.00    +0.087 C 
ATOM     28  N5  UNL     1      20.100   9.321  36.662  0.00  0.00    -0.216 NA
ATOM     29  H20 UNL     1      19.334   7.075  38.864  0.00  0.00    +0.190 HD
ENDBRANCH   8  23
TORSDOF 3
ENDMDL
