REMARK  Name = /home/qwerty/github/datacon2025hack/step_04_hit_selection/docking/ligands/lig_427.pdb
REMARK  9 active torsions:
REMARK  status: ('A' for Active; 'I' for Inactive)
REMARK    1  A    between atoms: C1_1  and  C2_2
REMARK    2  A    between atoms: C2_2  and  C3_3
REMARK    3  A    between atoms: C3_3  and  C4_5
REMARK    4  A    between atoms: C4_5  and  N1_6
REMARK    5  A    between atoms: C8_10  and  C9_11
REMARK    6  A    between atoms: C9_11  and  N2_12
REMARK    7  A    between atoms: C10_13  and  C11_15
REMARK    8  A    between atoms: N3_17  and  C13_18
REMARK    9  A    between atoms: C14_20  and  C15_21
REMARK                            x       y       z     vdW  Elec       q    Type
REMARK                         _______ _______ _______ _____ _____    ______ ____
ROOT
ATOM      1  N2  UNL     1      -0.842  -0.815  -1.246  0.00  0.00    -0.310 N 
ATOM      2  C10 UNL     1      -1.412   0.146  -0.344  0.00  0.00    +0.247 C 
ATOM      3  O1  UNL     1      -0.682   1.044   0.155  0.00  0.00    -0.270 OA
ATOM      4  H18 UNL     1      -1.470  -1.449  -1.788  0.00  0.00    +0.149 HD
ENDROOT
BRANCH   2   5
ATOM      5  C11 UNL     1      -2.847   0.096   0.006  0.00  0.00    +0.077 A 
ATOM      6  C12 UNL     1      -3.748  -0.908  -0.298  0.00  0.00    +0.121 A 
ATOM      7  N3  UNL     1      -4.935  -0.585   0.247  0.00  0.00    -0.273 N 
ATOM      8  C13 UNL     1      -6.166  -1.353   0.121  0.00  0.00    +0.172 C 
ATOM      9  N4  UNL     1      -4.853   0.579   0.870  0.00  0.00    -0.175 NA
ATOM     10  C14 UNL     1      -3.586   1.020   0.735  0.00  0.00    +0.078 A 
BRANCH  10  11
ATOM     11  C15 UNL     1      -3.081   2.293   1.348  0.00  0.00    +0.040 C 
ATOM     12  C16 UNL     1      -4.011   3.490   1.206  0.00  0.00    +0.010 C 
ATOM     13  C17 UNL     1      -2.765   3.392   0.344  0.00  0.00    +0.010 C 
ENDBRANCH  10  11
ENDBRANCH   2   5
BRANCH   1  14
ATOM     14  C9  UNL     1       0.594  -0.891  -1.513  0.00  0.00    +0.123 C 
BRANCH  14  19
ATOM     15  N1  UNL     1       2.804  -1.486  -0.621  0.00  0.00    -0.295 NA
ATOM     16  C5  UNL     1       3.264  -2.882  -0.547  0.00  0.00    +0.085 C 
ATOM     17  C6  UNL     1       2.044  -3.766  -0.675  0.00  0.00    +0.017 C 
ATOM     18  C7  UNL     1       0.943  -2.943  -0.059  0.00  0.00    +0.022 C 
ATOM     19  C8  UNL     1       1.356  -1.489  -0.315  0.00  0.00    +0.074 C 
BRANCH  15  20
ATOM     20  C4  UNL     1       3.599  -0.613   0.271  0.00  0.00    +0.121 C 
BRANCH  20  21
ATOM     21  C3  UNL     1       3.473   0.864  -0.137  0.00  0.00    +0.180 C 
ATOM     22  F1  UNL     1       2.220   1.342   0.203  0.00  0.00    -0.244 F 
BRANCH  21  24
ATOM     23  C1  UNL     1       4.461   3.182   0.130  0.00  0.00    +0.007 C 
ATOM     24  C2  UNL     1       4.542   1.719   0.561  0.00  0.00    +0.035 C 
ENDBRANCH  21  24
ENDBRANCH  20  21
ENDBRANCH  15  20
ENDBRANCH  14  19
ENDBRANCH   1  14
TORSDOF 7
