REMARK  Name = /home/qwerty/github/datacon2025hack/step_04_hit_selection/docking/ligands/lig_746.pdb
REMARK  8 active torsions:
REMARK  status: ('A' for Active; 'I' for Inactive)
REMARK    1  A    between atoms: C1_1  and  O1_2
REMARK    2  A    between atoms: O1_2  and  C2_3
REMARK    3  A    between atoms: C5_6  and  N1_7
REMARK    4  A    between atoms: N2_10  and  C7_11
REMARK    5  A    between atoms: C7_11  and  C8_12
REMARK    6  A    between atoms: C7_11  and  C9_13
REMARK    7  A    between atoms: C18_23  and  N3_24
REMARK    8  A    between atoms: C19_25  and  C20_27
REMARK                            x       y       z     vdW  Elec       q    Type
REMARK                         _______ _______ _______ _____ _____    ______ ____
ROOT
ATOM      1  C2  UNL     1      -2.393  -1.674  -1.128  0.00  0.00    +0.141 A 
ATOM      2  C3  UNL     1      -1.174  -2.217  -1.577  0.00  0.00    +0.049 A 
ATOM      3  C4  UNL     1       0.041  -1.725  -1.095  0.00  0.00    +0.027 A 
ATOM      4  C5  UNL     1       0.064  -0.697  -0.141  0.00  0.00    +0.037 A 
ATOM      5  C17 UNL     1      -1.147  -0.132   0.282  0.00  0.00    +0.050 A 
ATOM      6  C18 UNL     1      -2.372  -0.599  -0.215  0.00  0.00    +0.078 A 
ENDROOT
BRANCH   4   7
ATOM      7  N1  UNL     1       1.304  -0.170   0.364  0.00  0.00    -0.269 N 
ATOM      8  C6  UNL     1       2.483  -0.961   0.578  0.00  0.00    +0.304 C 
ATOM      9  O2  UNL     1       2.412  -2.220   0.587  0.00  0.00    -0.252 OA
ATOM     10  N2  UNL     1       3.738  -0.310   0.820  0.00  0.00    -0.290 N 
ATOM     11  H6  UNL     1       1.329   0.831   0.664  0.00  0.00    +0.156 HD
ATOM     12  H7  UNL     1       3.751   0.733   0.892  0.00  0.00    +0.151 HD
BRANCH  10  13
ATOM     13  C7  UNL     1       4.969  -1.053   1.099  0.00  0.00    +0.137 C 
ATOM     14  C8  UNL     1       5.090  -1.308   2.603  0.00  0.00    +0.036 C 
BRANCH  13  15
ATOM     15  C9  UNL     1       6.153  -0.291   0.569  0.00  0.00    +0.126 A 
ATOM     16  C10 UNL     1       6.412  -0.069  -0.781  0.00  0.00    +0.055 A 
ATOM     17  C11 UNL     1       7.571   0.671  -0.787  0.00  0.00    +0.020 A 
ATOM     18  C12 UNL     1       8.313   1.196  -1.842  0.00  0.00    +0.011 A 
ATOM     19  C13 UNL     1       9.475   1.925  -1.526  0.00  0.00    +0.001 A 
ATOM     20  C14 UNL     1       9.860   2.107  -0.178  0.00  0.00    +0.004 A 
ATOM     21  C15 UNL     1       9.086   1.564   0.865  0.00  0.00    +0.047 A 
ATOM     22  C16 UNL     1       7.941   0.850   0.519  0.00  0.00    +0.135 A 
ATOM     23  O3  UNL     1       7.084   0.272   1.322  0.00  0.00    -0.458 OA
ENDBRANCH  13  15
ENDBRANCH  10  13
ENDBRANCH   4   7
BRANCH   6  24
ATOM     24  N3  UNL     1      -3.589  -0.004   0.265  0.00  0.00    -0.276 N 
ATOM     25  C19 UNL     1      -4.661   0.402  -0.599  0.00  0.00    +0.284 C 
ATOM     26  O4  UNL     1      -4.493   0.440  -1.848  0.00  0.00    -0.266 OA
ATOM     27  H18 UNL     1      -3.642   0.255   1.277  0.00  0.00    +0.155 HD
BRANCH  25  28
ATOM     28  C20 UNL     1      -5.956   0.802  -0.029  0.00  0.00    +0.191 A 
ATOM     29  C21 UNL     1      -7.080   1.181  -0.760  0.00  0.00    +0.063 A 
ATOM     30  C22 UNL     1      -8.032   1.449   0.196  0.00  0.00    +0.021 A 
ATOM     31  C23 UNL     1      -9.356   1.867   0.075  0.00  0.00    +0.011 A 
ATOM     32  C24 UNL     1     -10.091   2.059   1.260  0.00  0.00    +0.001 A 
ATOM     33  C25 UNL     1      -9.492   1.830   2.520  0.00  0.00    +0.004 A 
ATOM     34  C26 UNL     1      -8.152   1.409   2.606  0.00  0.00    +0.047 A 
ATOM     35  C27 UNL     1      -7.451   1.227   1.416  0.00  0.00    +0.136 A 
ATOM     36  O5  UNL     1      -6.208   0.839   1.268  0.00  0.00    -0.450 OA
ENDBRANCH  25  28
ENDBRANCH   6  24
BRANCH   1  38
ATOM     37  C1  UNL     1      -3.787  -3.260  -2.476  0.00  0.00    +0.277 C 
ATOM     38  O1  UNL     1      -3.630  -2.191  -1.549  0.00  0.00    -0.493 OA
ENDBRANCH   1  38
TORSDOF 6
