REMARK  Name = /home/qwerty/github/datacon2025hack/step_04_hit_selection/docking/ligands/lig_207.pdb
REMARK  8 active torsions:
REMARK  status: ('A' for Active; 'I' for Inactive)
REMARK    1  A    between atoms: C1_1  and  O1_2
REMARK    2  A    between atoms: O1_2  and  C2_3
REMARK    3  A    between atoms: C2_3  and  C3_5
REMARK    4  A    between atoms: C11_15  and  C12_17
REMARK    5  A    between atoms: C14_19  and  C15_20
REMARK    6  A    between atoms: C17_22  and  C18_23
REMARK    7  A    between atoms: C21_26  and  O5_27
REMARK    8  A    between atoms: O5_27  and  C22_28
REMARK                            x       y       z     vdW  Elec       q    Type
REMARK                         _______ _______ _______ _____ _____    ______ ____
ROOT
ATOM      1  C12 UNL     1      -0.369   1.106   0.600  0.00  0.00    +0.121 A 
ATOM      2  C13 UNL     1       0.368  -0.028   0.880  0.00  0.00    +0.064 A 
ATOM      3  C14 UNL     1       1.656   0.307   0.505  0.00  0.00    +0.111 A 
ATOM      4  N4  UNL     1       1.685   1.574   0.044  0.00  0.00    -0.172 NA
ATOM      5  N5  UNL     1       0.454   2.052   0.109  0.00  0.00    -0.272 N 
ATOM      6  H21 UNL     1       0.197   3.028  -0.157  0.00  0.00    +0.189 HD
ENDROOT
BRANCH   1  17
ATOM      7  C3  UNL     1      -7.097  -0.035   0.078  0.00  0.00    +0.062 A 
ATOM      8  C4  UNL     1      -6.930   0.625   1.303  0.00  0.00    +0.015 A 
ATOM      9  C5  UNL     1      -5.889   1.537   1.479  0.00  0.00    +0.009 A 
ATOM     10  C6  UNL     1      -4.990   1.814   0.435  0.00  0.00    +0.012 A 
ATOM     11  C7  UNL     1      -5.180   1.184  -0.825  0.00  0.00    +0.126 A 
ATOM     12  C8  UNL     1      -6.215   0.253  -0.977  0.00  0.00    +0.061 A 
ATOM     13  O3  UNL     1      -4.374   1.428  -1.951  0.00  0.00    -0.490 OA
ATOM     14  C9  UNL     1      -3.568   2.586  -2.158  0.00  0.00    +0.248 C 
ATOM     15  C10 UNL     1      -2.302   2.545  -1.297  0.00  0.00    +0.149 C 
ATOM     16  N1  UNL     1      -2.607   2.232   0.106  0.00  0.00    -0.289 N 
ATOM     17  C11 UNL     1      -1.816   1.272   0.838  0.00  0.00    +0.265 C 
ATOM     18  O4  UNL     1      -2.368   0.549   1.714  0.00  0.00    -0.268 OA
ATOM     19  C25 UNL     1      -3.840   2.753   0.706  0.00  0.00    +0.147 C 
BRANCH   7  20
ATOM     20  C2  UNL     1      -8.193  -1.014  -0.100  0.00  0.00    +0.339 C 
ATOM     21  O2  UNL     1      -8.342  -1.605  -1.207  0.00  0.00    -0.245 OA
BRANCH  20  23
ATOM     22  C1  UNL     1     -10.122  -2.234   0.861  0.00  0.00    +0.280 C 
ATOM     23  O1  UNL     1      -9.068  -1.283   0.958  0.00  0.00    -0.464 OA
ENDBRANCH  20  23
ENDBRANCH   7  20
ENDBRANCH   1  17
BRANCH   3  24
ATOM     24  C15 UNL     1       2.837  -0.566   0.573  0.00  0.00    +0.086 A 
ATOM     25  C16 UNL     1       4.114  -0.234   0.172  0.00  0.00    +0.059 A 
ATOM     26  C17 UNL     1       4.856  -1.382   0.408  0.00  0.00    +0.093 A 
ATOM     27  N2  UNL     1       4.052  -2.338   0.922  0.00  0.00    -0.173 NA
ATOM     28  N3  UNL     1       2.833  -1.835   1.020  0.00  0.00    -0.275 N 
ATOM     29  H20 UNL     1       2.011  -2.367   1.385  0.00  0.00    +0.189 HD
BRANCH  26  30
ATOM     30  C18 UNL     1       6.301  -1.582   0.135  0.00  0.00    +0.002 A 
ATOM     31  C19 UNL     1       6.877  -2.853   0.300  0.00  0.00    +0.013 A 
ATOM     32  C20 UNL     1       8.235  -3.058   0.037  0.00  0.00    +0.046 A 
ATOM     33  C21 UNL     1       9.044  -2.001  -0.392  0.00  0.00    +0.120 A 
ATOM     34  C23 UNL     1       8.474  -0.724  -0.553  0.00  0.00    +0.046 A 
ATOM     35  C24 UNL     1       7.116  -0.518  -0.292  0.00  0.00    +0.013 A 
BRANCH  33  36
ATOM     36  O5  UNL     1      10.399  -2.260  -0.646  0.00  0.00    -0.495 OA
ATOM     37  C22 UNL     1      11.334  -1.280  -1.088  0.00  0.00    +0.277 C 
ENDBRANCH  33  36
ENDBRANCH  26  30
ENDBRANCH   3  24
TORSDOF 6
