REMARK  Name = /home/qwerty/github/datacon2025hack/step_04_hit_selection/docking/ligands/lig_628.pdb
REMARK  11 active torsions:
REMARK  status: ('A' for Active; 'I' for Inactive)
REMARK    1  A    between atoms: C1_1  and  C2_2
REMARK    2  A    between atoms: C2_2  and  C3_3
REMARK    3  A    between atoms: C2_2  and  C4_4
REMARK    4  A    between atoms: C2_2  and  O1_5
REMARK    5  A    between atoms: O1_5  and  C5_6
REMARK    6  A    between atoms: N1_8  and  C6_9
REMARK    7  A    between atoms: C9_12  and  N2_13
REMARK    8  A    between atoms: N3_16  and  C11_17
REMARK    9  A    between atoms: C11_17  and  C12_18
REMARK   10  A    between atoms: C12_18  and  C13_19
REMARK   11  A    between atoms: C12_18  and  N4_24
REMARK                            x       y       z     vdW  Elec       q    Type
REMARK                         _______ _______ _______ _____ _____    ______ ____
ROOT
ATOM      1  N2  UNL     1      -0.837   1.801   1.759  0.00  0.00    -0.269 N 
ATOM      2  C10 UNL     1      -1.625   1.904   0.564  0.00  0.00    +0.304 C 
ATOM      3  O3  UNL     1      -1.202   1.423  -0.523  0.00  0.00    -0.253 OA
ATOM      4  N3  UNL     1      -2.923   2.512   0.625  0.00  0.00    -0.297 N 
ATOM      5  H13 UNL     1      -1.319   1.958   2.672  0.00  0.00    +0.156 HD
ATOM      6  H14 UNL     1      -3.193   3.014   1.497  0.00  0.00    +0.150 HD
ENDROOT
BRANCH   1  10
ATOM      7  C6  UNL     1       3.175   0.393   1.897  0.00  0.00    +0.037 A 
ATOM      8  C7  UNL     1       2.762   1.247   0.858  0.00  0.00    +0.025 A 
ATOM      9  C8  UNL     1       1.441   1.701   0.799  0.00  0.00    +0.025 A 
ATOM     10  C9  UNL     1       0.514   1.318   1.783  0.00  0.00    +0.035 A 
ATOM     11  C21 UNL     1       0.935   0.498   2.839  0.00  0.00    +0.025 A 
ATOM     12  C22 UNL     1       2.252   0.036   2.893  0.00  0.00    +0.025 A 
BRANCH   7  15
ATOM     13  C5  UNL     1       5.404  -0.322   0.901  0.00  0.00    +0.405 C 
ATOM     14  O2  UNL     1       4.944  -0.381  -0.270  0.00  0.00    -0.226 OA
ATOM     15  N1  UNL     1       4.536  -0.059   2.009  0.00  0.00    -0.251 N 
ATOM     16  H10 UNL     1       4.906  -0.277   2.962  0.00  0.00    +0.158 HD
BRANCH  13  17
ATOM     17  O1  UNL     1       6.764  -0.553   1.152  0.00  0.00    -0.444 OA
BRANCH  17  19
ATOM     18  C1  UNL     1       7.451  -2.160  -0.566  0.00  0.00    +0.055 C 
ATOM     19  C2  UNL     1       7.773  -0.846   0.173  0.00  0.00    +0.107 C 
ATOM     20  C3  UNL     1       7.913   0.318  -0.825  0.00  0.00    +0.055 C 
ATOM     21  C4  UNL     1       9.101  -1.016   0.929  0.00  0.00    +0.055 C 
ENDBRANCH  17  19
ENDBRANCH  13  17
ENDBRANCH   7  15
ENDBRANCH   1  10
BRANCH   4  22
ATOM     22  C11 UNL     1      -3.973   2.221  -0.348  0.00  0.00    +0.130 C 
BRANCH  22  23
ATOM     23  C12 UNL     1      -4.737   0.950   0.065  0.00  0.00    +0.111 C 
BRANCH  23  24
ATOM     24  N4  UNL     1      -3.839  -0.235  -0.007  0.00  0.00    -0.289 NA
ATOM     25  C17 UNL     1      -3.986  -1.221   1.082  0.00  0.00    +0.113 C 
ATOM     26  C18 UNL     1      -4.926  -2.364   0.689  0.00  0.00    +0.175 C 
ATOM     27  O4  UNL     1      -4.499  -2.972  -0.508  0.00  0.00    -0.377 OA
ATOM     28  C19 UNL     1      -4.583  -2.039  -1.565  0.00  0.00    +0.175 C 
ATOM     29  C20 UNL     1      -3.629  -0.857  -1.330  0.00  0.00    +0.113 C 
ENDBRANCH  23  24
BRANCH  23  30
ATOM     30  C13 UNL     1      -6.028   0.791  -0.707  0.00  0.00    +0.008 A 
ATOM     31  C14 UNL     1      -6.247   1.063  -2.057  0.00  0.00    +0.013 A 
ATOM     32  C15 UNL     1      -7.570   0.845  -2.461  0.00  0.00    +0.008 A 
ATOM     33  C16 UNL     1      -8.404   0.417  -1.438  0.00  0.00    +0.045 A 
ATOM     34  S1  UNL     1      -7.492   0.308  -0.031  0.00  0.00    -0.100 S 
ENDBRANCH  23  30
ENDBRANCH  22  23
ENDBRANCH   4  22
TORSDOF 8
