REMARK  Name = /home/qwerty/github/datacon2025hack/step_04_hit_selection/docking/ligands/lig_46.pdb
REMARK  4 active torsions:
REMARK  status: ('A' for Active; 'I' for Inactive)
REMARK    1  A    between atoms: C1_1  and  C2_2
REMARK    2  A    between atoms: C2_2  and  N1_3
REMARK    3  A    between atoms: C2_2  and  C10_14
REMARK    4  A    between atoms: C3_4  and  C4_6
REMARK                            x       y       z     vdW  Elec       q    Type
REMARK                         _______ _______ _______ _____ _____    ______ ____
ROOT
ATOM      1  N1  UNL     1       0.172  -0.078   1.300  0.00  0.00    -0.305 N 
ATOM      2  C3  UNL     1       1.058   0.701   0.479  0.00  0.00    +0.245 C 
ATOM      3  O1  UNL     1       0.774   1.905   0.225  0.00  0.00    -0.270 OA
ATOM      4  H5  UNL     1       0.513  -0.981   1.699  0.00  0.00    +0.150 HD
ENDROOT
BRANCH   2   5
ATOM      5  C4  UNL     1       2.307   0.119  -0.067  0.00  0.00    +0.040 A 
ATOM      6  C5  UNL     1       3.379   0.958  -0.422  0.00  0.00    +0.016 A 
ATOM      7  C6  UNL     1       4.558   0.418  -0.945  0.00  0.00    +0.042 A 
ATOM      8  C7  UNL     1       4.678  -0.961  -1.127  0.00  0.00    +0.158 A 
ATOM      9  F1  UNL     1       5.823  -1.480  -1.636  0.00  0.00    -0.202 F 
ATOM     10  C8  UNL     1       3.615  -1.804  -0.791  0.00  0.00    +0.159 A 
ATOM     11  F2  UNL     1       3.724  -3.143  -0.980  0.00  0.00    -0.202 F 
ATOM     12  C9  UNL     1       2.434  -1.269  -0.266  0.00  0.00    +0.054 A 
ENDBRANCH   2   5
BRANCH   1  14
ATOM     13  C1  UNL     1      -1.807  -0.506   2.714  0.00  0.00    +0.033 C 
ATOM     14  C2  UNL     1      -1.175   0.391   1.645  0.00  0.00    +0.103 C 
BRANCH  14  15
ATOM     15  C10 UNL     1      -2.055   0.439   0.411  0.00  0.00    +0.008 A 
ATOM     16  C11 UNL     1      -2.823   1.588   0.148  0.00  0.00    +0.011 A 
ATOM     17  C12 UNL     1      -3.649   1.647  -0.978  0.00  0.00    +0.039 A 
ATOM     18  C13 UNL     1      -3.723   0.558  -1.850  0.00  0.00    +0.126 A 
ATOM     19  F3  UNL     1      -4.525   0.618  -2.942  0.00  0.00    -0.205 F 
ATOM     20  C14 UNL     1      -2.974  -0.593  -1.596  0.00  0.00    +0.077 A 
ATOM     21  C15 UNL     1      -2.145  -0.659  -0.471  0.00  0.00    +0.131 A 
ATOM     22  F4  UNL     1      -1.434  -1.793  -0.246  0.00  0.00    -0.205 F 
ENDBRANCH  14  15
ENDBRANCH   1  14
TORSDOF 3
