MODEL 1
REMARK VINA RESULT:    -6.407      0.000      0.000
REMARK INTER + INTRA:          -7.859
REMARK INTER:                  -7.156
REMARK INTRA:                  -0.703
REMARK UNBOUND:                -0.703
REMARK  Name = /home/qwerty/github/datacon2025hack/step_04_hit_selection/docking/ligands/lig_566.pdb
REMARK  3 active torsions:
REMARK  status: ('A' for Active; 'I' for Inactive)
REMARK    1  A    between atoms: C1_1  and  C2_2
REMARK    2  A    between atoms: C3_3  and  C4_4
REMARK    3  A    between atoms: C12_15  and  C13_17
REMARK                            x       y       z     vdW  Elec       q    Type
REMARK                         _______ _______ _______ _____ _____    ______ ____
ROOT
ATOM      1  C1  UNL     1       8.911   6.980  24.579  0.00  0.00    +0.031 C 
ATOM      2  C2  UNL     1       8.930   8.275  23.744  0.00  0.00    +0.107 C 
ATOM      3  C3  UNL     1       8.518   7.981  22.262  0.00  0.00    +0.168 C 
ATOM      4  O1  UNL     1       8.203   9.113  21.452  0.00  0.00    -0.369 OA
ATOM      5  C10 UNL     1       8.274  10.353  22.125  0.00  0.00    +0.179 C 
ATOM      6  C11 UNL     1       7.487  10.330  23.433  0.00  0.00    +0.136 C 
ATOM      7  N1  UNL     1       8.033   9.296  24.312  0.00  0.00    -0.290 N 
ATOM      8  C12 UNL     1       7.910   9.477  25.732  0.00  0.00    +0.247 C 
ATOM      9  O2  UNL     1       7.027   8.827  26.354  0.00  0.00    -0.270 OA
ENDROOT
BRANCH   8  10
ATOM     10  C13 UNL     1       8.792  10.419  26.465  0.00  0.00    +0.041 A 
ATOM     11  C14 UNL     1      10.157  10.573  26.099  0.00  0.00    +0.017 A 
ATOM     12  C15 UNL     1      10.989  11.475  26.786  0.00  0.00    +0.050 A 
ATOM     13  C16 UNL     1      10.432  12.209  27.826  0.00  0.00    +0.166 A 
ATOM     14  C17 UNL     1       9.134  12.068  28.190  0.00  0.00    +0.167 A 
ATOM     15  C18 UNL     1       8.278  11.182  27.542  0.00  0.00    +0.062 A 
ATOM     16  O3  UNL     1       8.857  12.916  29.245  0.00  0.00    -0.453 OA
ATOM     17  C19 UNL     1      10.056  13.636  29.561  0.00  0.00    +0.466 C 
ATOM     18  O4  UNL     1      11.037  13.151  28.635  0.00  0.00    -0.453 OA
ENDBRANCH   8  10
BRANCH   3  19
ATOM     19  C4  UNL     1       9.581   7.169  21.555  0.00  0.00    -0.017 A 
ATOM     20  C5  UNL     1       9.283   5.890  21.047  0.00  0.00    +0.007 A 
ATOM     21  C6  UNL     1      10.274   5.135  20.412  0.00  0.00    +0.015 A 
ATOM     22  C7  UNL     1      11.568   5.644  20.277  0.00  0.00    +0.018 A 
ATOM     23 BR1  UNL     1      12.924   4.610  19.423  0.00  0.00    -0.050 Br
ATOM     24  C8  UNL     1      11.869   6.918  20.767  0.00  0.00    +0.015 A 
ATOM     25  C9  UNL     1      10.882   7.680  21.403  0.00  0.00    +0.007 A 
ENDBRANCH   3  19
TORSDOF 2
ENDMDL
MODEL 2
REMARK VINA RESULT:    -6.195     10.752     12.658
REMARK INTER + INTRA:          -7.623
REMARK INTER:                  -7.124
REMARK INTRA:                  -0.499
REMARK UNBOUND:                -0.703
REMARK  Name = /home/qwerty/github/datacon2025hack/step_04_hit_selection/docking/ligands/lig_566.pdb
REMARK  3 active torsions:
REMARK  status: ('A' for Active; 'I' for Inactive)
REMARK    1  A    between atoms: C1_1  and  C2_2
REMARK    2  A    between atoms: C3_3  and  C4_4
REMARK    3  A    between atoms: C12_15  and  C13_17
REMARK                            x       y       z     vdW  Elec       q    Type
REMARK                         _______ _______ _______ _____ _____    ______ ____
ROOT
ATOM      1  C1  UNL     1      18.334   6.547  21.499  0.00  0.00    +0.031 C 
ATOM      2  C2  UNL     1      19.697   6.730  20.804  0.00  0.00    +0.107 C 
ATOM      3  C3  UNL     1      20.495   5.383  20.792  0.00  0.00    +0.168 C 
ATOM      4  O1  UNL     1      21.630   5.323  19.929  0.00  0.00    -0.369 OA
ATOM      5  C10 UNL     1      21.852   6.494  19.169  0.00  0.00    +0.179 C 
ATOM      6  C11 UNL     1      20.586   6.943  18.444  0.00  0.00    +0.136 C 
ATOM      7  N1  UNL     1      19.535   7.220  19.423  0.00  0.00    -0.290 N 
ATOM      8  C12 UNL     1      18.532   8.192  19.088  0.00  0.00    +0.247 C 
ATOM      9  O2  UNL     1      17.392   7.792  18.730  0.00  0.00    -0.270 OA
ENDROOT
BRANCH   8  10
ATOM     10  C13 UNL     1      18.824   9.647  19.144  0.00  0.00    +0.041 A 
ATOM     11  C14 UNL     1      17.829  10.573  19.562  0.00  0.00    +0.017 A 
ATOM     12  C15 UNL     1      18.110  11.949  19.627  0.00  0.00    +0.050 A 
ATOM     13  C16 UNL     1      19.387  12.369  19.275  0.00  0.00    +0.166 A 
ATOM     14  C17 UNL     1      20.343  11.497  18.869  0.00  0.00    +0.167 A 
ATOM     15  C18 UNL     1      20.105  10.129  18.783  0.00  0.00    +0.062 A 
ATOM     16  O3  UNL     1      21.506  12.189  18.586  0.00  0.00    -0.453 OA
ATOM     17  C19 UNL     1      21.265  13.581  18.832  0.00  0.00    +0.466 C 
ATOM     18  O4  UNL     1      19.899  13.652  19.266  0.00  0.00    -0.453 OA
ENDBRANCH   8  10
BRANCH   3  19
ATOM     19  C4  UNL     1      20.936   5.002  22.188  0.00  0.00    -0.017 A 
ATOM     20  C5  UNL     1      20.438   3.838  22.803  0.00  0.00    +0.007 A 
ATOM     21  C6  UNL     1      20.833   3.501  24.100  0.00  0.00    +0.015 A 
ATOM     22  C7  UNL     1      21.727   4.318  24.798  0.00  0.00    +0.018 A 
ATOM     23 BR1  UNL     1      22.257   3.867  26.574  0.00  0.00    -0.050 Br
ATOM     24  C8  UNL     1      22.237   5.469  24.191  0.00  0.00    +0.015 A 
ATOM     25  C9  UNL     1      21.846   5.812  22.891  0.00  0.00    +0.007 A 
ENDBRANCH   3  19
TORSDOF 2
ENDMDL
MODEL 3
REMARK VINA RESULT:    -6.169      7.027     12.080
REMARK INTER + INTRA:          -7.594
REMARK INTER:                  -6.888
REMARK INTRA:                  -0.705
REMARK UNBOUND:                -0.703
REMARK  Name = /home/qwerty/github/datacon2025hack/step_04_hit_selection/docking/ligands/lig_566.pdb
REMARK  3 active torsions:
REMARK  status: ('A' for Active; 'I' for Inactive)
REMARK    1  A    between atoms: C1_1  and  C2_2
REMARK    2  A    between atoms: C3_3  and  C4_4
REMARK    3  A    between atoms: C12_15  and  C13_17
REMARK                            x       y       z     vdW  Elec       q    Type
REMARK                         _______ _______ _______ _____ _____    ______ ____
ROOT
ATOM      1  C1  UNL     1      14.393  13.386  32.770  0.00  0.00    +0.031 C 
ATOM      2  C2  UNL     1      13.080  13.288  33.571  0.00  0.00    +0.107 C 
ATOM      3  C3  UNL     1      13.290  13.793  35.038  0.00  0.00    +0.168 C 
ATOM      4  O1  UNL     1      12.110  14.040  35.802  0.00  0.00    -0.369 OA
ATOM      5  C10 UNL     1      10.902  13.827  35.100  0.00  0.00    +0.179 C 
ATOM      6  C11 UNL     1      10.896  14.552  33.757  0.00  0.00    +0.136 C 
ATOM      7  N1  UNL     1      12.001  14.063  32.933  0.00  0.00    -0.290 N 
ATOM      8  C12 UNL     1      11.854  14.104  31.504  0.00  0.00    +0.247 C 
ATOM      9  O2  UNL     1      12.442  15.013  30.858  0.00  0.00    -0.270 OA
ENDROOT
BRANCH   8  10
ATOM     10  C13 UNL     1      11.017  13.108  30.789  0.00  0.00    +0.041 A 
ATOM     11  C14 UNL     1      10.966  11.755  31.224  0.00  0.00    +0.017 A 
ATOM     12  C15 UNL     1      10.163  10.815  30.554  0.00  0.00    +0.050 A 
ATOM     13  C16 UNL     1       9.423  11.252  29.461  0.00  0.00    +0.166 A 
ATOM     14  C17 UNL     1       9.468  12.538  29.033  0.00  0.00    +0.167 A 
ATOM     15  C18 UNL     1      10.255  13.499  29.662  0.00  0.00    +0.062 A 
ATOM     16  O3  UNL     1       8.639  12.687  27.938  0.00  0.00    -0.453 OA
ATOM     17  C19 UNL     1       8.035  11.416  27.663  0.00  0.00    +0.466 C 
ATOM     18  O4  UNL     1       8.566  10.528  28.657  0.00  0.00    -0.453 OA
ENDBRANCH   8  10
BRANCH   3  19
ATOM     19  C4  UNL     1      14.171  12.840  35.817  0.00  0.00    -0.017 A 
ATOM     20  C5  UNL     1      15.345  13.303  36.443  0.00  0.00    +0.007 A 
ATOM     21  C6  UNL     1      16.166  12.415  37.145  0.00  0.00    +0.015 A 
ATOM     22  C7  UNL     1      15.828  11.062  37.231  0.00  0.00    +0.018 A 
ATOM     23 BR1  UNL     1      16.955   9.848  38.177  0.00  0.00    -0.050 Br
ATOM     24  C8  UNL     1      14.658  10.597  36.623  0.00  0.00    +0.015 A 
ATOM     25  C9  UNL     1      13.831  11.480  35.920  0.00  0.00    +0.007 A 
ENDBRANCH   3  19
TORSDOF 2
ENDMDL
MODEL 4
REMARK VINA RESULT:    -6.086     10.818     12.727
REMARK INTER + INTRA:          -7.501
REMARK INTER:                  -6.798
REMARK INTRA:                  -0.702
REMARK UNBOUND:                -0.703
REMARK  Name = /home/qwerty/github/datacon2025hack/step_04_hit_selection/docking/ligands/lig_566.pdb
REMARK  3 active torsions:
REMARK  status: ('A' for Active; 'I' for Inactive)
REMARK    1  A    between atoms: C1_1  and  C2_2
REMARK    2  A    between atoms: C3_3  and  C4_4
REMARK    3  A    between atoms: C12_15  and  C13_17
REMARK                            x       y       z     vdW  Elec       q    Type
REMARK                         _______ _______ _______ _____ _____    ______ ____
ROOT
ATOM      1  C1  UNL     1      16.878   1.780  23.531  0.00  0.00    +0.031 C 
ATOM      2  C2  UNL     1      16.658   0.465  24.304  0.00  0.00    +0.107 C 
ATOM      3  C3  UNL     1      15.743  -0.508  23.487  0.00  0.00    +0.168 C 
ATOM      4  O1  UNL     1      15.696  -1.863  23.933  0.00  0.00    -0.369 OA
ATOM      5  C10 UNL     1      16.525  -2.144  25.042  0.00  0.00    +0.179 C 
ATOM      6  C11 UNL     1      17.951  -1.648  24.819  0.00  0.00    +0.136 C 
ATOM      7  N1  UNL     1      17.937  -0.200  24.609  0.00  0.00    -0.290 N 
ATOM      8  C12 UNL     1      19.101   0.553  24.986  0.00  0.00    +0.247 C 
ATOM      9  O2  UNL     1      19.894   0.940  24.085  0.00  0.00    -0.270 OA
ENDROOT
BRANCH   8  10
ATOM     10  C13 UNL     1      19.384   0.867  26.409  0.00  0.00    +0.041 A 
ATOM     11  C14 UNL     1      18.326   1.137  27.319  0.00  0.00    +0.017 A 
ATOM     12  C15 UNL     1      18.594   1.422  28.670  0.00  0.00    +0.050 A 
ATOM     13  C16 UNL     1      19.922   1.427  29.081  0.00  0.00    +0.166 A 
ATOM     14  C17 UNL     1      20.941   1.179  28.222  0.00  0.00    +0.167 A 
ATOM     15  C18 UNL     1      20.720   0.899  26.876  0.00  0.00    +0.062 A 
ATOM     16  O3  UNL     1      22.142   1.250  28.901  0.00  0.00    -0.453 OA
ATOM     17  C19 UNL     1      21.860   1.560  30.272  0.00  0.00    +0.466 C 
ATOM     18  O4  UNL     1      20.431   1.669  30.342  0.00  0.00    -0.453 OA
ENDBRANCH   8  10
BRANCH   3  19
ATOM     19  C4  UNL     1      14.326   0.018  23.410  0.00  0.00    -0.017 A 
ATOM     20  C5  UNL     1      13.743   0.321  22.165  0.00  0.00    +0.007 A 
ATOM     21  C6  UNL     1      12.440   0.825  22.100  0.00  0.00    +0.015 A 
ATOM     22  C7  UNL     1      11.707   1.033  23.271  0.00  0.00    +0.018 A 
ATOM     23 BR1  UNL     1       9.936   1.734  23.185  0.00  0.00    -0.050 Br
ATOM     24  C8  UNL     1      12.274   0.724  24.511  0.00  0.00    +0.015 A 
ATOM     25  C9  UNL     1      13.577   0.217  24.584  0.00  0.00    +0.007 A 
ENDBRANCH   3  19
TORSDOF 2
ENDMDL
MODEL 5
REMARK VINA RESULT:    -6.077     13.489     15.556
REMARK INTER + INTRA:          -7.490
REMARK INTER:                  -6.963
REMARK INTRA:                  -0.527
REMARK UNBOUND:                -0.703
REMARK  Name = /home/qwerty/github/datacon2025hack/step_04_hit_selection/docking/ligands/lig_566.pdb
REMARK  3 active torsions:
REMARK  status: ('A' for Active; 'I' for Inactive)
REMARK    1  A    between atoms: C1_1  and  C2_2
REMARK    2  A    between atoms: C3_3  and  C4_4
REMARK    3  A    between atoms: C12_15  and  C13_17
REMARK                            x       y       z     vdW  Elec       q    Type
REMARK                         _______ _______ _______ _____ _____    ______ ____
ROOT
ATOM      1  C1  UNL     1      18.611   1.390  28.629  0.00  0.00    +0.031 C 
ATOM      2  C2  UNL     1      20.106   1.445  28.999  0.00  0.00    +0.107 C 
ATOM      3  C3  UNL     1      20.383   0.613  30.296  0.00  0.00    +0.168 C 
ATOM      4  O1  UNL     1      21.751   0.327  30.589  0.00  0.00    -0.369 OA
ATOM      5  C10 UNL     1      22.669   0.812  29.631  0.00  0.00    +0.179 C 
ATOM      6  C11 UNL     1      22.274   0.402  28.214  0.00  0.00    +0.136 C 
ATOM      7  N1  UNL     1      20.951   0.944  27.901  0.00  0.00    -0.290 N 
ATOM      8  C12 UNL     1      20.642   1.232  26.528  0.00  0.00    +0.247 C 
ATOM      9  O2  UNL     1      19.907   0.431  25.889  0.00  0.00    -0.270 OA
ENDROOT
BRANCH   8  10
ATOM     10  C13 UNL     1      21.181   2.441  25.857  0.00  0.00    +0.041 A 
ATOM     11  C14 UNL     1      22.302   3.132  26.393  0.00  0.00    +0.017 A 
ATOM     12  C15 UNL     1      22.820   4.270  25.749  0.00  0.00    +0.050 A 
ATOM     13  C16 UNL     1      22.204   4.690  24.576  0.00  0.00    +0.166 A 
ATOM     14  C17 UNL     1      21.130   4.044  24.058  0.00  0.00    +0.167 A 
ATOM     15  C18 UNL     1      20.582   2.919  24.666  0.00  0.00    +0.062 A 
ATOM     16  O3  UNL     1      20.729   4.676  22.897  0.00  0.00    -0.453 OA
ATOM     17  C19 UNL     1      21.607   5.788  22.671  0.00  0.00    +0.466 C 
ATOM     18  O4  UNL     1      22.531   5.762  23.769  0.00  0.00    -0.453 OA
ENDBRANCH   8  10
BRANCH   3  19
ATOM     19  C4  UNL     1      19.765   1.276  31.508  0.00  0.00    -0.017 A 
ATOM     20  C5  UNL     1      20.057   2.618  31.815  0.00  0.00    +0.007 A 
ATOM     21  C6  UNL     1      19.498   3.221  32.946  0.00  0.00    +0.015 A 
ATOM     22  C7  UNL     1      18.645   2.494  33.781  0.00  0.00    +0.018 A 
ATOM     23 BR1  UNL     1      17.894   3.311  35.332  0.00  0.00    -0.050 Br
ATOM     24  C8  UNL     1      18.340   1.165  33.477  0.00  0.00    +0.015 A 
ATOM     25  C9  UNL     1      18.894   0.555  32.346  0.00  0.00    +0.007 A 
ENDBRANCH   3  19
TORSDOF 2
ENDMDL
MODEL 6
REMARK VINA RESULT:    -6.035     14.480     17.126
REMARK INTER + INTRA:          -7.444
REMARK INTER:                  -6.745
REMARK INTRA:                  -0.699
REMARK UNBOUND:                -0.703
REMARK  Name = /home/qwerty/github/datacon2025hack/step_04_hit_selection/docking/ligands/lig_566.pdb
REMARK  3 active torsions:
REMARK  status: ('A' for Active; 'I' for Inactive)
REMARK    1  A    between atoms: C1_1  and  C2_2
REMARK    2  A    between atoms: C3_3  and  C4_4
REMARK    3  A    between atoms: C12_15  and  C13_17
REMARK                            x       y       z     vdW  Elec       q    Type
REMARK                         _______ _______ _______ _____ _____    ______ ____
ROOT
ATOM      1  C1  UNL     1      20.511   5.761  34.336  0.00  0.00    +0.031 C 
ATOM      2  C2  UNL     1      21.770   6.182  33.554  0.00  0.00    +0.107 C 
ATOM      3  C3  UNL     1      22.583   7.255  34.355  0.00  0.00    +0.168 C 
ATOM      4  O1  UNL     1      23.911   7.517  33.902  0.00  0.00    -0.369 OA
ATOM      5  C10 UNL     1      24.321   6.729  32.803  0.00  0.00    +0.179 C 
ATOM      6  C11 UNL     1      24.065   5.245  33.046  0.00  0.00    +0.136 C 
ATOM      7  N1  UNL     1      22.635   5.025  33.263  0.00  0.00    -0.290 N 
ATOM      8  C12 UNL     1      22.080   3.749  32.904  0.00  0.00    +0.247 C 
ATOM      9  O2  UNL     1      21.831   2.916  33.816  0.00  0.00    -0.270 OA
ENDROOT
BRANCH   8  10
ATOM     10  C13 UNL     1      21.813   3.400  31.486  0.00  0.00    +0.041 A 
ATOM     11  C14 UNL     1      21.468   4.405  30.541  0.00  0.00    +0.017 A 
ATOM     12  C15 UNL     1      21.228   4.074  29.196  0.00  0.00    +0.050 A 
ATOM     13  C16 UNL     1      21.342   2.740  28.824  0.00  0.00    +0.166 A 
ATOM     14  C17 UNL     1      21.664   1.771  29.716  0.00  0.00    +0.167 A 
ATOM     15  C18 UNL     1      21.903   2.053  31.058  0.00  0.00    +0.062 A 
ATOM     16  O3  UNL     1      21.706   0.549  29.073  0.00  0.00    -0.453 OA
ATOM     17  C19 UNL     1      21.393   0.765  27.690  0.00  0.00    +0.466 C 
ATOM     18  O4  UNL     1      21.164   2.176  27.576  0.00  0.00    -0.453 OA
ENDBRANCH   8  10
BRANCH   3  19
ATOM     19  C4  UNL     1      21.833   8.568  34.417  0.00  0.00    -0.017 A 
ATOM     20  C5  UNL     1      21.484   9.134  35.658  0.00  0.00    +0.007 A 
ATOM     21  C6  UNL     1      20.774  10.337  35.709  0.00  0.00    +0.015 A 
ATOM     22  C7  UNL     1      20.404  10.987  34.528  0.00  0.00    +0.018 A 
ATOM     23 BR1  UNL     1      19.424  12.622  34.597  0.00  0.00    -0.050 Br
ATOM     24  C8  UNL     1      20.757  10.439  33.292  0.00  0.00    +0.015 A 
ATOM     25  C9  UNL     1      21.469   9.235  33.233  0.00  0.00    +0.007 A 
ENDBRANCH   3  19
TORSDOF 2
ENDMDL
MODEL 7
REMARK VINA RESULT:    -5.790      9.141     12.377
REMARK INTER + INTRA:          -7.170
REMARK INTER:                  -6.496
REMARK INTRA:                  -0.674
REMARK UNBOUND:                -0.703
REMARK  Name = /home/qwerty/github/datacon2025hack/step_04_hit_selection/docking/ligands/lig_566.pdb
REMARK  3 active torsions:
REMARK  status: ('A' for Active; 'I' for Inactive)
REMARK    1  A    between atoms: C1_1  and  C2_2
REMARK    2  A    between atoms: C3_3  and  C4_4
REMARK    3  A    between atoms: C12_15  and  C13_17
REMARK                            x       y       z     vdW  Elec       q    Type
REMARK                         _______ _______ _______ _____ _____    ______ ____
ROOT
ATOM      1  C1  UNL     1      12.758  10.714  33.159  0.00  0.00    +0.031 C 
ATOM      2  C2  UNL     1      12.936  12.031  33.939  0.00  0.00    +0.107 C 
ATOM      3  C3  UNL     1      11.765  13.021  33.623  0.00  0.00    +0.168 C 
ATOM      4  O1  UNL     1      11.634  14.149  34.489  0.00  0.00    -0.369 OA
ATOM      5  C10 UNL     1      12.571  14.189  35.545  0.00  0.00    +0.179 C 
ATOM      6  C11 UNL     1      12.620  12.867  36.306  0.00  0.00    +0.136 C 
ATOM      7  N1  UNL     1      13.001  11.791  35.392  0.00  0.00    -0.290 N 
ATOM      8  C12 UNL     1      13.692  10.653  35.931  0.00  0.00    +0.247 C 
ATOM      9  O2  UNL     1      13.051   9.583  36.116  0.00  0.00    -0.270 OA
ENDROOT
BRANCH   8  10
ATOM     10  C13 UNL     1      15.132  10.725  36.283  0.00  0.00    +0.041 A 
ATOM     11  C14 UNL     1      15.728   9.737  37.115  0.00  0.00    +0.017 A 
ATOM     12  C15 UNL     1      17.096   9.799  37.437  0.00  0.00    +0.050 A 
ATOM     13  C16 UNL     1      17.840  10.849  36.913  0.00  0.00    +0.166 A 
ATOM     14  C17 UNL     1      17.283  11.800  36.124  0.00  0.00    +0.167 A 
ATOM     15  C18 UNL     1      15.933  11.782  35.786  0.00  0.00    +0.062 A 
ATOM     16  O3  UNL     1      18.251  12.713  35.751  0.00  0.00    -0.453 OA
ATOM     17  C19 UNL     1      19.494  12.308  36.341  0.00  0.00    +0.466 C 
ATOM     18  O4  UNL     1      19.185  11.117  37.078  0.00  0.00    -0.453 OA
ENDBRANCH   8  10
BRANCH   3  19
ATOM     19  C4  UNL     1      11.848  13.521  32.198  0.00  0.00    -0.017 A 
ATOM     20  C5  UNL     1      10.816  13.241  31.281  0.00  0.00    +0.007 A 
ATOM     21  C6  UNL     1      10.906  13.688  29.960  0.00  0.00    +0.015 A 
ATOM     22  C7  UNL     1      12.022  14.416  29.538  0.00  0.00    +0.018 A 
ATOM     23 BR1  UNL     1      12.153  15.015  27.732  0.00  0.00    -0.050 Br
ATOM     24  C8  UNL     1      13.045  14.710  30.444  0.00  0.00    +0.015 A 
ATOM     25  C9  UNL     1      12.961  14.267  31.769  0.00  0.00    +0.007 A 
ENDBRANCH   3  19
TORSDOF 2
ENDMDL
MODEL 8
REMARK VINA RESULT:    -5.719     14.602     15.700
REMARK INTER + INTRA:          -7.091
REMARK INTER:                  -6.371
REMARK INTRA:                  -0.720
REMARK UNBOUND:                -0.703
REMARK  Name = /home/qwerty/github/datacon2025hack/step_04_hit_selection/docking/ligands/lig_566.pdb
REMARK  3 active torsions:
REMARK  status: ('A' for Active; 'I' for Inactive)
REMARK    1  A    between atoms: C1_1  and  C2_2
REMARK    2  A    between atoms: C3_3  and  C4_4
REMARK    3  A    between atoms: C12_15  and  C13_17
REMARK                            x       y       z     vdW  Elec       q    Type
REMARK                         _______ _______ _______ _____ _____    ______ ____
ROOT
ATOM      1  C1  UNL     1      20.937   7.217  32.331  0.00  0.00    +0.031 C 
ATOM      2  C2  UNL     1      21.389   6.895  33.768  0.00  0.00    +0.107 C 
ATOM      3  C3  UNL     1      22.456   5.749  33.766  0.00  0.00    +0.168 C 
ATOM      4  O1  UNL     1      23.180   5.551  34.980  0.00  0.00    -0.369 OA
ATOM      5  C10 UNL     1      22.851   6.456  36.014  0.00  0.00    +0.179 C 
ATOM      6  C11 UNL     1      22.898   7.904  35.531  0.00  0.00    +0.136 C 
ATOM      7  N1  UNL     1      21.944   8.085  34.437  0.00  0.00    -0.290 N 
ATOM      8  C12 UNL     1      21.368   9.387  34.246  0.00  0.00    +0.247 C 
ATOM      9  O2  UNL     1      21.804  10.114  33.313  0.00  0.00    -0.270 OA
ENDROOT
BRANCH   8  10
ATOM     10  C13 UNL     1      20.287   9.886  35.133  0.00  0.00    +0.041 A 
ATOM     11  C14 UNL     1      20.163  11.274  35.418  0.00  0.00    +0.017 A 
ATOM     12  C15 UNL     1      19.131  11.747  36.248  0.00  0.00    +0.050 A 
ATOM     13  C16 UNL     1      18.241  10.818  36.773  0.00  0.00    +0.166 A 
ATOM     14  C17 UNL     1      18.352   9.492  36.513  0.00  0.00    +0.167 A 
ATOM     15  C18 UNL     1      19.362   8.980  35.703  0.00  0.00    +0.062 A 
ATOM     16  O3  UNL     1      17.339   8.810  37.160  0.00  0.00    -0.453 OA
ATOM     17  C19 UNL     1      16.541   9.769  37.868  0.00  0.00    +0.466 C 
ATOM     18  O4  UNL     1      17.154  11.037  37.597  0.00  0.00    -0.453 OA
ENDBRANCH   8  10
BRANCH   3  19
ATOM     19  C4  UNL     1      21.834   4.431  33.360  0.00  0.00    -0.017 A 
ATOM     20  C5  UNL     1      20.713   3.928  34.048  0.00  0.00    +0.007 A 
ATOM     21  C6  UNL     1      20.154   2.700  33.682  0.00  0.00    +0.015 A 
ATOM     22  C7  UNL     1      20.704   1.962  32.630  0.00  0.00    +0.018 A 
ATOM     23 BR1  UNL     1      19.951   0.280  32.139  0.00  0.00    -0.050 Br
ATOM     24  C8  UNL     1      21.809   2.459  31.934  0.00  0.00    +0.015 A 
ATOM     25  C9  UNL     1      22.374   3.689  32.294  0.00  0.00    +0.007 A 
ENDBRANCH   3  19
TORSDOF 2
ENDMDL
MODEL 9
REMARK VINA RESULT:    -5.703     12.538     13.904
REMARK INTER + INTRA:          -7.072
REMARK INTER:                  -6.341
REMARK INTRA:                  -0.732
REMARK UNBOUND:                -0.703
REMARK  Name = /home/qwerty/github/datacon2025hack/step_04_hit_selection/docking/ligands/lig_566.pdb
REMARK  3 active torsions:
REMARK  status: ('A' for Active; 'I' for Inactive)
REMARK    1  A    between atoms: C1_1  and  C2_2
REMARK    2  A    between atoms: C3_3  and  C4_4
REMARK    3  A    between atoms: C12_15  and  C13_17
REMARK                            x       y       z     vdW  Elec       q    Type
REMARK                         _______ _______ _______ _____ _____    ______ ____
ROOT
ATOM      1  C1  UNL     1      22.588   3.879  26.024  0.00  0.00    +0.031 C 
ATOM      2  C2  UNL     1      21.308   3.034  26.173  0.00  0.00    +0.107 C 
ATOM      3  C3  UNL     1      20.820   2.522  24.775  0.00  0.00    +0.168 C 
ATOM      4  O1  UNL     1      19.831   1.492  24.784  0.00  0.00    -0.369 OA
ATOM      5  C10 UNL     1      19.457   1.050  26.072  0.00  0.00    +0.179 C 
ATOM      6  C11 UNL     1      20.675   0.702  26.924  0.00  0.00    +0.136 C 
ATOM      7  N1  UNL     1      21.522   1.886  27.071  0.00  0.00    -0.290 N 
ATOM      8  C12 UNL     1      22.328   2.002  28.255  0.00  0.00    +0.247 C 
ATOM      9  O2  UNL     1      23.561   1.752  28.178  0.00  0.00    -0.270 OA
ENDROOT
BRANCH   8  10
ATOM     10  C13 UNL     1      21.730   2.397  29.555  0.00  0.00    +0.041 A 
ATOM     11  C14 UNL     1      21.415   3.757  29.828  0.00  0.00    +0.017 A 
ATOM     12  C15 UNL     1      20.837   4.128  31.055  0.00  0.00    +0.050 A 
ATOM     13  C16 UNL     1      20.583   3.125  31.984  0.00  0.00    +0.166 A 
ATOM     14  C17 UNL     1      20.884   1.827  31.738  0.00  0.00    +0.167 A 
ATOM     15  C18 UNL     1      21.463   1.416  30.541  0.00  0.00    +0.062 A 
ATOM     16  O3  UNL     1      20.524   1.057  32.828  0.00  0.00    -0.453 OA
ATOM     17  C19 UNL     1      19.960   1.927  33.819  0.00  0.00    +0.466 C 
ATOM     18  O4  UNL     1      20.021   3.239  33.240  0.00  0.00    -0.453 OA
ENDBRANCH   8  10
BRANCH   3  19
ATOM     19  C4  UNL     1      20.310   3.666  23.927  0.00  0.00    -0.017 A 
ATOM     20  C5  UNL     1      19.446   4.633  24.477  0.00  0.00    +0.007 A 
ATOM     21  C6  UNL     1      18.962   5.678  23.684  0.00  0.00    +0.015 A 
ATOM     22  C7  UNL     1      19.331   5.771  22.340  0.00  0.00    +0.018 A 
ATOM     23 BR1  UNL     1      18.660   7.188  21.254  0.00  0.00    -0.050 Br
ATOM     24  C8  UNL     1      20.198   4.823  21.789  0.00  0.00    +0.015 A 
ATOM     25  C9  UNL     1      20.688   3.775  22.577  0.00  0.00    +0.007 A 
ENDBRANCH   3  19
TORSDOF 2
ENDMDL
