MODEL 1
REMARK VINA RESULT:    -7.596      0.000      0.000
REMARK INTER + INTRA:         -10.687
REMARK INTER:                  -9.816
REMARK INTRA:                  -0.871
REMARK UNBOUND:                -0.871
REMARK  Name = /home/qwerty/github/datacon2025hack/step_04_hit_selection/docking/ligands/lig_14.pdb
REMARK  5 active torsions:
REMARK  status: ('A' for Active; 'I' for Inactive)
REMARK    1  A    between atoms: C1_2  and  C2_3
REMARK    2  A    between atoms: C2_3  and  C3_4
REMARK    3  A    between atoms: C6_7  and  N1_8
REMARK    4  A    between atoms: C7_9  and  C8_11
REMARK    5  A    between atoms: N2_22  and  C18_23
REMARK                            x       y       z     vdW  Elec       q    Type
REMARK                         _______ _______ _______ _____ _____    ______ ____
ROOT
ATOM      1  C3  UNL     1      18.439  15.853  30.495  0.00  0.00    -0.039 A 
ATOM      2  C4  UNL     1      17.852  14.626  30.840  0.00  0.00    +0.006 A 
ATOM      3  C5  UNL     1      16.572  14.302  30.379  0.00  0.00    +0.023 A 
ATOM      4  C6  UNL     1      15.863  15.192  29.560  0.00  0.00    +0.034 A 
ATOM      5  C16 UNL     1      16.440  16.435  29.242  0.00  0.00    +0.023 A 
ATOM      6  C17 UNL     1      17.717  16.762  29.706  0.00  0.00    +0.006 A 
ENDROOT
BRANCH   4   7
ATOM      7  N1  UNL     1      14.540  14.844  29.115  0.00  0.00    -0.279 N 
ATOM      8  C7  UNL     1      13.360  14.988  29.925  0.00  0.00    +0.284 C 
ATOM      9  O2  UNL     1      13.379  15.719  30.951  0.00  0.00    -0.266 OA
ATOM     10  H5  UNL     1      14.426  14.546  28.120  0.00  0.00    +0.155 HD
BRANCH   8  11
ATOM     11  C8  UNL     1      12.104  14.310  29.564  0.00  0.00    +0.191 A 
ATOM     12  C9  UNL     1      11.504  13.257  30.256  0.00  0.00    +0.063 A 
ATOM     13  C10 UNL     1      10.358  12.991  29.542  0.00  0.00    +0.021 A 
ATOM     14  C11 UNL     1       9.350  12.050  29.748  0.00  0.00    +0.011 A 
ATOM     15  C12 UNL     1       8.282  12.024  28.833  0.00  0.00    +0.001 A 
ATOM     16  C13 UNL     1       8.250  12.927  27.745  0.00  0.00    +0.004 A 
ATOM     17  C14 UNL     1       9.284  13.866  27.567  0.00  0.00    +0.047 A 
ATOM     18  C15 UNL     1      10.326  13.868  28.491  0.00  0.00    +0.136 A 
ATOM     19  O3  UNL     1      11.375  14.652  28.516  0.00  0.00    -0.450 OA
ENDBRANCH   8  11
ENDBRANCH   4   7
BRANCH   1  20
ATOM     20  C2  UNL     1      19.795  16.222  31.028  0.00  0.00    +0.131 C 
BRANCH  20  22
ATOM     21  O1  UNL     1      21.707  17.107  29.913  0.00  0.00    -0.275 OA
ATOM     22  C1  UNL     1      20.798  16.229  29.916  0.00  0.00    +0.222 C 
ATOM     23  N2  UNL     1      20.770  15.195  28.915  0.00  0.00    -0.284 N 
ATOM     24  H13 UNL     1      20.094  14.409  29.044  0.00  0.00    +0.155 HD
BRANCH  23  25
ATOM     25  C18 UNL     1      21.676  15.140  27.798  0.00  0.00    +0.051 A 
ATOM     26  C19 UNL     1      21.393  15.849  26.613  0.00  0.00    +0.073 A 
ATOM     27  C20 UNL     1      22.254  15.760  25.517  0.00  0.00    +0.164 A 
ATOM     28  C21 UNL     1      23.413  14.978  25.595  0.00  0.00    +0.163 A 
ATOM     29  C22 UNL     1      23.691  14.251  26.756  0.00  0.00    +0.066 A 
ATOM     30  C23 UNL     1      22.828  14.326  27.856  0.00  0.00    +0.043 A 
ATOM     31 BR1  UNL     1      23.282  13.337  29.437  0.00  0.00    -0.048 Br
ATOM     32  O4  UNL     1      24.278  14.931  24.498  0.00  0.00    -0.485 OA
ATOM     33  C24 UNL     1      24.146  15.849  23.409  0.00  0.00    +0.270 C 
ATOM     34  C25 UNL     1      22.663  16.122  23.116  0.00  0.00    +0.270 C 
ATOM     35  O5  UNL     1      21.969  16.439  24.326  0.00  0.00    -0.485 OA
ENDBRANCH  23  25
ENDBRANCH  20  22
ENDBRANCH   1  20
TORSDOF 5
ENDMDL
MODEL 2
REMARK VINA RESULT:    -7.502      9.767     11.363
REMARK INTER + INTRA:         -10.567
REMARK INTER:                  -9.469
REMARK INTRA:                  -1.097
REMARK UNBOUND:                -0.871
REMARK  Name = /home/qwerty/github/datacon2025hack/step_04_hit_selection/docking/ligands/lig_14.pdb
REMARK  5 active torsions:
REMARK  status: ('A' for Active; 'I' for Inactive)
REMARK    1  A    between atoms: C1_2  and  C2_3
REMARK    2  A    between atoms: C2_3  and  C3_4
REMARK    3  A    between atoms: C6_7  and  N1_8
REMARK    4  A    between atoms: C7_9  and  C8_11
REMARK    5  A    between atoms: N2_22  and  C18_23
REMARK                            x       y       z     vdW  Elec       q    Type
REMARK                         _______ _______ _______ _____ _____    ______ ____
ROOT
ATOM      1  C3  UNL     1      22.620   7.293  35.976  0.00  0.00    -0.039 A 
ATOM      2  C4  UNL     1      22.440   8.424  35.165  0.00  0.00    +0.006 A 
ATOM      3  C5  UNL     1      21.431   9.348  35.457  0.00  0.00    +0.023 A 
ATOM      4  C6  UNL     1      20.592   9.162  36.566  0.00  0.00    +0.034 A 
ATOM      5  C16 UNL     1      20.754   8.011  37.358  0.00  0.00    +0.023 A 
ATOM      6  C17 UNL     1      21.759   7.085  37.066  0.00  0.00    +0.006 A 
ENDROOT
BRANCH   4   7
ATOM      7  N1  UNL     1      19.550  10.115  36.832  0.00  0.00    -0.279 N 
ATOM      8  C7  UNL     1      18.243  10.059  36.235  0.00  0.00    +0.284 C 
ATOM      9  O2  UNL     1      17.837   8.997  35.691  0.00  0.00    -0.266 OA
ATOM     10  H5  UNL     1      19.732  10.841  37.562  0.00  0.00    +0.155 HD
BRANCH   8  11
ATOM     11  C8  UNL     1      17.343  11.224  36.266  0.00  0.00    +0.191 A 
ATOM     12  C9  UNL     1      17.629  12.504  35.790  0.00  0.00    +0.063 A 
ATOM     13  C10 UNL     1      16.479  13.221  36.027  0.00  0.00    +0.021 A 
ATOM     14  C11 UNL     1      16.160  14.553  35.764  0.00  0.00    +0.011 A 
ATOM     15  C12 UNL     1      14.876  15.002  36.124  0.00  0.00    +0.001 A 
ATOM     16  C13 UNL     1      13.955  14.120  36.735  0.00  0.00    +0.004 A 
ATOM     17  C14 UNL     1      14.310  12.780  36.986  0.00  0.00    +0.047 A 
ATOM     18  C15 UNL     1      15.586  12.365  36.615  0.00  0.00    +0.136 A 
ATOM     19  O3  UNL     1      16.114  11.174  36.752  0.00  0.00    -0.450 OA
ENDBRANCH   8  11
ENDBRANCH   4   7
BRANCH   1  20
ATOM     20  C2  UNL     1      23.673   6.276  35.637  0.00  0.00    +0.131 C 
BRANCH  20  22
ATOM     21  O1  UNL     1      24.348   5.964  33.371  0.00  0.00    -0.275 OA
ATOM     22  C1  UNL     1      23.459   5.762  34.246  0.00  0.00    +0.222 C 
ATOM     23  N2  UNL     1      22.292   4.976  33.941  0.00  0.00    -0.284 N 
ATOM     24  H13 UNL     1      21.663   4.710  34.732  0.00  0.00    +0.155 HD
BRANCH  23  25
ATOM     25  C18 UNL     1      21.993   4.467  32.629  0.00  0.00    +0.051 A 
ATOM     26  C19 UNL     1      22.450   3.193  32.234  0.00  0.00    +0.073 A 
ATOM     27  C20 UNL     1      22.192   2.721  30.946  0.00  0.00    +0.164 A 
ATOM     28  C21 UNL     1      21.463   3.505  30.043  0.00  0.00    +0.163 A 
ATOM     29  C22 UNL     1      21.027   4.779  30.414  0.00  0.00    +0.066 A 
ATOM     30  C23 UNL     1      21.291   5.265  31.700  0.00  0.00    +0.043 A 
ATOM     31 BR1  UNL     1      20.632   7.007  32.167  0.00  0.00    -0.048 Br
ATOM     32  O4  UNL     1      21.188   2.997  28.769  0.00  0.00    -0.485 OA
ATOM     33  C24 UNL     1      21.404   1.619  28.457  0.00  0.00    +0.270 C 
ATOM     34  C25 UNL     1      22.674   1.105  29.152  0.00  0.00    +0.270 C 
ATOM     35  O5  UNL     1      22.663   1.468  30.535  0.00  0.00    -0.485 OA
ENDBRANCH  23  25
ENDBRANCH  20  22
ENDBRANCH   1  20
TORSDOF 5
ENDMDL
MODEL 3
REMARK VINA RESULT:    -7.455     15.879     18.620
REMARK INTER + INTRA:         -10.505
REMARK INTER:                  -9.733
REMARK INTRA:                  -0.772
REMARK UNBOUND:                -0.871
REMARK  Name = /home/qwerty/github/datacon2025hack/step_04_hit_selection/docking/ligands/lig_14.pdb
REMARK  5 active torsions:
REMARK  status: ('A' for Active; 'I' for Inactive)
REMARK    1  A    between atoms: C1_2  and  C2_3
REMARK    2  A    between atoms: C2_3  and  C3_4
REMARK    3  A    between atoms: C6_7  and  N1_8
REMARK    4  A    between atoms: C7_9  and  C8_11
REMARK    5  A    between atoms: N2_22  and  C18_23
REMARK                            x       y       z     vdW  Elec       q    Type
REMARK                         _______ _______ _______ _____ _____    ______ ____
ROOT
ATOM      1  C3  UNL     1       8.436  -1.753  31.293  0.00  0.00    -0.039 A 
ATOM      2  C4  UNL     1       9.605  -1.944  30.540  0.00  0.00    +0.006 A 
ATOM      3  C5  UNL     1       9.750  -1.325  29.294  0.00  0.00    +0.023 A 
ATOM      4  C6  UNL     1       8.735  -0.502  28.784  0.00  0.00    +0.034 A 
ATOM      5  C16 UNL     1       7.551  -0.339  29.526  0.00  0.00    +0.023 A 
ATOM      6  C17 UNL     1       7.404  -0.959  30.770  0.00  0.00    +0.006 A 
ENDROOT
BRANCH   4   7
ATOM      7  N1  UNL     1       8.900   0.106  27.491  0.00  0.00    -0.279 N 
ATOM      8  C7  UNL     1       9.133   1.511  27.291  0.00  0.00    +0.284 C 
ATOM      9  O2  UNL     1       9.521   2.233  28.248  0.00  0.00    -0.266 OA
ATOM     10  H5  UNL     1       8.930  -0.527  26.660  0.00  0.00    +0.155 HD
BRANCH   8  11
ATOM     11  C8  UNL     1       8.953   2.129  25.968  0.00  0.00    +0.191 A 
ATOM     12  C9  UNL     1       7.867   2.903  25.557  0.00  0.00    +0.063 A 
ATOM     13  C10 UNL     1       8.172   3.259  24.263  0.00  0.00    +0.021 A 
ATOM     14  C11 UNL     1       7.472   4.032  23.338  0.00  0.00    +0.011 A 
ATOM     15  C12 UNL     1       8.055   4.227  22.073  0.00  0.00    +0.001 A 
ATOM     16  C13 UNL     1       9.309   3.647  21.767  0.00  0.00    +0.004 A 
ATOM     17  C14 UNL     1       9.989   2.872  22.725  0.00  0.00    +0.047 A 
ATOM     18  C15 UNL     1       9.387   2.701  23.969  0.00  0.00    +0.136 A 
ATOM     19  O3  UNL     1       9.844   2.029  24.996  0.00  0.00    -0.450 OA
ENDBRANCH   8  11
ENDBRANCH   4   7
BRANCH   1  20
ATOM     20  C2  UNL     1       8.260  -2.454  32.611  0.00  0.00    +0.131 C 
BRANCH  20  22
ATOM     21  O1  UNL     1       9.921  -1.725  34.159  0.00  0.00    -0.275 OA
ATOM     22  C1  UNL     1       8.743  -1.577  33.726  0.00  0.00    +0.222 C 
ATOM     23  N2  UNL     1       7.899  -0.526  34.231  0.00  0.00    -0.284 N 
ATOM     24  H13 UNL     1       6.995  -0.348  33.740  0.00  0.00    +0.155 HD
BRANCH  23  25
ATOM     25  C18 UNL     1       8.271   0.344  35.317  0.00  0.00    +0.051 A 
ATOM     26  C19 UNL     1       9.218   1.369  35.120  0.00  0.00    +0.073 A 
ATOM     27  C20 UNL     1       9.605   2.183  36.186  0.00  0.00    +0.164 A 
ATOM     28  C21 UNL     1       9.042   1.996  37.455  0.00  0.00    +0.163 A 
ATOM     29  C22 UNL     1       8.121   0.967  37.667  0.00  0.00    +0.066 A 
ATOM     30  C23 UNL     1       7.735   0.138  36.607  0.00  0.00    +0.043 A 
ATOM     31 BR1  UNL     1       6.435  -1.233  36.950  0.00  0.00    -0.048 Br
ATOM     32  O4  UNL     1       9.419   2.845  38.500  0.00  0.00    -0.485 OA
ATOM     33  C24 UNL     1      10.159   4.043  38.251  0.00  0.00    +0.270 C 
ATOM     34  C25 UNL     1      11.186   3.816  37.132  0.00  0.00    +0.270 C 
ATOM     35  O5  UNL     1      10.564   3.187  36.008  0.00  0.00    -0.485 OA
ENDBRANCH  23  25
ENDBRANCH  20  22
ENDBRANCH   1  20
TORSDOF 5
ENDMDL
MODEL 4
REMARK VINA RESULT:    -7.437     13.757     15.204
REMARK INTER + INTRA:         -10.482
REMARK INTER:                  -9.560
REMARK INTRA:                  -0.922
REMARK UNBOUND:                -0.871
REMARK  Name = /home/qwerty/github/datacon2025hack/step_04_hit_selection/docking/ligands/lig_14.pdb
REMARK  5 active torsions:
REMARK  status: ('A' for Active; 'I' for Inactive)
REMARK    1  A    between atoms: C1_2  and  C2_3
REMARK    2  A    between atoms: C2_3  and  C3_4
REMARK    3  A    between atoms: C6_7  and  N1_8
REMARK    4  A    between atoms: C7_9  and  C8_11
REMARK    5  A    between atoms: N2_22  and  C18_23
REMARK                            x       y       z     vdW  Elec       q    Type
REMARK                         _______ _______ _______ _____ _____    ______ ____
ROOT
ATOM      1  C3  UNL     1      15.839  -0.575  22.122  0.00  0.00    -0.039 A 
ATOM      2  C4  UNL     1      15.894   0.219  20.967  0.00  0.00    +0.006 A 
ATOM      3  C5  UNL     1      14.819   1.049  20.630  0.00  0.00    +0.023 A 
ATOM      4  C6  UNL     1      13.678   1.104  21.444  0.00  0.00    +0.034 A 
ATOM      5  C16 UNL     1      13.612   0.281  22.583  0.00  0.00    +0.023 A 
ATOM      6  C17 UNL     1      14.685  -0.550  22.919  0.00  0.00    +0.006 A 
ENDROOT
BRANCH   4   7
ATOM      7  N1  UNL     1      12.578   1.948  21.064  0.00  0.00    -0.279 N 
ATOM      8  C7  UNL     1      12.500   3.349  21.380  0.00  0.00    +0.284 C 
ATOM      9  O2  UNL     1      13.532   3.981  21.730  0.00  0.00    -0.266 OA
ATOM     10  H5  UNL     1      11.836   1.534  20.456  0.00  0.00    +0.155 HD
BRANCH   8  11
ATOM     11  C8  UNL     1      11.226   4.080  21.278  0.00  0.00    +0.191 A 
ATOM     12  C9  UNL     1      11.035   5.333  20.693  0.00  0.00    +0.063 A 
ATOM     13  C10 UNL     1       9.687   5.571  20.829  0.00  0.00    +0.021 A 
ATOM     14  C11 UNL     1       8.905   6.656  20.435  0.00  0.00    +0.011 A 
ATOM     15  C12 UNL     1       7.527   6.605  20.714  0.00  0.00    +0.001 A 
ATOM     16  C13 UNL     1       6.972   5.486  21.377  0.00  0.00    +0.004 A 
ATOM     17  C14 UNL     1       7.791   4.406  21.761  0.00  0.00    +0.047 A 
ATOM     18  C15 UNL     1       9.150   4.485  21.468  0.00  0.00    +0.136 A 
ATOM     19  O3  UNL     1      10.080   3.600  21.730  0.00  0.00    -0.450 OA
ENDBRANCH   8  11
ENDBRANCH   4   7
BRANCH   1  20
ATOM     20  C2  UNL     1      16.974  -1.501  22.460  0.00  0.00    +0.131 C 
BRANCH  20  22
ATOM     21  O1  UNL     1      17.690  -2.100  24.654  0.00  0.00    -0.275 OA
ATOM     22  C1  UNL     1      17.519  -1.170  23.816  0.00  0.00    +0.222 C 
ATOM     23  N2  UNL     1      17.918   0.179  24.121  0.00  0.00    -0.284 N 
ATOM     24  H13 UNL     1      17.897   0.881  23.348  0.00  0.00    +0.155 HD
BRANCH  23  25
ATOM     25  C18 UNL     1      18.423   0.591  25.404  0.00  0.00    +0.051 A 
ATOM     26  C19 UNL     1      19.812   0.689  25.629  0.00  0.00    +0.073 A 
ATOM     27  C20 UNL     1      20.298   1.049  26.887  0.00  0.00    +0.164 A 
ATOM     28  C21 UNL     1      19.407   1.332  27.930  0.00  0.00    +0.163 A 
ATOM     29  C22 UNL     1      18.029   1.213  27.727  0.00  0.00    +0.066 A 
ATOM     30  C23 UNL     1      17.533   0.842  26.471  0.00  0.00    +0.043 A 
ATOM     31 BR1  UNL     1      15.630   0.735  26.240  0.00  0.00    -0.048 Br
ATOM     32  O4  UNL     1      19.915   1.724  29.172  0.00  0.00    -0.485 OA
ATOM     33  C24 UNL     1      21.289   2.088  29.330  0.00  0.00    +0.270 C 
ATOM     34  C25 UNL     1      22.184   1.191  28.462  0.00  0.00    +0.270 C 
ATOM     35  O5  UNL     1      21.674   1.124  27.128  0.00  0.00    -0.485 OA
ENDBRANCH  23  25
ENDBRANCH  20  22
ENDBRANCH   1  20
TORSDOF 5
ENDMDL
MODEL 5
REMARK VINA RESULT:    -7.392     11.531     16.052
REMARK INTER + INTRA:         -10.425
REMARK INTER:                  -9.326
REMARK INTRA:                  -1.098
REMARK UNBOUND:                -0.871
REMARK  Name = /home/qwerty/github/datacon2025hack/step_04_hit_selection/docking/ligands/lig_14.pdb
REMARK  5 active torsions:
REMARK  status: ('A' for Active; 'I' for Inactive)
REMARK    1  A    between atoms: C1_2  and  C2_3
REMARK    2  A    between atoms: C2_3  and  C3_4
REMARK    3  A    between atoms: C6_7  and  N1_8
REMARK    4  A    between atoms: C7_9  and  C8_11
REMARK    5  A    between atoms: N2_22  and  C18_23
REMARK                            x       y       z     vdW  Elec       q    Type
REMARK                         _______ _______ _______ _____ _____    ______ ____
ROOT
ATOM      1  C3  UNL     1      10.085   7.395  20.730  0.00  0.00    -0.039 A 
ATOM      2  C4  UNL     1      11.489   7.385  20.732  0.00  0.00    +0.006 A 
ATOM      3  C5  UNL     1      12.185   6.178  20.602  0.00  0.00    +0.023 A 
ATOM      4  C6  UNL     1      11.493   4.967  20.460  0.00  0.00    +0.034 A 
ATOM      5  C16 UNL     1      10.087   4.976  20.491  0.00  0.00    +0.023 A 
ATOM      6  C17 UNL     1       9.390   6.181  20.624  0.00  0.00    +0.006 A 
ENDROOT
BRANCH   4   7
ATOM      7  N1  UNL     1      12.232   3.739  20.349  0.00  0.00    -0.279 N 
ATOM      8  C7  UNL     1      12.689   2.975  21.479  0.00  0.00    +0.284 C 
ATOM      9  O2  UNL     1      12.195   3.173  22.621  0.00  0.00    -0.266 OA
ATOM     10  H5  UNL     1      12.373   3.343  19.392  0.00  0.00    +0.155 HD
BRANCH   8  11
ATOM     11  C8  UNL     1      13.717   1.932  21.325  0.00  0.00    +0.191 A 
ATOM     12  C9  UNL     1      14.506   1.709  20.196  0.00  0.00    +0.063 A 
ATOM     13  C10 UNL     1      15.313   0.652  20.549  0.00  0.00    +0.021 A 
ATOM     14  C11 UNL     1      16.309  -0.016  19.837  0.00  0.00    +0.011 A 
ATOM     15  C12 UNL     1      16.975  -1.075  20.481  0.00  0.00    +0.001 A 
ATOM     16  C13 UNL     1      16.631  -1.438  21.804  0.00  0.00    +0.004 A 
ATOM     17  C14 UNL     1      15.620  -0.742  22.494  0.00  0.00    +0.047 A 
ATOM     18  C15 UNL     1      14.981   0.303  21.831  0.00  0.00    +0.136 A 
ATOM     19  O3  UNL     1      14.027   1.077  22.284  0.00  0.00    -0.450 OA
ENDBRANCH   8  11
ENDBRANCH   4   7
BRANCH   1  20
ATOM     20  C2  UNL     1       9.336   8.685  20.915  0.00  0.00    +0.131 C 
BRANCH  20  22
ATOM     21  O1  UNL     1       7.391   8.836  22.286  0.00  0.00    -0.275 OA
ATOM     22  C1  UNL     1       8.645   8.689  22.245  0.00  0.00    +0.222 C 
ATOM     23  N2  UNL     1       9.397   8.442  23.447  0.00  0.00    -0.284 N 
ATOM     24  H13 UNL     1      10.402   8.178  23.348  0.00  0.00    +0.155 HD
BRANCH  23  25
ATOM     25  C18 UNL     1       8.820   8.455  24.766  0.00  0.00    +0.051 A 
ATOM     26  C19 UNL     1       8.705   9.662  25.484  0.00  0.00    +0.073 A 
ATOM     27  C20 UNL     1       8.183   9.664  26.779  0.00  0.00    +0.164 A 
ATOM     28  C21 UNL     1       7.755   8.467  27.366  0.00  0.00    +0.163 A 
ATOM     29  C22 UNL     1       7.888   7.260  26.674  0.00  0.00    +0.066 A 
ATOM     30  C23 UNL     1       8.421   7.247  25.379  0.00  0.00    +0.043 A 
ATOM     31 BR1  UNL     1       8.542   5.565  24.462  0.00  0.00    -0.048 Br
ATOM     32  O4  UNL     1       7.204   8.497  28.651  0.00  0.00    -0.485 OA
ATOM     33  C24 UNL     1       6.833   9.731  29.270  0.00  0.00    +0.270 C 
ATOM     34  C25 UNL     1       7.847  10.832  28.920  0.00  0.00    +0.270 C 
ATOM     35  O5  UNL     1       8.088  10.854  27.511  0.00  0.00    -0.485 OA
ENDBRANCH  23  25
ENDBRANCH  20  22
ENDBRANCH   1  20
TORSDOF 5
ENDMDL
MODEL 6
REMARK VINA RESULT:    -7.369     13.155     18.175
REMARK INTER + INTRA:         -10.395
REMARK INTER:                  -9.677
REMARK INTRA:                  -0.717
REMARK UNBOUND:                -0.871
REMARK  Name = /home/qwerty/github/datacon2025hack/step_04_hit_selection/docking/ligands/lig_14.pdb
REMARK  5 active torsions:
REMARK  status: ('A' for Active; 'I' for Inactive)
REMARK    1  A    between atoms: C1_2  and  C2_3
REMARK    2  A    between atoms: C2_3  and  C3_4
REMARK    3  A    between atoms: C6_7  and  N1_8
REMARK    4  A    between atoms: C7_9  and  C8_11
REMARK    5  A    between atoms: N2_22  and  C18_23
REMARK                            x       y       z     vdW  Elec       q    Type
REMARK                         _______ _______ _______ _____ _____    ______ ____
ROOT
ATOM      1  C3  UNL     1      10.513   3.013  38.550  0.00  0.00    -0.039 A 
ATOM      2  C4  UNL     1      10.381   4.405  38.429  0.00  0.00    +0.006 A 
ATOM      3  C5  UNL     1      11.517   5.220  38.390  0.00  0.00    +0.023 A 
ATOM      4  C6  UNL     1      12.801   4.658  38.462  0.00  0.00    +0.034 A 
ATOM      5  C16 UNL     1      12.929   3.266  38.617  0.00  0.00    +0.023 A 
ATOM      6  C17 UNL     1      11.794   2.451  38.659  0.00  0.00    +0.006 A 
ENDROOT
BRANCH   4   7
ATOM      7  N1  UNL     1      13.952   5.519  38.441  0.00  0.00    -0.279 N 
ATOM      8  C7  UNL     1      14.690   5.839  37.249  0.00  0.00    +0.284 C 
ATOM      9  O2  UNL     1      14.181   5.637  36.113  0.00  0.00    -0.266 OA
ATOM     10  H5  UNL     1      14.214   6.000  39.331  0.00  0.00    +0.155 HD
BRANCH   8  11
ATOM     11  C8  UNL     1      16.036   6.431  37.324  0.00  0.00    +0.191 A 
ATOM     12  C9  UNL     1      17.241   5.735  37.421  0.00  0.00    +0.063 A 
ATOM     13  C10 UNL     1      18.202   6.719  37.443  0.00  0.00    +0.021 A 
ATOM     14  C11 UNL     1      19.592   6.639  37.524  0.00  0.00    +0.011 A 
ATOM     15  C12 UNL     1      20.318   7.845  37.519  0.00  0.00    +0.001 A 
ATOM     16  C13 UNL     1      19.644   9.085  37.438  0.00  0.00    +0.004 A 
ATOM     17  C14 UNL     1      18.239   9.130  37.356  0.00  0.00    +0.047 A 
ATOM     18  C15 UNL     1      17.549   7.920  37.360  0.00  0.00    +0.136 A 
ATOM     19  O3  UNL     1      16.254   7.734  37.289  0.00  0.00    -0.450 OA
ENDBRANCH   8  11
ENDBRANCH   4   7
BRANCH   1  20
ATOM     20  C2  UNL     1       9.292   2.141  38.638  0.00  0.00    +0.131 C 
BRANCH  20  22
ATOM     21  O1  UNL     1       8.274   2.130  36.482  0.00  0.00    -0.275 OA
ATOM     22  C1  UNL     1       9.010   1.517  37.306  0.00  0.00    +0.222 C 
ATOM     23  N2  UNL     1       9.644   0.276  36.944  0.00  0.00    -0.284 N 
ATOM     24  H13 UNL     1      10.358  -0.115  37.598  0.00  0.00    +0.155 HD
BRANCH  23  25
ATOM     25  C18 UNL     1       9.409  -0.407  35.699  0.00  0.00    +0.051 A 
ATOM     26  C19 UNL     1       9.894   0.127  34.488  0.00  0.00    +0.073 A 
ATOM     27  C20 UNL     1       9.628  -0.518  33.279  0.00  0.00    +0.164 A 
ATOM     28  C21 UNL     1       8.893  -1.709  33.264  0.00  0.00    +0.163 A 
ATOM     29  C22 UNL     1       8.386  -2.235  34.455  0.00  0.00    +0.066 A 
ATOM     30  C23 UNL     1       8.638  -1.589  35.672  0.00  0.00    +0.043 A 
ATOM     31 BR1  UNL     1       7.950  -2.380  37.281  0.00  0.00    -0.048 Br
ATOM     32  O4  UNL     1       8.668  -2.356  32.044  0.00  0.00    -0.485 OA
ATOM     33  C24 UNL     1       9.378  -1.977  30.862  0.00  0.00    +0.270 C 
ATOM     34  C25 UNL     1       9.570  -0.453  30.818  0.00  0.00    +0.270 C 
ATOM     35  O5  UNL     1      10.082   0.018  32.068  0.00  0.00    -0.485 OA
ENDBRANCH  23  25
ENDBRANCH  20  22
ENDBRANCH   1  20
TORSDOF 5
ENDMDL
MODEL 7
REMARK VINA RESULT:    -7.234      7.891     12.410
REMARK INTER + INTRA:         -10.220
REMARK INTER:                  -9.423
REMARK INTRA:                  -0.797
REMARK UNBOUND:                -0.871
REMARK  Name = /home/qwerty/github/datacon2025hack/step_04_hit_selection/docking/ligands/lig_14.pdb
REMARK  5 active torsions:
REMARK  status: ('A' for Active; 'I' for Inactive)
REMARK    1  A    between atoms: C1_2  and  C2_3
REMARK    2  A    between atoms: C2_3  and  C3_4
REMARK    3  A    between atoms: C6_7  and  N1_8
REMARK    4  A    between atoms: C7_9  and  C8_11
REMARK    5  A    between atoms: N2_22  and  C18_23
REMARK                            x       y       z     vdW  Elec       q    Type
REMARK                         _______ _______ _______ _____ _____    ______ ____
ROOT
ATOM      1  C3  UNL     1      14.320  13.520  35.531  0.00  0.00    -0.039 A 
ATOM      2  C4  UNL     1      14.136  12.489  36.465  0.00  0.00    +0.006 A 
ATOM      3  C5  UNL     1      15.159  11.565  36.706  0.00  0.00    +0.023 A 
ATOM      4  C6  UNL     1      16.382  11.661  36.025  0.00  0.00    +0.034 A 
ATOM      5  C16 UNL     1      16.551  12.676  35.065  0.00  0.00    +0.023 A 
ATOM      6  C17 UNL     1      15.528  13.597  34.822  0.00  0.00    +0.006 A 
ENDROOT
BRANCH   4   7
ATOM      7  N1  UNL     1      17.409  10.687  36.275  0.00  0.00    -0.279 N 
ATOM      8  C7  UNL     1      18.786  11.022  36.520  0.00  0.00    +0.284 C 
ATOM      9  O2  UNL     1      19.107  12.197  36.841  0.00  0.00    -0.266 OA
ATOM     10  H5  UNL     1      17.117   9.687  36.362  0.00  0.00    +0.155 HD
BRANCH   8  11
ATOM     11  C8  UNL     1      19.843  10.001  36.428  0.00  0.00    +0.191 A 
ATOM     12  C9  UNL     1      20.782   9.872  35.404  0.00  0.00    +0.063 A 
ATOM     13  C10 UNL     1      21.552   8.795  35.781  0.00  0.00    +0.021 A 
ATOM     14  C11 UNL     1      22.646   8.192  35.163  0.00  0.00    +0.011 A 
ATOM     15  C12 UNL     1      23.236   7.089  35.807  0.00  0.00    +0.001 A 
ATOM     16  C13 UNL     1      22.721   6.621  37.038  0.00  0.00    +0.004 A 
ATOM     17  C14 UNL     1      21.614   7.254  37.635  0.00  0.00    +0.047 A 
ATOM     18  C15 UNL     1      21.054   8.344  36.974  0.00  0.00    +0.136 A 
ATOM     19  O3  UNL     1      20.034   9.074  37.351  0.00  0.00    -0.450 OA
ENDBRANCH   8  11
ENDBRANCH   4   7
BRANCH   1  20
ATOM     20  C2  UNL     1      13.205  14.485  35.238  0.00  0.00    +0.131 C 
BRANCH  20  22
ATOM     21  O1  UNL     1      10.993  13.768  34.711  0.00  0.00    -0.275 OA
ATOM     22  C1  UNL     1      12.197  13.844  34.334  0.00  0.00    +0.222 C 
ATOM     23  N2  UNL     1      12.587  13.399  33.022  0.00  0.00    -0.284 N 
ATOM     24  H13 UNL     1      13.557  13.618  32.701  0.00  0.00    +0.155 HD
BRANCH  23  25
ATOM     25  C18 UNL     1      11.693  12.748  32.101  0.00  0.00    +0.051 A 
ATOM     26  C19 UNL     1      10.974  13.500  31.150  0.00  0.00    +0.073 A 
ATOM     27  C20 UNL     1      10.077  12.869  30.286  0.00  0.00    +0.164 A 
ATOM     28  C21 UNL     1       9.899  11.481  30.349  0.00  0.00    +0.163 A 
ATOM     29  C22 UNL     1      10.587  10.729  31.304  0.00  0.00    +0.066 A 
ATOM     30  C23 UNL     1      11.481  11.355  32.182  0.00  0.00    +0.043 A 
ATOM     31 BR1  UNL     1      12.428  10.264  33.446  0.00  0.00    -0.048 Br
ATOM     32  O4  UNL     1       9.021  10.866  29.451  0.00  0.00    -0.485 OA
ATOM     33  C24 UNL     1       8.504  11.571  28.319  0.00  0.00    +0.270 C 
ATOM     34  C25 UNL     1       8.214  13.034  28.686  0.00  0.00    +0.270 C 
ATOM     35  O5  UNL     1       9.338  13.609  29.356  0.00  0.00    -0.485 OA
ENDBRANCH  23  25
ENDBRANCH  20  22
ENDBRANCH   1  20
TORSDOF 5
ENDMDL
MODEL 8
REMARK VINA RESULT:    -7.230      6.047      9.922
REMARK INTER + INTRA:         -10.215
REMARK INTER:                  -9.215
REMARK INTRA:                  -1.000
REMARK UNBOUND:                -0.871
REMARK  Name = /home/qwerty/github/datacon2025hack/step_04_hit_selection/docking/ligands/lig_14.pdb
REMARK  5 active torsions:
REMARK  status: ('A' for Active; 'I' for Inactive)
REMARK    1  A    between atoms: C1_2  and  C2_3
REMARK    2  A    between atoms: C2_3  and  C3_4
REMARK    3  A    between atoms: C6_7  and  N1_8
REMARK    4  A    between atoms: C7_9  and  C8_11
REMARK    5  A    between atoms: N2_22  and  C18_23
REMARK                            x       y       z     vdW  Elec       q    Type
REMARK                         _______ _______ _______ _____ _____    ______ ____
ROOT
ATOM      1  C3  UNL     1       8.307  12.288  28.178  0.00  0.00    -0.039 A 
ATOM      2  C4  UNL     1       8.315  11.467  27.040  0.00  0.00    +0.006 A 
ATOM      3  C5  UNL     1       7.889  10.137  27.126  0.00  0.00    +0.023 A 
ATOM      4  C6  UNL     1       7.441   9.610  28.347  0.00  0.00    +0.034 A 
ATOM      5  C16 UNL     1       7.465  10.425  29.493  0.00  0.00    +0.023 A 
ATOM      6  C17 UNL     1       7.893  11.753  29.408  0.00  0.00    +0.006 A 
ENDROOT
BRANCH   4   7
ATOM      7  N1  UNL     1       7.028   8.234  28.413  0.00  0.00    -0.279 N 
ATOM      8  C7  UNL     1       7.933   7.136  28.618  0.00  0.00    +0.284 C 
ATOM      9  O2  UNL     1       9.093   7.343  29.064  0.00  0.00    -0.266 OA
ATOM     10  H5  UNL     1       6.002   8.035  28.391  0.00  0.00    +0.155 HD
BRANCH   8  11
ATOM     11  C8  UNL     1       7.522   5.750  28.338  0.00  0.00    +0.191 A 
ATOM     12  C9  UNL     1       6.532   5.030  29.008  0.00  0.00    +0.063 A 
ATOM     13  C10 UNL     1       6.511   3.809  28.374  0.00  0.00    +0.021 A 
ATOM     14  C11 UNL     1       5.728   2.677  28.595  0.00  0.00    +0.011 A 
ATOM     15  C12 UNL     1       5.938   1.563  27.762  0.00  0.00    +0.001 A 
ATOM     16  C13 UNL     1       6.918   1.607  26.743  0.00  0.00    +0.004 A 
ATOM     17  C14 UNL     1       7.692   2.767  26.547  0.00  0.00    +0.047 A 
ATOM     18  C15 UNL     1       7.457   3.853  27.386  0.00  0.00    +0.136 A 
ATOM     19  O3  UNL     1       8.054   5.020  27.374  0.00  0.00    -0.450 OA
ENDBRANCH   8  11
ENDBRANCH   4   7
BRANCH   1  20
ATOM     20  C2  UNL     1       8.808  13.702  28.096  0.00  0.00    +0.131 C 
BRANCH  20  22
ATOM     21  O1  UNL     1      10.706  13.912  29.524  0.00  0.00    -0.275 OA
ATOM     22  C1  UNL     1      10.285  13.738  28.346  0.00  0.00    +0.222 C 
ATOM     23  N2  UNL     1      11.203  13.490  27.265  0.00  0.00    -0.284 N 
ATOM     24  H13 UNL     1      10.805  13.203  26.343  0.00  0.00    +0.155 HD
BRANCH  23  25
ATOM     25  C18 UNL     1      12.635  13.532  27.409  0.00  0.00    +0.051 A 
ATOM     26  C19 UNL     1      13.336  14.741  27.228  0.00  0.00    +0.073 A 
ATOM     27  C20 UNL     1      14.729  14.768  27.327  0.00  0.00    +0.164 A 
ATOM     28  C21 UNL     1      15.435  13.596  27.624  0.00  0.00    +0.163 A 
ATOM     29  C22 UNL     1      14.753  12.387  27.781  0.00  0.00    +0.066 A 
ATOM     30  C23 UNL     1      13.358  12.348  27.672  0.00  0.00    +0.043 A 
ATOM     31 BR1  UNL     1      12.471  10.665  27.937  0.00  0.00    -0.048 Br
ATOM     32  O4  UNL     1      16.827  13.653  27.753  0.00  0.00    -0.485 OA
ATOM     33  C24 UNL     1      17.512  14.905  27.843  0.00  0.00    +0.270 C 
ATOM     34  C25 UNL     1      16.853  15.944  26.922  0.00  0.00    +0.270 C 
ATOM     35  O5  UNL     1      15.438  15.958  27.124  0.00  0.00    -0.485 OA
ENDBRANCH  23  25
ENDBRANCH  20  22
ENDBRANCH   1  20
TORSDOF 5
ENDMDL
MODEL 9
REMARK VINA RESULT:    -7.181     11.870     16.867
REMARK INTER + INTRA:         -10.152
REMARK INTER:                  -9.657
REMARK INTRA:                  -0.495
REMARK UNBOUND:                -0.871
REMARK  Name = /home/qwerty/github/datacon2025hack/step_04_hit_selection/docking/ligands/lig_14.pdb
REMARK  5 active torsions:
REMARK  status: ('A' for Active; 'I' for Inactive)
REMARK    1  A    between atoms: C1_2  and  C2_3
REMARK    2  A    between atoms: C2_3  and  C3_4
REMARK    3  A    between atoms: C6_7  and  N1_8
REMARK    4  A    between atoms: C7_9  and  C8_11
REMARK    5  A    between atoms: N2_22  and  C18_23
REMARK                            x       y       z     vdW  Elec       q    Type
REMARK                         _______ _______ _______ _____ _____    ______ ____
ROOT
ATOM      1  C3  UNL     1      14.376   2.773  20.199  0.00  0.00    -0.039 A 
ATOM      2  C4  UNL     1      13.728   4.016  20.128  0.00  0.00    +0.006 A 
ATOM      3  C5  UNL     1      14.440   5.163  19.759  0.00  0.00    +0.023 A 
ATOM      4  C6  UNL     1      15.806   5.085  19.449  0.00  0.00    +0.034 A 
ATOM      5  C16 UNL     1      16.460   3.844  19.553  0.00  0.00    +0.023 A 
ATOM      6  C17 UNL     1      15.750   2.698  19.924  0.00  0.00    +0.006 A 
ENDROOT
BRANCH   4   7
ATOM      7  N1  UNL     1      16.520   6.281  19.094  0.00  0.00    -0.279 N 
ATOM      8  C7  UNL     1      17.575   6.849  19.889  0.00  0.00    +0.284 C 
ATOM      9  O2  UNL     1      18.145   6.159  20.775  0.00  0.00    -0.266 OA
ATOM     10  H5  UNL     1      16.309   6.713  18.165  0.00  0.00    +0.155 HD
BRANCH   8  11
ATOM     11  C8  UNL     1      18.031   8.232  19.670  0.00  0.00    +0.191 A 
ATOM     12  C9  UNL     1      17.277   9.391  19.860  0.00  0.00    +0.063 A 
ATOM     13  C10 UNL     1      18.142  10.414  19.545  0.00  0.00    +0.021 A 
ATOM     14  C11 UNL     1      17.962  11.797  19.548  0.00  0.00    +0.011 A 
ATOM     15  C12 UNL     1      19.055  12.600  19.175  0.00  0.00    +0.001 A 
ATOM     16  C13 UNL     1      20.286  12.007  18.807  0.00  0.00    +0.004 A 
ATOM     17  C14 UNL     1      20.433  10.607  18.815  0.00  0.00    +0.047 A 
ATOM     18  C15 UNL     1      19.333   9.840  19.192  0.00  0.00    +0.136 A 
ATOM     19  O3  UNL     1      19.255   8.534  19.272  0.00  0.00    -0.450 OA
ENDBRANCH   8  11
ENDBRANCH   4   7
BRANCH   1  20
ATOM     20  C2  UNL     1      13.622   1.549  20.639  0.00  0.00    +0.131 C 
BRANCH  20  22
ATOM     21  O1  UNL     1      13.149   2.337  22.839  0.00  0.00    -0.275 OA
ATOM     22  C1  UNL     1      12.680   1.900  21.750  0.00  0.00    +0.222 C 
ATOM     23  N2  UNL     1      11.258   1.818  21.540  0.00  0.00    -0.284 N 
ATOM     24  H13 UNL     1      10.920   1.595  20.578  0.00  0.00    +0.155 HD
BRANCH  23  25
ATOM     25  C18 UNL     1      10.284   2.108  22.558  0.00  0.00    +0.051 A 
ATOM     26  C19 UNL     1      10.086   1.218  23.633  0.00  0.00    +0.073 A 
ATOM     27  C20 UNL     1       9.110   1.484  24.596  0.00  0.00    +0.164 A 
ATOM     28  C21 UNL     1       8.333   2.646  24.508  0.00  0.00    +0.163 A 
ATOM     29  C22 UNL     1       8.503   3.522  23.433  0.00  0.00    +0.066 A 
ATOM     30  C23 UNL     1       9.471   3.259  22.457  0.00  0.00    +0.043 A 
ATOM     31 BR1  UNL     1       9.687   4.520  21.025  0.00  0.00    -0.048 Br
ATOM     32  O4  UNL     1       7.385   2.908  25.502  0.00  0.00    -0.485 OA
ATOM     33  C24 UNL     1       7.367   2.166  26.724  0.00  0.00    +0.270 C 
ATOM     34  C25 UNL     1       7.711   0.692  26.461  0.00  0.00    +0.270 C 
ATOM     35  O5  UNL     1       8.887   0.594  25.653  0.00  0.00    -0.485 OA
ENDBRANCH  23  25
ENDBRANCH  20  22
ENDBRANCH   1  20
TORSDOF 5
ENDMDL
