REMARK  Name = /home/qwerty/github/datacon2025hack/step_04_hit_selection/docking/ligands/lig_5.pdb
REMARK  5 active torsions:
REMARK  status: ('A' for Active; 'I' for Inactive)
REMARK    1  A    between atoms: C1_1  and  C2_2
REMARK    2  A    between atoms: C2_2  and  N1_3
REMARK    3  A    between atoms: C2_2  and  C11_16
REMARK    4  A    between atoms: C3_4  and  C4_6
REMARK    5  A    between atoms: C7_9  and  C8_10
REMARK                            x       y       z     vdW  Elec       q    Type
REMARK                         _______ _______ _______ _____ _____    ______ ____
ROOT
ATOM      1  N1  UNL     1       0.274   0.481  -0.504  0.00  0.00    -0.305 N 
ATOM      2  C3  UNL     1       1.590   1.011  -0.736  0.00  0.00    +0.245 C 
ATOM      3  O1  UNL     1       1.722   2.109  -1.343  0.00  0.00    -0.270 OA
ATOM      4  H5  UNL     1       0.160  -0.274   0.209  0.00  0.00    +0.150 HD
ENDROOT
BRANCH   2   5
ATOM      5  C4  UNL     1       2.797   0.296  -0.256  0.00  0.00    +0.037 A 
ATOM      6  C5  UNL     1       2.780  -1.093  -0.041  0.00  0.00    +0.013 A 
ATOM      7  C6  UNL     1       3.927  -1.756   0.405  0.00  0.00    +0.013 A 
ATOM      8  C7  UNL     1       5.111  -1.044   0.658  0.00  0.00    +0.055 A 
ATOM      9  C9  UNL     1       5.140   0.337   0.406  0.00  0.00    +0.013 A 
ATOM     10  C10 UNL     1       3.994   1.001  -0.041  0.00  0.00    +0.013 A 
BRANCH   8  11
ATOM     11  C8  UNL     1       6.361  -1.768   1.092  0.00  0.00    +0.417 C 
ATOM     12  F1  UNL     1       6.042  -2.880   1.852  0.00  0.00    -0.166 F 
ATOM     13  F2  UNL     1       7.166  -0.940   1.854  0.00  0.00    -0.166 F 
ATOM     14  F3  UNL     1       7.063  -2.174  -0.028  0.00  0.00    -0.166 F 
ENDBRANCH   8  11
ENDBRANCH   2   5
BRANCH   1  16
ATOM     15  C1  UNL     1      -0.926   0.677  -2.648  0.00  0.00    +0.033 C 
ATOM     16  C2  UNL     1      -0.918   1.036  -1.158  0.00  0.00    +0.100 C 
BRANCH  16  17
ATOM     17  C11 UNL     1      -2.183   0.539  -0.484  0.00  0.00    -0.027 A 
ATOM     18  C12 UNL     1      -2.463  -0.853  -0.405  0.00  0.00    +0.007 A 
ATOM     19  C13 UNL     1      -3.638  -1.318   0.214  0.00  0.00    +0.026 A 
ATOM     20  C14 UNL     1      -4.513  -0.373   0.742  0.00  0.00    +0.046 A 
ATOM     21  N2  UNL     1      -5.680  -0.601   1.367  0.00  0.00    -0.361 N 
ATOM     22  C15 UNL     1      -6.166   0.618   1.695  0.00  0.00    +0.083 A 
ATOM     23  C16 UNL     1      -5.302   1.624   1.275  0.00  0.00    +0.027 A 
ATOM     24  C17 UNL     1      -4.253   0.968   0.669  0.00  0.00    -0.000 A 
ATOM     25  C18 UNL     1      -3.101   1.465   0.064  0.00  0.00    +0.015 A 
ATOM     26  H12 UNL     1      -6.123  -1.526   1.562  0.00  0.00    +0.165 HD
ENDBRANCH  16  17
ENDBRANCH   1  16
TORSDOF 4
