REMARK  Name = /home/qwerty/github/datacon2025hack/step_04_hit_selection/docking/ligands/lig_502.pdb
REMARK  7 active torsions:
REMARK  status: ('A' for Active; 'I' for Inactive)
REMARK    1  A    between atoms: C1_1  and  C2_2
REMARK    2  A    between atoms: C2_2  and  C3_3
REMARK    3  A    between atoms: C2_2  and  N1_4
REMARK    4  A    between atoms: C4_5  and  C5_7
REMARK    5  A    between atoms: N5_14  and  C9_15
REMARK    6  A    between atoms: C12_18  and  C13_19
REMARK    7  A    between atoms: N6_27  and  C18_28
REMARK                            x       y       z     vdW  Elec       q    Type
REMARK                         _______ _______ _______ _____ _____    ______ ____
ROOT
ATOM      1  C5  UNL     1       3.240  -0.169   0.369  0.00  0.00    +0.220 A 
ATOM      2  N2  UNL     1       2.918  -1.473   0.255  0.00  0.00    -0.123 NA
ATOM      3  N3  UNL     1       1.628  -1.537  -0.035  0.00  0.00    -0.113 NA
ATOM      4  C6  UNL     1       1.177  -0.270  -0.089  0.00  0.00    +0.220 A 
ATOM      5  N4  UNL     1      -0.199   0.061  -0.344  0.00  0.00    -0.297 N 
ATOM      6  C7  UNL     1      -0.890   1.075   0.461  0.00  0.00    +0.127 C 
ATOM      7  C8  UNL     1      -2.263   0.556   0.896  0.00  0.00    +0.124 C 
ATOM      8  N5  UNL     1      -3.032   0.039  -0.249  0.00  0.00    -0.327 N 
ATOM      9  C16 UNL     1      -2.362  -0.199  -1.537  0.00  0.00    +0.124 C 
ATOM     10  C17 UNL     1      -0.945  -0.743  -1.321  0.00  0.00    +0.127 C 
ATOM     11  N6  UNL     1       2.166   0.622   0.139  0.00  0.00    -0.295 N 
ATOM     12  C18 UNL     1       2.110   2.083   0.062  0.00  0.00    +0.154 C 
ENDROOT
BRANCH   8  13
ATOM     13  C9  UNL     1      -4.465  -0.110  -0.135  0.00  0.00    +0.030 A 
ATOM     14  C10 UNL     1      -5.309   0.202  -1.216  0.00  0.00    +0.023 A 
ATOM     15  C11 UNL     1      -6.695   0.062  -1.102  0.00  0.00    +0.014 A 
ATOM     16  C12 UNL     1      -7.270  -0.372   0.104  0.00  0.00    +0.055 A 
ATOM     17  C14 UNL     1      -6.429  -0.705   1.178  0.00  0.00    +0.014 A 
ATOM     18  C15 UNL     1      -5.043  -0.566   1.063  0.00  0.00    +0.023 A 
BRANCH  16  19
ATOM     19  C13 UNL     1      -8.761  -0.569   0.221  0.00  0.00    +0.417 C 
ATOM     20  F1  UNL     1      -9.067  -1.890  -0.044  0.00  0.00    -0.166 F 
ATOM     21  F2  UNL     1      -9.189  -0.254   1.499  0.00  0.00    -0.166 F 
ATOM     22  F3  UNL     1      -9.440   0.239  -0.674  0.00  0.00    -0.166 F 
ENDBRANCH  16  19
ENDBRANCH   8  13
BRANCH   1  24
ATOM     23  N1  UNL     1       5.699  -0.629   0.722  0.00  0.00    -0.306 N 
ATOM     24  C4  UNL     1       4.597   0.294   0.731  0.00  0.00    +0.282 C 
ATOM     25  O1  UNL     1       4.784   1.491   1.078  0.00  0.00    -0.267 OA
ATOM     26  H8  UNL     1       5.518  -1.625   0.459  0.00  0.00    +0.149 HD
BRANCH  23  28
ATOM     27  C1  UNL     1       7.905  -1.457   1.433  0.00  0.00    +0.027 C 
ATOM     28  C2  UNL     1       7.060  -0.226   1.093  0.00  0.00    +0.067 C 
ATOM     29  C3  UNL     1       7.705   0.565  -0.049  0.00  0.00    +0.027 C 
ENDBRANCH  23  28
ENDBRANCH   1  24
TORSDOF 4
