REMARK  Name = /home/qwerty/github/datacon2025hack/step_04_hit_selection/docking/ligands/lig_190.pdb
REMARK  5 active torsions:
REMARK  status: ('A' for Active; 'I' for Inactive)
REMARK    1  A    between atoms: C1_1  and  C2_2
REMARK    2  A    between atoms: C5_5  and  C6_6
REMARK    3  A    between atoms: C7_8  and  C8_9
REMARK    4  A    between atoms: C12_15  and  N3_16
REMARK    5  A    between atoms: C13_17  and  C14_19
REMARK                            x       y       z     vdW  Elec       q    Type
REMARK                         _______ _______ _______ _____ _____    ______ ____
ROOT
ATOM      1  C8  UNL     1      -0.918   0.725   0.482  0.00  0.00    +0.266 C 
ATOM      2  O1  UNL     1      -0.731   0.627   1.727  0.00  0.00    -0.268 OA
ATOM      3  N2  UNL     1       0.161   1.158  -0.365  0.00  0.00    -0.295 N 
ATOM      4  C9  UNL     1      -0.027   2.272  -1.308  0.00  0.00    +0.108 C 
ATOM      5  C10 UNL     1       0.624   1.966  -2.674  0.00  0.00    +0.021 C 
ATOM      6  C11 UNL     1       1.806   0.980  -2.585  0.00  0.00    +0.025 C 
ATOM      7  C12 UNL     1       2.502   1.058  -1.215  0.00  0.00    +0.091 C 
ATOM      8  C19 UNL     1       1.511   0.639  -0.109  0.00  0.00    +0.130 C 
ENDROOT
BRANCH   1  11
ATOM      9  C6  UNL     1      -4.425  -0.152   0.022  0.00  0.00    +0.144 A 
ATOM     10  N1  UNL     1      -3.330   0.222   0.722  0.00  0.00    -0.231 NA
ATOM     11  C7  UNL     1      -2.233   0.352  -0.075  0.00  0.00    +0.133 A 
ATOM     12  C20 UNL     1      -2.451   0.059  -1.423  0.00  0.00    +0.080 A 
ATOM     13  S1  UNL     1      -4.071  -0.352  -1.611  0.00  0.00    -0.072 S 
BRANCH   9  18
ATOM     14  C1  UNL     1      -7.879  -0.448   3.488  0.00  0.00    +0.086 C 
ATOM     15  C2  UNL     1      -7.237  -0.490   2.143  0.00  0.00    +0.103 A 
ATOM     16  C3  UNL     1      -7.875  -0.795   0.956  0.00  0.00    +0.045 A 
ATOM     17  C4  UNL     1      -6.905  -0.714  -0.020  0.00  0.00    +0.052 A 
ATOM     18  C5  UNL     1      -5.739  -0.362   0.639  0.00  0.00    +0.160 A 
ATOM     19  O3  UNL     1      -5.968  -0.234   1.925  0.00  0.00    -0.458 OA
ENDBRANCH   9  18
ENDBRANCH   1  11
BRANCH   7  20
ATOM     20  N3  UNL     1       3.681   0.188  -1.184  0.00  0.00    -0.307 N 
ATOM     21  C13 UNL     1       4.711   0.338  -0.186  0.00  0.00    +0.246 C 
ATOM     22  O2  UNL     1       4.717   1.360   0.561  0.00  0.00    -0.270 OA
ATOM     23  H13 UNL     1       3.765  -0.567  -1.904  0.00  0.00    +0.149 HD
BRANCH  21  24
ATOM     24  C14 UNL     1       5.783  -0.674  -0.028  0.00  0.00    +0.055 A 
ATOM     25  C15 UNL     1       5.583  -2.012  -0.406  0.00  0.00    +0.016 A 
ATOM     26  C16 UNL     1       6.611  -2.944  -0.246  0.00  0.00    +0.020 A 
ATOM     27  C17 UNL     1       7.832  -2.534   0.297  0.00  0.00    +0.111 A 
ATOM     28  N4  UNL     1       8.011  -1.241   0.673  0.00  0.00    -0.263 NA
ATOM     29  C18 UNL     1       7.027  -0.314   0.528  0.00  0.00    +0.123 A 
ENDBRANCH  21  24
ENDBRANCH   7  20
TORSDOF 4
