REMARK  Name = /home/qwerty/github/datacon2025hack/step_04_hit_selection/docking/ligands/lig_402.pdb
REMARK  3 active torsions:
REMARK  status: ('A' for Active; 'I' for Inactive)
REMARK    1  A    between atoms: C1_2  and  C11_16
REMARK    2  A    between atoms: N1_3  and  C2_4
REMARK    3  A    between atoms: C5_7  and  N2_8
REMARK                            x       y       z     vdW  Elec       q    Type
REMARK                         _______ _______ _______ _____ _____    ______ ____
ROOT
ATOM      1  O1  UNL     1       1.000   1.508   0.875  0.00  0.00    -0.270 OA
ATOM      2  C1  UNL     1       1.363   0.356   0.513  0.00  0.00    +0.248 C 
ATOM      3  N1  UNL     1       0.398  -0.708   0.450  0.00  0.00    -0.281 N 
ATOM      4  H1  UNL     1       0.731  -1.684   0.619  0.00  0.00    +0.155 HD
ENDROOT
BRANCH   2   5
ATOM      5  C11 UNL     1       2.792   0.104   0.207  0.00  0.00    +0.041 A 
ATOM      6  C12 UNL     1       3.187  -1.035  -0.547  0.00  0.00    +0.017 A 
ATOM      7  C13 UNL     1       4.543  -1.266  -0.841  0.00  0.00    +0.050 A 
ATOM      8  C14 UNL     1       5.476  -0.346  -0.377  0.00  0.00    +0.166 A 
ATOM      9  C15 UNL     1       5.111   0.748   0.336  0.00  0.00    +0.167 A 
ATOM     10  C16 UNL     1       3.781   1.016   0.649  0.00  0.00    +0.062 A 
ATOM     11  O2  UNL     1       6.235   1.482   0.660  0.00  0.00    -0.453 OA
ATOM     12  C17 UNL     1       7.378   0.806   0.117  0.00  0.00    +0.466 C 
ATOM     13  O3  UNL     1       6.848  -0.355  -0.537  0.00  0.00    -0.453 OA
ENDBRANCH   2   5
BRANCH   3  14
ATOM     14  C2  UNL     1      -1.019  -0.494   0.325  0.00  0.00    +0.037 A 
ATOM     15  C3  UNL     1      -1.534   0.608  -0.377  0.00  0.00    +0.025 A 
ATOM     16  C4  UNL     1      -2.915   0.782  -0.504  0.00  0.00    +0.031 A 
ATOM     17  C5  UNL     1      -3.809  -0.149   0.052  0.00  0.00    +0.083 A 
ATOM     18  C9  UNL     1      -3.290  -1.260   0.745  0.00  0.00    +0.149 A 
ATOM     19  F1  UNL     1      -4.116  -2.159   1.336  0.00  0.00    -0.203 F 
ATOM     20  C10 UNL     1      -1.908  -1.431   0.870  0.00  0.00    +0.063 A 
BRANCH  17  21
ATOM     21  N2  UNL     1      -5.229   0.042  -0.092  0.00  0.00    -0.303 N 
ATOM     22  C6  UNL     1      -5.889   1.214  -0.125  0.00  0.00    +0.112 A 
ATOM     23  C7  UNL     1      -7.227   0.947  -0.301  0.00  0.00    +0.130 A 
ATOM     24  N3  UNL     1      -7.413  -0.386  -0.390  0.00  0.00    -0.244 NA
ATOM     25  C8  UNL     1      -6.175  -0.906  -0.259  0.00  0.00    +0.204 A 
ENDBRANCH  17  21
ENDBRANCH   3  14
TORSDOF 3
