REMARK  Name = /home/qwerty/github/datacon2025hack/step_04_hit_selection/docking/ligands/lig_499.pdb
REMARK  3 active torsions:
REMARK  status: ('A' for Active; 'I' for Inactive)
REMARK    1  A    between atoms: C1_1  and  C2_2
REMARK    2  A    between atoms: C5_5  and  N1_6
REMARK    3  A    between atoms: N2_9  and  C7_10
REMARK                            x       y       z     vdW  Elec       q    Type
REMARK                         _______ _______ _______ _____ _____    ______ ____
ROOT
ATOM      1  N1  UNL     1       1.301   0.769  -0.821  0.00  0.00    -0.269 N 
ATOM      2  C6  UNL     1       0.242  -0.091  -0.373  0.00  0.00    +0.308 C 
ATOM      3  O1  UNL     1       0.508  -1.181   0.204  0.00  0.00    -0.252 OA
ATOM      4  N2  UNL     1      -1.122   0.300  -0.588  0.00  0.00    -0.269 N 
ATOM      5  H6  UNL     1       1.058   1.510  -1.517  0.00  0.00    +0.156 HD
ATOM      6  H7  UNL     1      -1.304   1.299  -0.834  0.00  0.00    +0.156 HD
ENDROOT
BRANCH   4   7
ATOM      7  C7  UNL     1      -2.250  -0.566  -0.377  0.00  0.00    +0.040 A 
ATOM      8  C8  UNL     1      -2.196  -1.947  -0.676  0.00  0.00    +0.024 A 
ATOM      9  C9  UNL     1      -3.324  -2.765  -0.478  0.00  0.00    +0.004 A 
ATOM     10  C10 UNL     1      -4.520  -2.217   0.010  0.00  0.00    +0.023 A 
ATOM     11  C11 UNL     1      -4.557  -0.850   0.279  0.00  0.00    +0.032 A 
ATOM     12  C12 UNL     1      -3.468  -0.046   0.086  0.00  0.00    -0.004 A 
ATOM     13  C13 UNL     1      -3.800   1.360   0.464  0.00  0.00    +0.057 C 
ATOM     14  C14 UNL     1      -5.276   1.273   0.924  0.00  0.00    +0.106 C 
ATOM     15  N3  UNL     1      -5.663  -0.126   0.772  0.00  0.00    -0.343 N 
ATOM     16  H15 UNL     1      -6.601  -0.525   0.998  0.00  0.00    +0.146 HD
ENDBRANCH   4   7
BRANCH   1  21
ATOM     17  C1  UNL     1       6.863   0.217   0.545  0.00  0.00    +0.044 C 
ATOM     18  C2  UNL     1       5.412   0.324   0.183  0.00  0.00    -0.050 A 
ATOM     19  C3  UNL     1       5.031   0.821  -1.072  0.00  0.00    +0.005 A 
ATOM     20  C4  UNL     1       3.677   0.958  -1.395  0.00  0.00    +0.023 A 
ATOM     21  C5  UNL     1       2.685   0.597  -0.471  0.00  0.00    +0.035 A 
ATOM     22  C15 UNL     1       3.069   0.137   0.801  0.00  0.00    +0.023 A 
ATOM     23  C16 UNL     1       4.423   0.002   1.124  0.00  0.00    +0.005 A 
ENDBRANCH   1  21
TORSDOF 2
