REMARK  Name = /home/qwerty/github/datacon2025hack/step_04_hit_selection/docking/ligands/lig_215.pdb
REMARK  6 active torsions:
REMARK  status: ('A' for Active; 'I' for Inactive)
REMARK    1  A    between atoms: C1_1  and  N1_2
REMARK    2  A    between atoms: C3_4  and  N2_5
REMARK    3  A    between atoms: N3_8  and  C5_9
REMARK    4  A    between atoms: C5_9  and  C6_10
REMARK    5  A    between atoms: N4_13  and  C9_14
REMARK    6  A    between atoms: C13_18  and  C14_19
REMARK                            x       y       z     vdW  Elec       q    Type
REMARK                         _______ _______ _______ _____ _____    ______ ____
ROOT
ATOM      1  N2  UNL     1      -1.346   0.077  -0.072  0.00  0.00    -0.267 N 
ATOM      2  C4  UNL     1      -0.008  -0.026  -0.577  0.00  0.00    +0.304 C 
ATOM      3  O1  UNL     1       0.494   0.914  -1.251  0.00  0.00    -0.253 OA
ATOM      4  N3  UNL     1       0.748  -1.223  -0.339  0.00  0.00    -0.299 N 
ATOM      5  H5  UNL     1      -1.801  -0.803   0.252  0.00  0.00    +0.156 HD
ATOM      6  H6  UNL     1       0.318  -1.981   0.238  0.00  0.00    +0.150 HD
ENDROOT
BRANCH   1  10
ATOM      7  C1  UNL     1      -2.568   4.887  -0.019  0.00  0.00    +0.172 C 
ATOM      8  N1  UNL     1      -2.645   3.434   0.025  0.00  0.00    -0.272 N 
ATOM      9  C2  UNL     1      -1.602   2.590  -0.075  0.00  0.00    +0.131 A 
ATOM     10  C3  UNL     1      -2.099   1.301  -0.035  0.00  0.00    +0.076 A 
ATOM     11  C13 UNL     1      -3.479   1.441   0.093  0.00  0.00    +0.087 A 
ATOM     12  N5  UNL     1      -3.779   2.756   0.120  0.00  0.00    -0.174 NA
BRANCH  11  13
ATOM     13  C14 UNL     1      -4.529   0.365   0.227  0.00  0.00    +0.041 C 
ATOM     14  C15 UNL     1      -4.455  -0.317   1.608  0.00  0.00    +0.010 C 
ATOM     15  C16 UNL     1      -5.597  -1.333   1.802  0.00  0.00    +0.001 C 
ATOM     16  C17 UNL     1      -6.011  -2.058   0.503  0.00  0.00    +0.000 C 
ATOM     17  C18 UNL     1      -4.882  -2.076  -0.532  0.00  0.00    +0.001 C 
ATOM     18  C19 UNL     1      -4.490  -0.648  -0.950  0.00  0.00    +0.010 C 
ENDBRANCH  11  13
ENDBRANCH   1  10
BRANCH   4  19
ATOM     19  C5  UNL     1       2.119  -1.412  -0.814  0.00  0.00    +0.110 C 
BRANCH  19  20
ATOM     20  C6  UNL     1       3.110  -1.419   0.367  0.00  0.00    +0.021 C 
ATOM     21  C7  UNL     1       3.226  -0.052   1.036  0.00  0.00    +0.021 C 
ATOM     22  C8  UNL     1       4.479   0.590   0.442  0.00  0.00    +0.085 C 
ATOM     23  N4  UNL     1       5.092  -0.384  -0.473  0.00  0.00    -0.299 NA
ATOM     24  C12 UNL     1       4.530  -1.687  -0.112  0.00  0.00    +0.089 C 
BRANCH  23  25
ATOM     25  C9  UNL     1       6.556  -0.390  -0.353  0.00  0.00    +0.057 C 
ATOM     26  C10 UNL     1       7.233   0.636  -1.246  0.00  0.00    +0.020 C 
ATOM     27  C11 UNL     1       7.258  -0.836  -1.625  0.00  0.00    +0.020 C 
ENDBRANCH  23  25
ENDBRANCH  19  20
ENDBRANCH   4  19
TORSDOF 5
