MODEL 1
REMARK VINA RESULT:    -6.874      0.000      0.000
REMARK INTER + INTRA:         -10.386
REMARK INTER:                  -9.285
REMARK INTRA:                  -1.101
REMARK UNBOUND:                -1.101
REMARK  Name = /home/qwerty/github/datacon2025hack/step_04_hit_selection/docking/ligands/lig_520.pdb
REMARK  8 active torsions:
REMARK  status: ('A' for Active; 'I' for Inactive)
REMARK    1  A    between atoms: C1_1  and  C2_2
REMARK    2  A    between atoms: C2_2  and  C3_3
REMARK    3  A    between atoms: C2_2  and  C4_4
REMARK    4  A    between atoms: C7_7  and  N1_8
REMARK    5  A    between atoms: C10_12  and  S1_13
REMARK    6  A    between atoms: S1_13  and  C11_14
REMARK    7  A    between atoms: C11_14  and  C12_15
REMARK    8  A    between atoms: N3_17  and  C13_18
REMARK                            x       y       z     vdW  Elec       q    Type
REMARK                         _______ _______ _______ _____ _____    ______ ____
ROOT
ATOM      1  C11 UNL     1      21.057   4.855  26.230  0.00  0.00    +0.173 C 
ENDROOT
BRANCH   1   2
ATOM      2  C12 UNL     1      21.106   5.572  24.914  0.00  0.00    +0.228 C 
ATOM      3  O1  UNL     1      20.426   6.625  24.771  0.00  0.00    -0.275 OA
ATOM      4  N3  UNL     1      21.998   5.128  23.875  0.00  0.00    -0.284 N 
ATOM      5  H14 UNL     1      22.661   4.357  24.112  0.00  0.00    +0.155 HD
BRANCH   4   6
ATOM      6  C13 UNL     1      22.124   5.762  22.585  0.00  0.00    +0.056 A 
ATOM      7  C14 UNL     1      23.122   6.729  22.348  0.00  0.00    +0.074 A 
ATOM      8  C15 UNL     1      23.213   7.365  21.106  0.00  0.00    +0.164 A 
ATOM      9  C16 UNL     1      22.296   7.065  20.095  0.00  0.00    +0.164 A 
ATOM     10  C17 UNL     1      21.303   6.106  20.312  0.00  0.00    +0.071 A 
ATOM     11  C18 UNL     1      21.208   5.459  21.552  0.00  0.00    +0.066 A 
ATOM     12 CL1  UNL     1      19.935   4.265  21.775  0.00  0.00    -0.082 Cl
ATOM     13  O2  UNL     1      22.391   7.735  18.869  0.00  0.00    -0.485 OA
ATOM     14  C19 UNL     1      23.222   8.892  18.720  0.00  0.00    +0.270 C 
ATOM     15  C20 UNL     1      24.519   8.723  19.523  0.00  0.00    +0.270 C 
ATOM     16  O3  UNL     1      24.219   8.303  20.857  0.00  0.00    -0.485 OA
ENDBRANCH   4   6
ENDBRANCH   1   2
BRANCH   1  17
ATOM     17  S1  UNL     1      22.243   3.471  26.307  0.00  0.00    -0.078 S 
BRANCH  17  22
ATOM     18  N1  UNL     1      20.456   1.307  26.388  0.00  0.00    -0.295 N 
ATOM     19  C8  UNL     1      19.753   0.589  25.491  0.00  0.00    +0.113 A 
ATOM     20  C9  UNL     1      19.983   1.112  24.238  0.00  0.00    +0.131 A 
ATOM     21  N2  UNL     1      20.832   2.155  24.333  0.00  0.00    -0.230 NA
ATOM     22  C10 UNL     1      21.106   2.242  25.655  0.00  0.00    +0.174 A 
BRANCH  18  26
ATOM     23  C4  UNL     1      20.443   0.703  30.613  0.00  0.00    -0.045 A 
ATOM     24  C5  UNL     1      19.324   1.241  29.962  0.00  0.00    +0.006 A 
ATOM     25  C6  UNL     1      19.335   1.441  28.578  0.00  0.00    +0.026 A 
ATOM     26  C7  UNL     1      20.461   1.100  27.814  0.00  0.00    +0.048 A 
ATOM     27  C21 UNL     1      21.599   0.606  28.471  0.00  0.00    +0.026 A 
ATOM     28  C22 UNL     1      21.590   0.406  29.853  0.00  0.00    +0.006 A 
BRANCH  23  30
ATOM     29  C1  UNL     1      19.087  -0.074  32.572  0.00  0.00    +0.012 C 
ATOM     30  C2  UNL     1      20.425   0.513  32.118  0.00  0.00    +0.013 C 
ATOM     31  C3  UNL     1      20.734   1.820  32.860  0.00  0.00    +0.012 C 
ENDBRANCH  23  30
ENDBRANCH  18  26
ENDBRANCH  17  22
ENDBRANCH   1  17
TORSDOF 6
ENDMDL
MODEL 2
REMARK VINA RESULT:    -6.453      5.505      8.515
REMARK INTER + INTRA:          -9.818
REMARK INTER:                  -8.884
REMARK INTRA:                  -0.933
REMARK UNBOUND:                -1.101
REMARK  Name = /home/qwerty/github/datacon2025hack/step_04_hit_selection/docking/ligands/lig_520.pdb
REMARK  8 active torsions:
REMARK  status: ('A' for Active; 'I' for Inactive)
REMARK    1  A    between atoms: C1_1  and  C2_2
REMARK    2  A    between atoms: C2_2  and  C3_3
REMARK    3  A    between atoms: C2_2  and  C4_4
REMARK    4  A    between atoms: C7_7  and  N1_8
REMARK    5  A    between atoms: C10_12  and  S1_13
REMARK    6  A    between atoms: S1_13  and  C11_14
REMARK    7  A    between atoms: C11_14  and  C12_15
REMARK    8  A    between atoms: N3_17  and  C13_18
REMARK                            x       y       z     vdW  Elec       q    Type
REMARK                         _______ _______ _______ _____ _____    ______ ____
ROOT
ATOM      1  C11 UNL     1      20.790   1.312  29.826  0.00  0.00    +0.173 C 
ENDROOT
BRANCH   1   2
ATOM      2  C12 UNL     1      21.616   2.326  30.561  0.00  0.00    +0.228 C 
ATOM      3  O1  UNL     1      22.836   2.080  30.766  0.00  0.00    -0.275 OA
ATOM      4  N3  UNL     1      21.052   3.600  30.923  0.00  0.00    -0.284 N 
ATOM      5  H14 UNL     1      20.092   3.813  30.574  0.00  0.00    +0.155 HD
BRANCH   4   6
ATOM      6  C13 UNL     1      21.773   4.640  31.616  0.00  0.00    +0.056 A 
ATOM      7  C14 UNL     1      22.207   5.796  30.935  0.00  0.00    +0.074 A 
ATOM      8  C15 UNL     1      22.937   6.781  31.607  0.00  0.00    +0.164 A 
ATOM      9  C16 UNL     1      23.265   6.616  32.956  0.00  0.00    +0.164 A 
ATOM     10  C17 UNL     1      22.839   5.479  33.645  0.00  0.00    +0.071 A 
ATOM     11  C18 UNL     1      22.101   4.488  32.982  0.00  0.00    +0.066 A 
ATOM     12 CL1  UNL     1      21.595   3.072  33.896  0.00  0.00    -0.082 Cl
ATOM     13  O2  UNL     1      24.020   7.605  33.598  0.00  0.00    -0.485 OA
ATOM     14  C19 UNL     1      24.681   8.633  32.853  0.00  0.00    +0.270 C 
ATOM     15  C20 UNL     1      23.806   9.083  31.674  0.00  0.00    +0.270 C 
ATOM     16  O3  UNL     1      23.344   7.943  30.944  0.00  0.00    -0.485 OA
ENDBRANCH   4   6
ENDBRANCH   1   2
BRANCH   1  17
ATOM     17  S1  UNL     1      21.779   0.351  28.630  0.00  0.00    -0.078 S 
BRANCH  17  22
ATOM     18  N1  UNL     1      20.798   1.726  26.388  0.00  0.00    -0.295 N 
ATOM     19  C8  UNL     1      21.197   2.766  25.630  0.00  0.00    +0.113 A 
ATOM     20  C9  UNL     1      22.373   3.258  26.151  0.00  0.00    +0.131 A 
ATOM     21  N2  UNL     1      22.725   2.535  27.232  0.00  0.00    -0.230 NA
ATOM     22  C10 UNL     1      21.749   1.606  27.345  0.00  0.00    +0.174 A 
BRANCH  18  26
ATOM     23  C4  UNL     1      17.248  -0.567  25.796  0.00  0.00    -0.045 A 
ATOM     24  C5  UNL     1      18.362  -0.742  24.963  0.00  0.00    +0.006 A 
ATOM     25  C6  UNL     1      19.521   0.015  25.158  0.00  0.00    +0.026 A 
ATOM     26  C7  UNL     1      19.595   0.957  26.195  0.00  0.00    +0.048 A 
ATOM     27  C21 UNL     1      18.464   1.166  27.000  0.00  0.00    +0.026 A 
ATOM     28  C22 UNL     1      17.305   0.411  26.805  0.00  0.00    +0.006 A 
BRANCH  23  30
ATOM     29  C1  UNL     1      16.316  -2.678  24.816  0.00  0.00    +0.012 C 
ATOM     30  C2  UNL     1      15.989  -1.380  25.558  0.00  0.00    +0.013 C 
ATOM     31  C3  UNL     1      14.923  -0.570  24.806  0.00  0.00    +0.012 C 
ENDBRANCH  23  30
ENDBRANCH  18  26
ENDBRANCH  17  22
ENDBRANCH   1  17
TORSDOF 6
ENDMDL
MODEL 3
REMARK VINA RESULT:    -6.451     13.928     16.733
REMARK INTER + INTRA:          -9.814
REMARK INTER:                  -8.763
REMARK INTRA:                  -1.052
REMARK UNBOUND:                -1.101
REMARK  Name = /home/qwerty/github/datacon2025hack/step_04_hit_selection/docking/ligands/lig_520.pdb
REMARK  8 active torsions:
REMARK  status: ('A' for Active; 'I' for Inactive)
REMARK    1  A    between atoms: C1_1  and  C2_2
REMARK    2  A    between atoms: C2_2  and  C3_3
REMARK    3  A    between atoms: C2_2  and  C4_4
REMARK    4  A    between atoms: C7_7  and  N1_8
REMARK    5  A    between atoms: C10_12  and  S1_13
REMARK    6  A    between atoms: S1_13  and  C11_14
REMARK    7  A    between atoms: C11_14  and  C12_15
REMARK    8  A    between atoms: N3_17  and  C13_18
REMARK                            x       y       z     vdW  Elec       q    Type
REMARK                         _______ _______ _______ _____ _____    ______ ____
ROOT
ATOM      1  C11 UNL     1      10.098  12.906  28.187  0.00  0.00    +0.173 C 
ENDROOT
BRANCH   1   2
ATOM      2  C12 UNL     1      10.300  13.095  29.661  0.00  0.00    +0.228 C 
ATOM      3  O1  UNL     1       9.429  13.731  30.316  0.00  0.00    -0.275 OA
ATOM      4  N3  UNL     1      11.409  12.467  30.331  0.00  0.00    -0.284 N 
ATOM      5  H14 UNL     1      11.997  11.813  29.770  0.00  0.00    +0.155 HD
BRANCH   4   6
ATOM      6  C13 UNL     1      11.674  12.581  31.745  0.00  0.00    +0.056 A 
ATOM      7  C14 UNL     1      11.250  11.580  32.643  0.00  0.00    +0.074 A 
ATOM      8  C15 UNL     1      11.479  11.717  34.016  0.00  0.00    +0.164 A 
ATOM      9  C16 UNL     1      12.110  12.861  34.513  0.00  0.00    +0.164 A 
ATOM     10  C17 UNL     1      12.541  13.859  33.635  0.00  0.00    +0.071 A 
ATOM     11  C18 UNL     1      12.320  13.729  32.256  0.00  0.00    +0.066 A 
ATOM     12 CL1  UNL     1      12.877  15.019  31.197  0.00  0.00    -0.082 Cl
ATOM     13  O2  UNL     1      12.304  12.986  35.893  0.00  0.00    -0.485 OA
ATOM     14  C19 UNL     1      11.644  12.112  36.816  0.00  0.00    +0.270 C 
ATOM     15  C20 UNL     1      11.583  10.687  36.249  0.00  0.00    +0.270 C 
ATOM     16  O3  UNL     1      11.086  10.715  34.908  0.00  0.00    -0.485 OA
ENDBRANCH   4   6
ENDBRANCH   1   2
BRANCH   1  17
ATOM     17  S1  UNL     1       8.334  12.943  27.722  0.00  0.00    -0.078 S 
BRANCH  17  22
ATOM     18  N1  UNL     1       8.153  10.161  27.396  0.00  0.00    -0.295 N 
ATOM     19  C8  UNL     1       7.755   9.115  28.146  0.00  0.00    +0.113 A 
ATOM     20  C9  UNL     1       7.382   9.586  29.385  0.00  0.00    +0.131 A 
ATOM     21  N2  UNL     1       7.537  10.924  29.426  0.00  0.00    -0.230 NA
ATOM     22  C10 UNL     1       8.001  11.243  28.196  0.00  0.00    +0.174 A 
BRANCH  18  26
ATOM     23  C4  UNL     1       9.600   9.942  23.387  0.00  0.00    -0.045 A 
ATOM     24  C5  UNL     1       8.226   9.869  23.659  0.00  0.00    +0.006 A 
ATOM     25  C6  UNL     1       7.757   9.937  24.974  0.00  0.00    +0.026 A 
ATOM     26  C7  UNL     1       8.651  10.087  26.046  0.00  0.00    +0.048 A 
ATOM     27  C21 UNL     1      10.029  10.113  25.778  0.00  0.00    +0.026 A 
ATOM     28  C22 UNL     1      10.498  10.045  24.465  0.00  0.00    +0.006 A 
BRANCH  23  30
ATOM     29  C1  UNL     1      11.513  10.406  21.835  0.00  0.00    +0.012 C 
ATOM     30  C2  UNL     1      10.095   9.844  21.956  0.00  0.00    +0.013 C 
ATOM     31  C3  UNL     1       9.141  10.539  20.975  0.00  0.00    +0.012 C 
ENDBRANCH  23  30
ENDBRANCH  18  26
ENDBRANCH  17  22
ENDBRANCH   1  17
TORSDOF 6
ENDMDL
MODEL 4
REMARK VINA RESULT:    -6.432     14.374     16.078
REMARK INTER + INTRA:          -9.789
REMARK INTER:                  -8.844
REMARK INTRA:                  -0.945
REMARK UNBOUND:                -1.101
REMARK  Name = /home/qwerty/github/datacon2025hack/step_04_hit_selection/docking/ligands/lig_520.pdb
REMARK  8 active torsions:
REMARK  status: ('A' for Active; 'I' for Inactive)
REMARK    1  A    between atoms: C1_1  and  C2_2
REMARK    2  A    between atoms: C2_2  and  C3_3
REMARK    3  A    between atoms: C2_2  and  C4_4
REMARK    4  A    between atoms: C7_7  and  N1_8
REMARK    5  A    between atoms: C10_12  and  S1_13
REMARK    6  A    between atoms: S1_13  and  C11_14
REMARK    7  A    between atoms: C11_14  and  C12_15
REMARK    8  A    between atoms: N3_17  and  C13_18
REMARK                            x       y       z     vdW  Elec       q    Type
REMARK                         _______ _______ _______ _____ _____    ______ ____
ROOT
ATOM      1  C11 UNL     1       8.290  12.062  27.805  0.00  0.00    +0.173 C 
ENDROOT
BRANCH   1   2
ATOM      2  C12 UNL     1       8.446  10.580  27.977  0.00  0.00    +0.228 C 
ATOM      3  O1  UNL     1       9.604  10.107  28.142  0.00  0.00    -0.275 OA
ATOM      4  N3  UNL     1       7.288   9.730  28.065  0.00  0.00    -0.284 N 
ATOM      5  H14 UNL     1       6.355  10.198  28.096  0.00  0.00    +0.155 HD
BRANCH   4   6
ATOM      6  C13 UNL     1       7.340   8.300  28.245  0.00  0.00    +0.056 A 
ATOM      7  C14 UNL     1       7.502   7.437  27.142  0.00  0.00    +0.074 A 
ATOM      8  C15 UNL     1       7.514   6.051  27.322  0.00  0.00    +0.164 A 
ATOM      9  C16 UNL     1       7.340   5.507  28.598  0.00  0.00    +0.164 A 
ATOM     10  C17 UNL     1       7.182   6.348  29.702  0.00  0.00    +0.071 A 
ATOM     11  C18 UNL     1       7.175   7.740  29.532  0.00  0.00    +0.066 A 
ATOM     12 CL1  UNL     1       6.966   8.754  30.955  0.00  0.00    -0.082 Cl
ATOM     13  O2  UNL     1       7.330   4.115  28.749  0.00  0.00    -0.485 OA
ATOM     14  C19 UNL     1       7.225   3.248  27.614  0.00  0.00    +0.270 C 
ATOM     15  C20 UNL     1       8.030   3.813  26.435  0.00  0.00    +0.270 C 
ATOM     16  O3  UNL     1       7.704   5.192  26.236  0.00  0.00    -0.485 OA
ENDBRANCH   4   6
ENDBRANCH   1   2
BRANCH   1  17
ATOM     17  S1  UNL     1       8.490  12.964  29.379  0.00  0.00    -0.078 S 
BRANCH  17  22
ATOM     18  N1  UNL     1      11.149  13.746  29.825  0.00  0.00    -0.295 N 
ATOM     19  C8  UNL     1      12.120  14.351  29.113  0.00  0.00    +0.113 A 
ATOM     20  C9  UNL     1      11.642  14.597  27.846  0.00  0.00    +0.131 A 
ATOM     21  N2  UNL     1      10.371  14.156  27.749  0.00  0.00    -0.230 NA
ATOM     22  C10 UNL     1      10.100  13.650  28.974  0.00  0.00    +0.174 A 
BRANCH  18  26
ATOM     23  C4  UNL     1      11.481  12.433  33.872  0.00  0.00    -0.045 A 
ATOM     24  C5  UNL     1      11.427  13.801  33.563  0.00  0.00    +0.006 A 
ATOM     25  C6  UNL     1      11.323  14.225  32.235  0.00  0.00    +0.026 A 
ATOM     26  C7  UNL     1      11.262  13.293  31.188  0.00  0.00    +0.048 A 
ATOM     27  C21 UNL     1      11.364  11.927  31.493  0.00  0.00    +0.026 A 
ATOM     28  C22 UNL     1      11.468  11.501  32.818  0.00  0.00    +0.006 A 
BRANCH  23  30
ATOM     29  C1  UNL     1      11.246  10.510  35.463  0.00  0.00    +0.012 C 
ATOM     30  C2  UNL     1      11.617  11.988  35.316  0.00  0.00    +0.013 C 
ATOM     31  C3  UNL     1      10.784  12.862  36.263  0.00  0.00    +0.012 C 
ENDBRANCH  23  30
ENDBRANCH  18  26
ENDBRANCH  17  22
ENDBRANCH   1  17
TORSDOF 6
ENDMDL
MODEL 5
REMARK VINA RESULT:    -6.415     12.146     15.422
REMARK INTER + INTRA:          -9.766
REMARK INTER:                  -8.944
REMARK INTRA:                  -0.823
REMARK UNBOUND:                -1.101
REMARK  Name = /home/qwerty/github/datacon2025hack/step_04_hit_selection/docking/ligands/lig_520.pdb
REMARK  8 active torsions:
REMARK  status: ('A' for Active; 'I' for Inactive)
REMARK    1  A    between atoms: C1_1  and  C2_2
REMARK    2  A    between atoms: C2_2  and  C3_3
REMARK    3  A    between atoms: C2_2  and  C4_4
REMARK    4  A    between atoms: C7_7  and  N1_8
REMARK    5  A    between atoms: C10_12  and  S1_13
REMARK    6  A    between atoms: S1_13  and  C11_14
REMARK    7  A    between atoms: C11_14  and  C12_15
REMARK    8  A    between atoms: N3_17  and  C13_18
REMARK                            x       y       z     vdW  Elec       q    Type
REMARK                         _______ _______ _______ _____ _____    ______ ____
ROOT
ATOM      1  C11 UNL     1      16.924  15.999  29.108  0.00  0.00    +0.173 C 
ENDROOT
BRANCH   1   2
ATOM      2  C12 UNL     1      15.695  15.139  29.078  0.00  0.00    +0.228 C 
ATOM      3  O1  UNL     1      15.774  13.986  28.573  0.00  0.00    -0.275 OA
ATOM      4  N3  UNL     1      14.481  15.581  29.714  0.00  0.00    -0.284 N 
ATOM      5  H14 UNL     1      14.526  16.466  30.265  0.00  0.00    +0.155 HD
BRANCH   4   6
ATOM      6  C13 UNL     1      13.258  14.817  29.750  0.00  0.00    +0.056 A 
ATOM      7  C14 UNL     1      12.302  14.933  28.720  0.00  0.00    +0.074 A 
ATOM      8  C15 UNL     1      11.103  14.217  28.781  0.00  0.00    +0.164 A 
ATOM      9  C16 UNL     1      10.830  13.397  29.880  0.00  0.00    +0.164 A 
ATOM     10  C17 UNL     1      11.768  13.268  30.907  0.00  0.00    +0.071 A 
ATOM     11  C18 UNL     1      12.976  13.978  30.851  0.00  0.00    +0.066 A 
ATOM     12 CL1  UNL     1      14.120  13.784  32.175  0.00  0.00    -0.082 Cl
ATOM     13  O2  UNL     1       9.611  12.711  29.931  0.00  0.00    -0.485 OA
ATOM     14  C19 UNL     1       8.542  13.032  29.033  0.00  0.00    +0.270 C 
ATOM     15  C20 UNL     1       9.098  13.360  27.640  0.00  0.00    +0.270 C 
ATOM     16  O3  UNL     1      10.165  14.306  27.749  0.00  0.00    -0.485 OA
ENDBRANCH   4   6
ENDBRANCH   1   2
BRANCH   1  17
ATOM     17  S1  UNL     1      18.421  15.081  28.612  0.00  0.00    -0.078 S 
BRANCH  17  22
ATOM     18  N1  UNL     1      20.859  16.208  29.429  0.00  0.00    -0.295 N 
ATOM     19  C8  UNL     1      21.301  16.913  30.488  0.00  0.00    +0.113 A 
ATOM     20  C9  UNL     1      20.240  17.134  31.337  0.00  0.00    +0.131 A 
ATOM     21  N2  UNL     1      19.127  16.569  30.827  0.00  0.00    -0.230 NA
ATOM     22  C10 UNL     1      19.541  16.008  29.668  0.00  0.00    +0.174 A 
BRANCH  18  26
ATOM     23  C4  UNL     1      23.207  15.030  26.066  0.00  0.00    -0.045 A 
ATOM     24  C5  UNL     1      22.581  16.285  26.100  0.00  0.00    +0.006 A 
ATOM     25  C6  UNL     1      21.809  16.664  27.202  0.00  0.00    +0.026 A 
ATOM     26  C7  UNL     1      21.653  15.801  28.297  0.00  0.00    +0.048 A 
ATOM     27  C21 UNL     1      22.240  14.527  28.244  0.00  0.00    +0.026 A 
ATOM     28  C22 UNL     1      23.010  14.147  27.143  0.00  0.00    +0.006 A 
BRANCH  23  30
ATOM     29  C1  UNL     1      24.532  15.857  24.105  0.00  0.00    +0.012 C 
ATOM     30  C2  UNL     1      24.023  14.623  24.853  0.00  0.00    +0.013 C 
ATOM     31  C3  UNL     1      23.230  13.700  23.917  0.00  0.00    +0.012 C 
ENDBRANCH  23  30
ENDBRANCH  18  26
ENDBRANCH  17  22
ENDBRANCH   1  17
TORSDOF 6
ENDMDL
MODEL 6
REMARK VINA RESULT:    -6.382     11.512     14.738
REMARK INTER + INTRA:          -9.721
REMARK INTER:                  -8.878
REMARK INTRA:                  -0.843
REMARK UNBOUND:                -1.101
REMARK  Name = /home/qwerty/github/datacon2025hack/step_04_hit_selection/docking/ligands/lig_520.pdb
REMARK  8 active torsions:
REMARK  status: ('A' for Active; 'I' for Inactive)
REMARK    1  A    between atoms: C1_1  and  C2_2
REMARK    2  A    between atoms: C2_2  and  C3_3
REMARK    3  A    between atoms: C2_2  and  C4_4
REMARK    4  A    between atoms: C7_7  and  N1_8
REMARK    5  A    between atoms: C10_12  and  S1_13
REMARK    6  A    between atoms: S1_13  and  C11_14
REMARK    7  A    between atoms: C11_14  and  C12_15
REMARK    8  A    between atoms: N3_17  and  C13_18
REMARK                            x       y       z     vdW  Elec       q    Type
REMARK                         _______ _______ _______ _____ _____    ______ ____
ROOT
ATOM      1  C11 UNL     1      18.005  10.255  38.016  0.00  0.00    +0.173 C 
ENDROOT
BRANCH   1   2
ATOM      2  C12 UNL     1      16.933  10.821  37.133  0.00  0.00    +0.228 C 
ATOM      3  O1  UNL     1      16.499  10.118  36.180  0.00  0.00    -0.275 OA
ATOM      4  N3  UNL     1      16.335  12.095  37.436  0.00  0.00    -0.284 N 
ATOM      5  H14 UNL     1      16.613  12.550  38.334  0.00  0.00    +0.155 HD
BRANCH   4   6
ATOM      6  C13 UNL     1      15.290  12.710  36.655  0.00  0.00    +0.056 A 
ATOM      7  C14 UNL     1      13.932  12.504  36.972  0.00  0.00    +0.074 A 
ATOM      8  C15 UNL     1      12.926  13.074  36.186  0.00  0.00    +0.164 A 
ATOM      9  C16 UNL     1      13.259  13.835  35.062  0.00  0.00    +0.164 A 
ATOM     10  C17 UNL     1      14.600  14.052  34.736  0.00  0.00    +0.071 A 
ATOM     11  C18 UNL     1      15.616  13.489  35.521  0.00  0.00    +0.066 A 
ATOM     12 CL1  UNL     1      17.288  13.789  35.063  0.00  0.00    -0.082 Cl
ATOM     13  O2  UNL     1      12.233  14.373  34.276  0.00  0.00    -0.485 OA
ATOM     14  C19 UNL     1      10.875  13.947  34.438  0.00  0.00    +0.270 C 
ATOM     15  C20 UNL     1      10.564  13.714  35.923  0.00  0.00    +0.270 C 
ATOM     16  O3  UNL     1      11.579  12.897  36.514  0.00  0.00    -0.485 OA
ENDBRANCH   4   6
ENDBRANCH   1   2
BRANCH   1  17
ATOM     17  S1  UNL     1      19.462   9.703  37.066  0.00  0.00    -0.078 S 
BRANCH  17  22
ATOM     18  N1  UNL     1      19.856   6.947  36.705  0.00  0.00    -0.295 N 
ATOM     19  C8  UNL     1      19.212   5.816  37.056  0.00  0.00    +0.113 A 
ATOM     20  C9  UNL     1      18.108   6.157  37.804  0.00  0.00    +0.131 A 
ATOM     21  N2  UNL     1      18.043   7.498  37.927  0.00  0.00    -0.230 NA
ATOM     22  C10 UNL     1      19.117   7.948  37.241  0.00  0.00    +0.174 A 
BRANCH  18  26
ATOM     23  C4  UNL     1      23.490   7.151  34.477  0.00  0.00    -0.045 A 
ATOM     24  C5  UNL     1      23.491   6.730  35.815  0.00  0.00    +0.006 A 
ATOM     25  C6  UNL     1      22.298   6.669  36.542  0.00  0.00    +0.026 A 
ATOM     26  C7  UNL     1      21.078   7.020  35.946  0.00  0.00    +0.048 A 
ATOM     27  C21 UNL     1      21.082   7.487  34.622  0.00  0.00    +0.026 A 
ATOM     28  C22 UNL     1      22.272   7.549  33.895  0.00  0.00    +0.006 A 
BRANCH  23  30
ATOM     29  C1  UNL     1      24.729   8.338  32.650  0.00  0.00    +0.012 C 
ATOM     30  C2  UNL     1      24.795   7.235  33.708  0.00  0.00    +0.013 C 
ATOM     31  C3  UNL     1      25.171   5.887  33.077  0.00  0.00    +0.012 C 
ENDBRANCH  23  30
ENDBRANCH  18  26
ENDBRANCH  17  22
ENDBRANCH   1  17
TORSDOF 6
ENDMDL
MODEL 7
REMARK VINA RESULT:    -6.350     13.492     14.637
REMARK INTER + INTRA:          -9.677
REMARK INTER:                  -8.680
REMARK INTRA:                  -0.998
REMARK UNBOUND:                -1.101
REMARK  Name = /home/qwerty/github/datacon2025hack/step_04_hit_selection/docking/ligands/lig_520.pdb
REMARK  8 active torsions:
REMARK  status: ('A' for Active; 'I' for Inactive)
REMARK    1  A    between atoms: C1_1  and  C2_2
REMARK    2  A    between atoms: C2_2  and  C3_3
REMARK    3  A    between atoms: C2_2  and  C4_4
REMARK    4  A    between atoms: C7_7  and  N1_8
REMARK    5  A    between atoms: C10_12  and  S1_13
REMARK    6  A    between atoms: S1_13  and  C11_14
REMARK    7  A    between atoms: C11_14  and  C12_15
REMARK    8  A    between atoms: N3_17  and  C13_18
REMARK                            x       y       z     vdW  Elec       q    Type
REMARK                         _______ _______ _______ _____ _____    ______ ____
ROOT
ATOM      1  C11 UNL     1       9.183  11.486  29.198  0.00  0.00    +0.173 C 
ENDROOT
BRANCH   1   2
ATOM      2  C12 UNL     1       8.991  11.241  27.731  0.00  0.00    +0.228 C 
ATOM      3  O1  UNL     1       8.242  12.019  27.079  0.00  0.00    -0.275 OA
ATOM      4  N3  UNL     1       9.736  10.207  27.062  0.00  0.00    -0.284 N 
ATOM      5  H14 UNL     1      10.468   9.711  27.617  0.00  0.00    +0.155 HD
BRANCH   4   6
ATOM      6  C13 UNL     1       9.629   9.909  25.654  0.00  0.00    +0.056 A 
ATOM      7  C14 UNL     1      10.577  10.404  24.735  0.00  0.00    +0.074 A 
ATOM      8  C15 UNL     1      10.444  10.140  23.369  0.00  0.00    +0.164 A 
ATOM      9  C16 UNL     1       9.353   9.403  22.898  0.00  0.00    +0.164 A 
ATOM     10  C17 UNL     1       8.408   8.901  23.796  0.00  0.00    +0.071 A 
ATOM     11  C18 UNL     1       8.536   9.156  25.169  0.00  0.00    +0.066 A 
ATOM     12 CL1  UNL     1       7.313   8.506  26.255  0.00  0.00    -0.082 Cl
ATOM     13  O2  UNL     1       9.229   9.175  21.522  0.00  0.00    -0.485 OA
ATOM     14  C19 UNL     1      10.029   9.894  20.577  0.00  0.00    +0.270 C 
ATOM     15  C20 UNL     1      11.451  10.090  21.123  0.00  0.00    +0.270 C 
ATOM     16  O3  UNL     1      11.396  10.604  22.457  0.00  0.00    -0.485 OA
ENDBRANCH   4   6
ENDBRANCH   1   2
BRANCH   1  17
ATOM     17  S1  UNL     1       8.792  13.206  29.667  0.00  0.00    -0.078 S 
BRANCH  17  22
ATOM     18  N1  UNL     1      11.429  13.879  30.354  0.00  0.00    -0.295 N 
ATOM     19  C8  UNL     1      12.483  14.449  29.736  0.00  0.00    +0.113 A 
ATOM     20  C9  UNL     1      12.129  14.721  28.434  0.00  0.00    +0.131 A 
ATOM     21  N2  UNL     1      10.856  14.331  28.221  0.00  0.00    -0.230 NA
ATOM     22  C10 UNL     1      10.457  13.830  29.412  0.00  0.00    +0.174 A 
BRANCH  18  26
ATOM     23  C4  UNL     1      11.357  12.478  34.384  0.00  0.00    -0.045 A 
ATOM     24  C5  UNL     1      11.526  11.584  33.317  0.00  0.00    +0.006 A 
ATOM     25  C6  UNL     1      11.544  12.048  31.998  0.00  0.00    +0.026 A 
ATOM     26  C7  UNL     1      11.403  13.415  31.718  0.00  0.00    +0.048 A 
ATOM     27  C21 UNL     1      11.186  14.305  32.782  0.00  0.00    +0.026 A 
ATOM     28  C22 UNL     1      11.167  13.843  34.099  0.00  0.00    +0.006 A 
BRANCH  23  30
ATOM     29  C1  UNL     1      12.516  12.472  36.607  0.00  0.00    +0.012 C 
ATOM     30  C2  UNL     1      11.315  11.958  35.809  0.00  0.00    +0.013 C 
ATOM     31  C3  UNL     1      11.239  10.425  35.853  0.00  0.00    +0.012 C 
ENDBRANCH  23  30
ENDBRANCH  18  26
ENDBRANCH  17  22
ENDBRANCH   1  17
TORSDOF 6
ENDMDL
MODEL 8
REMARK VINA RESULT:    -6.294      3.870      7.818
REMARK INTER + INTRA:          -9.603
REMARK INTER:                  -8.233
REMARK INTRA:                  -1.370
REMARK UNBOUND:                -1.101
REMARK  Name = /home/qwerty/github/datacon2025hack/step_04_hit_selection/docking/ligands/lig_520.pdb
REMARK  8 active torsions:
REMARK  status: ('A' for Active; 'I' for Inactive)
REMARK    1  A    between atoms: C1_1  and  C2_2
REMARK    2  A    between atoms: C2_2  and  C3_3
REMARK    3  A    between atoms: C2_2  and  C4_4
REMARK    4  A    between atoms: C7_7  and  N1_8
REMARK    5  A    between atoms: C10_12  and  S1_13
REMARK    6  A    between atoms: S1_13  and  C11_14
REMARK    7  A    between atoms: C11_14  and  C12_15
REMARK    8  A    between atoms: N3_17  and  C13_18
REMARK                            x       y       z     vdW  Elec       q    Type
REMARK                         _______ _______ _______ _____ _____    ______ ____
ROOT
ATOM      1  C11 UNL     1      19.803   1.111  27.566  0.00  0.00    +0.173 C 
ENDROOT
BRANCH   1   2
ATOM      2  C12 UNL     1      19.394   0.932  26.134  0.00  0.00    +0.228 C 
ATOM      3  O1  UNL     1      20.276   1.021  25.236  0.00  0.00    -0.275 OA
ATOM      4  N3  UNL     1      18.045   0.555  25.803  0.00  0.00    -0.284 N 
ATOM      5  H14 UNL     1      17.405   0.326  26.596  0.00  0.00    +0.155 HD
BRANCH   4   6
ATOM      6  C13 UNL     1      17.566   0.345  24.458  0.00  0.00    +0.056 A 
ATOM      7  C14 UNL     1      17.169   1.433  23.653  0.00  0.00    +0.074 A 
ATOM      8  C15 UNL     1      16.671   1.217  22.365  0.00  0.00    +0.164 A 
ATOM      9  C16 UNL     1      16.539  -0.085  21.872  0.00  0.00    +0.164 A 
ATOM     10  C17 UNL     1      16.931  -1.173  22.655  0.00  0.00    +0.071 A 
ATOM     11  C18 UNL     1      17.437  -0.966  23.946  0.00  0.00    +0.066 A 
ATOM     12 CL1  UNL     1      17.910  -2.372  24.892  0.00  0.00    -0.082 Cl
ATOM     13  O2  UNL     1      16.013  -0.276  20.588  0.00  0.00    -0.485 OA
ATOM     14  C19 UNL     1      15.368   0.793  19.886  0.00  0.00    +0.270 C 
ATOM     15  C20 UNL     1      16.096   2.119  20.148  0.00  0.00    +0.270 C 
ATOM     16  O3  UNL     1      16.304   2.293  21.552  0.00  0.00    -0.485 OA
ENDBRANCH   4   6
ENDBRANCH   1   2
BRANCH   1  17
ATOM     17  S1  UNL     1      21.601   1.363  27.744  0.00  0.00    -0.078 S 
BRANCH  17  22
ATOM     18  N1  UNL     1      21.373   4.143  28.060  0.00  0.00    -0.295 N 
ATOM     19  C8  UNL     1      21.330   5.006  29.093  0.00  0.00    +0.113 A 
ATOM     20  C9  UNL     1      21.384   4.286  30.265  0.00  0.00    +0.131 A 
ATOM     21  N2  UNL     1      21.465   2.970  29.983  0.00  0.00    -0.230 NA
ATOM     22  C10 UNL     1      21.464   2.918  28.632  0.00  0.00    +0.174 A 
BRANCH  18  26
ATOM     23  C4  UNL     1      21.206   5.188  23.926  0.00  0.00    -0.045 A 
ATOM     24  C5  UNL     1      22.432   5.146  24.606  0.00  0.00    +0.006 A 
ATOM     25  C6  UNL     1      22.481   4.807  25.962  0.00  0.00    +0.026 A 
ATOM     26  C7  UNL     1      21.307   4.495  26.665  0.00  0.00    +0.048 A 
ATOM     27  C21 UNL     1      20.075   4.584  25.997  0.00  0.00    +0.026 A 
ATOM     28  C22 UNL     1      20.025   4.923  24.643  0.00  0.00    +0.006 A 
BRANCH  23  30
ATOM     29  C1  UNL     1      20.826   4.371  21.587  0.00  0.00    +0.012 C 
ATOM     30  C2  UNL     1      21.167   5.580  22.461  0.00  0.00    +0.013 C 
ATOM     31  C3  UNL     1      22.480   6.234  22.010  0.00  0.00    +0.012 C 
ENDBRANCH  23  30
ENDBRANCH  18  26
ENDBRANCH  17  22
ENDBRANCH   1  17
TORSDOF 6
ENDMDL
MODEL 9
REMARK VINA RESULT:    -6.264     12.883     14.708
REMARK INTER + INTRA:          -9.562
REMARK INTER:                  -8.358
REMARK INTRA:                  -1.204
REMARK UNBOUND:                -1.101
REMARK  Name = /home/qwerty/github/datacon2025hack/step_04_hit_selection/docking/ligands/lig_520.pdb
REMARK  8 active torsions:
REMARK  status: ('A' for Active; 'I' for Inactive)
REMARK    1  A    between atoms: C1_1  and  C2_2
REMARK    2  A    between atoms: C2_2  and  C3_3
REMARK    3  A    between atoms: C2_2  and  C4_4
REMARK    4  A    between atoms: C7_7  and  N1_8
REMARK    5  A    between atoms: C10_12  and  S1_13
REMARK    6  A    between atoms: S1_13  and  C11_14
REMARK    7  A    between atoms: C11_14  and  C12_15
REMARK    8  A    between atoms: N3_17  and  C13_18
REMARK                            x       y       z     vdW  Elec       q    Type
REMARK                         _______ _______ _______ _____ _____    ______ ____
ROOT
ATOM      1  C11 UNL     1       9.008  13.505  29.380  0.00  0.00    +0.173 C 
ENDROOT
BRANCH   1   2
ATOM      2  C12 UNL     1      10.505  13.589  29.361  0.00  0.00    +0.228 C 
ATOM      3  O1  UNL     1      11.122  13.669  30.459  0.00  0.00    -0.275 OA
ATOM      4  N3  UNL     1      11.226  13.466  28.121  0.00  0.00    -0.284 N 
ATOM      5  H14 UNL     1      10.672  13.227  27.269  0.00  0.00    +0.155 HD
BRANCH   4   6
ATOM      6  C13 UNL     1      12.663  13.519  28.007  0.00  0.00    +0.056 A 
ATOM      7  C14 UNL     1      13.328  14.744  27.791  0.00  0.00    +0.074 A 
ATOM      8  C15 UNL     1      14.718  14.780  27.646  0.00  0.00    +0.164 A 
ATOM      9  C16 UNL     1      15.460  13.596  27.688  0.00  0.00    +0.164 A 
ATOM     10  C17 UNL     1      14.817  12.375  27.906  0.00  0.00    +0.071 A 
ATOM     11  C18 UNL     1      13.424  12.329  28.059  0.00  0.00    +0.066 A 
ATOM     12 CL1  UNL     1      12.665  10.764  28.323  0.00  0.00    -0.082 Cl
ATOM     13  O2  UNL     1      16.848  13.656  27.513  0.00  0.00    -0.485 OA
ATOM     14  C19 UNL     1      17.482  14.847  27.032  0.00  0.00    +0.270 C 
ATOM     15  C20 UNL     1      16.802  16.089  27.623  0.00  0.00    +0.270 C 
ATOM     16  O3  UNL     1      15.384  15.995  27.461  0.00  0.00    -0.485 OA
ENDBRANCH   4   6
ENDBRANCH   1   2
BRANCH   1  17
ATOM     17  S1  UNL     1       8.324  12.987  27.770  0.00  0.00    -0.078 S 
BRANCH  17  22
ATOM     18  N1  UNL     1       8.056  10.206  27.489  0.00  0.00    -0.295 N 
ATOM     19  C8  UNL     1       7.652   9.182  28.267  0.00  0.00    +0.113 A 
ATOM     20  C9  UNL     1       7.332   9.680  29.510  0.00  0.00    +0.131 A 
ATOM     21  N2  UNL     1       7.526  11.014  29.526  0.00  0.00    -0.230 NA
ATOM     22  C10 UNL     1       7.959  11.303  28.279  0.00  0.00    +0.174 A 
BRANCH  18  26
ATOM     23  C4  UNL     1       9.424   9.894  23.459  0.00  0.00    -0.045 A 
ATOM     24  C5  UNL     1      10.334  10.041  24.516  0.00  0.00    +0.006 A 
ATOM     25  C6  UNL     1       9.881  10.148  25.834  0.00  0.00    +0.026 A 
ATOM     26  C7  UNL     1       8.509  10.101  26.126  0.00  0.00    +0.048 A 
ATOM     27  C21 UNL     1       7.595  10.001  25.064  0.00  0.00    +0.026 A 
ATOM     28  C22 UNL     1       8.047   9.895  23.747  0.00  0.00    +0.006 A 
BRANCH  23  30
ATOM     29  C1  UNL     1      11.330  10.411  21.915  0.00  0.00    +0.012 C 
ATOM     30  C2  UNL     1       9.930   9.803  22.032  0.00  0.00    +0.013 C 
ATOM     31  C3  UNL     1       8.960  10.460  21.040  0.00  0.00    +0.012 C 
ENDBRANCH  23  30
ENDBRANCH  18  26
ENDBRANCH  17  22
ENDBRANCH   1  17
TORSDOF 6
ENDMDL
