REMARK  Name = /home/qwerty/github/datacon2025hack/step_04_hit_selection/docking/ligands/lig_369.pdb
REMARK  6 active torsions:
REMARK  status: ('A' for Active; 'I' for Inactive)
REMARK    1  A    between atoms: C1_2  and  C12_15
REMARK    2  A    between atoms: N1_3  and  C2_4
REMARK    3  A    between atoms: C6_8  and  C7_9
REMARK    4  A    between atoms: C7_9  and  N2_10
REMARK    5  A    between atoms: N2_10  and  C8_11
REMARK    6  A    between atoms: C8_11  and  C9_12
REMARK                            x       y       z     vdW  Elec       q    Type
REMARK                         _______ _______ _______ _____ _____    ______ ____
ROOT
ATOM      1  O1  UNL     1       0.912   1.257   1.141  0.00  0.00    -0.270 OA
ATOM      2  C1  UNL     1       1.701   0.796   0.271  0.00  0.00    +0.244 C 
ATOM      3  N1  UNL     1       1.218   0.531  -1.056  0.00  0.00    -0.308 N 
ATOM      4  H1  UNL     1       1.784  -0.081  -1.686  0.00  0.00    +0.149 HD
ENDROOT
BRANCH   2   5
ATOM      5  C12 UNL     1       3.109   0.518   0.642  0.00  0.00    +0.037 A 
ATOM      6  C13 UNL     1       4.131   0.480  -0.345  0.00  0.00    +0.014 A 
ATOM      7  C14 UNL     1       5.466   0.221   0.010  0.00  0.00    +0.014 A 
ATOM      8  C15 UNL     1       5.759   0.009   1.353  0.00  0.00    +0.049 A 
ATOM      9  C16 UNL     1       4.780   0.054   2.319  0.00  0.00    +0.050 A 
ATOM     10  C17 UNL     1       3.449   0.309   2.000  0.00  0.00    +0.027 A 
ATOM     11  C18 UNL     1       5.420  -0.200   3.605  0.00  0.00    +0.251 C 
ATOM     12  O2  UNL     1       4.840  -0.237   4.722  0.00  0.00    -0.270 OA
ATOM     13  N3  UNL     1       6.821  -0.404   3.428  0.00  0.00    -0.248 N 
ATOM     14  C19 UNL     1       7.024  -0.272   2.022  0.00  0.00    +0.251 C 
ATOM     15  O3  UNL     1       8.145  -0.383   1.460  0.00  0.00    -0.270 OA
ATOM     16  H23 UNL     1       7.536  -0.604   4.161  0.00  0.00    +0.158 HD
ENDBRANCH   2   5
BRANCH   3  17
ATOM     17  C2  UNL     1      -0.144   0.891  -1.470  0.00  0.00    +0.078 C 
ATOM     18  C3  UNL     1      -0.223   1.017  -2.990  0.00  0.00    +0.022 C 
ATOM     19  C4  UNL     1      -0.657  -0.347  -3.520  0.00  0.00    +0.002 C 
ATOM     20  C5  UNL     1      -1.079  -1.184  -2.314  0.00  0.00    +0.006 C 
ATOM     21  C6  UNL     1      -1.118  -0.238  -1.109  0.00  0.00    +0.023 C 
BRANCH  21  22
ATOM     22  C7  UNL     1      -2.538   0.309  -0.855  0.00  0.00    +0.086 C 
BRANCH  22  23
ATOM     23  N2  UNL     1      -3.432  -0.778  -0.429  0.00  0.00    -0.315 NA
ATOM     24  H12 UNL     1      -3.161  -1.084   0.536  0.00  0.00    +0.122 HD
BRANCH  23  25
ATOM     25  C8  UNL     1      -4.843  -0.364  -0.421  0.00  0.00    +0.084 C 
BRANCH  25  26
ATOM     26  C9  UNL     1      -5.145   0.627   0.718  0.00  0.00    +0.003 C 
ATOM     27  C10 UNL     1      -6.574   0.592   1.240  0.00  0.00    +0.005 C 
ATOM     28  C11 UNL     1      -5.445   0.001   2.071  0.00  0.00    +0.005 C 
ENDBRANCH  25  26
ENDBRANCH  23  25
ENDBRANCH  22  23
ENDBRANCH  21  22
ENDBRANCH   3  17
TORSDOF 6
