MODEL 1
REMARK VINA RESULT:    -5.948      0.000      0.000
REMARK INTER + INTRA:          -7.420
REMARK INTER:                  -6.991
REMARK INTRA:                  -0.429
REMARK UNBOUND:                -0.429
REMARK  Name = /home/qwerty/github/datacon2025hack/step_04_hit_selection/docking/ligands/lig_126.pdb
REMARK  6 active torsions:
REMARK  status: ('A' for Active; 'I' for Inactive)
REMARK    1  A    between atoms: C1_1  and  O1_2
REMARK    2  A    between atoms: O1_2  and  C2_3
REMARK    3  A    between atoms: C7_10  and  N1_11
REMARK    4  A    between atoms: C8_12  and  C9_14
REMARK    5  A    between atoms: C11_16  and  C12_17
REMARK    6  A    between atoms: C13_18  and  C14_19
REMARK                            x       y       z     vdW  Elec       q    Type
REMARK                         _______ _______ _______ _____ _____    ______ ____
ROOT
ATOM      1  N1  UNL     1       9.026  10.004  25.871  0.00  0.00    -0.277 N 
ATOM      2  C8  UNL     1       8.290   9.960  24.637  0.00  0.00    +0.267 C 
ATOM      3  O2  UNL     1       7.030   9.903  24.660  0.00  0.00    -0.268 OA
ATOM      4  H6  UNL     1      10.001  10.381  25.857  0.00  0.00    +0.155 HD
ENDROOT
BRANCH   1  12
ATOM      5  C2  UNL     1       8.055  10.826  28.002  0.00  0.00    +0.144 A 
ATOM      6  C3  UNL     1       7.469  10.538  29.251  0.00  0.00    +0.087 A 
ATOM      7  C4  UNL     1       7.227   9.214  29.631  0.00  0.00    +0.141 A 
ATOM      8  F1  UNL     1       6.656   8.958  30.835  0.00  0.00    -0.204 F 
ATOM      9  C5  UNL     1       7.558   8.166  28.770  0.00  0.00    +0.055 A 
ATOM     10 BR1  UNL     1       7.215   6.353  29.272  0.00  0.00    -0.047 Br
ATOM     11  C6  UNL     1       8.147   8.440  27.532  0.00  0.00    +0.045 A 
ATOM     12  C7  UNL     1       8.423   9.761  27.151  0.00  0.00    +0.077 A 
BRANCH   5  14
ATOM     13  C1  UNL     1       8.228  13.290  28.419  0.00  0.00    +0.277 C 
ATOM     14  O1  UNL     1       8.262  12.147  27.570  0.00  0.00    -0.493 OA
ENDBRANCH   5  14
ENDBRANCH   1  12
BRANCH   2  15
ATOM     15  C9  UNL     1       9.001  10.007  23.340  0.00  0.00    +0.126 A 
ATOM     16  C10 UNL     1      10.397   9.876  23.274  0.00  0.00    +0.036 A 
ATOM     17  C11 UNL     1      11.048   9.933  22.032  0.00  0.00    -0.044 A 
ATOM     18  C12 UNL     1      12.547   9.785  21.974  0.00  0.00    +0.044 C 
ATOM     19  C13 UNL     1      10.283  10.111  20.858  0.00  0.00    -0.029 A 
ATOM     20  C14 UNL     1      10.927  10.179  19.499  0.00  0.00    +0.045 C 
ATOM     21  C15 UNL     1       8.891  10.244  20.975  0.00  0.00    +0.115 A 
ATOM     22  N2  UNL     1       8.295  10.190  22.193  0.00  0.00    -0.250 NA
ENDBRANCH   2  15
TORSDOF 3
ENDMDL
MODEL 2
REMARK VINA RESULT:    -5.844      6.889     10.670
REMARK INTER + INTRA:          -7.298
REMARK INTER:                  -6.884
REMARK INTRA:                  -0.414
REMARK UNBOUND:                -0.429
REMARK  Name = /home/qwerty/github/datacon2025hack/step_04_hit_selection/docking/ligands/lig_126.pdb
REMARK  6 active torsions:
REMARK  status: ('A' for Active; 'I' for Inactive)
REMARK    1  A    between atoms: C1_1  and  O1_2
REMARK    2  A    between atoms: O1_2  and  C2_3
REMARK    3  A    between atoms: C7_10  and  N1_11
REMARK    4  A    between atoms: C8_12  and  C9_14
REMARK    5  A    between atoms: C11_16  and  C12_17
REMARK    6  A    between atoms: C13_18  and  C14_19
REMARK                            x       y       z     vdW  Elec       q    Type
REMARK                         _______ _______ _______ _____ _____    ______ ____
ROOT
ATOM      1  N1  UNL     1      11.422  12.944  31.499  0.00  0.00    -0.277 N 
ATOM      2  C8  UNL     1      11.404  13.703  32.721  0.00  0.00    +0.267 C 
ATOM      3  O2  UNL     1      11.411  14.964  32.676  0.00  0.00    -0.268 OA
ATOM      4  H6  UNL     1      11.085  11.956  31.522  0.00  0.00    +0.155 HD
ENDROOT
BRANCH   1  12
ATOM      5  C2  UNL     1      10.623  13.800  29.311  0.00  0.00    +0.144 A 
ATOM      6  C3  UNL     1      10.921  14.378  28.060  0.00  0.00    +0.087 A 
ATOM      7  C4  UNL     1      12.237  14.711  27.729  0.00  0.00    +0.141 A 
ATOM      8  F1  UNL     1      12.503  15.271  26.523  0.00  0.00    -0.204 F 
ATOM      9  C5  UNL     1      13.269  14.480  28.642  0.00  0.00    +0.055 A 
ATOM     10 BR1  UNL     1      15.071  14.949  28.207  0.00  0.00    -0.047 Br
ATOM     11  C6  UNL     1      12.986  13.901  29.882  0.00  0.00    +0.045 A 
ATOM     12  C7  UNL     1      11.674  13.534  30.215  0.00  0.00    +0.077 A 
BRANCH   5  14
ATOM     13  C1  UNL     1       8.203  13.412  28.794  0.00  0.00    +0.277 C 
ATOM     14  O1  UNL     1       9.304  13.504  29.693  0.00  0.00    -0.493 OA
ENDBRANCH   5  14
ENDBRANCH   1  12
BRANCH   2  15
ATOM     15  C9  UNL     1      11.350  13.013  34.028  0.00  0.00    +0.126 A 
ATOM     16  C10 UNL     1      11.664  11.650  34.142  0.00  0.00    +0.036 A 
ATOM     17  C11 UNL     1      11.598  11.017  35.393  0.00  0.00    -0.044 A 
ATOM     18  C12 UNL     1      11.943   9.555  35.503  0.00  0.00    +0.044 C 
ATOM     19  C13 UNL     1      11.225  11.770  36.529  0.00  0.00    -0.029 A 
ATOM     20  C14 UNL     1      11.137  11.144  37.896  0.00  0.00    +0.045 C 
ATOM     21  C15 UNL     1      10.913  13.128  36.365  0.00  0.00    +0.115 A 
ATOM     22  N2  UNL     1      10.983  13.707  35.139  0.00  0.00    -0.250 NA
ENDBRANCH   2  15
TORSDOF 3
ENDMDL
MODEL 3
REMARK VINA RESULT:    -5.758     15.538     17.234
REMARK INTER + INTRA:          -7.197
REMARK INTER:                  -6.748
REMARK INTRA:                  -0.449
REMARK UNBOUND:                -0.429
REMARK  Name = /home/qwerty/github/datacon2025hack/step_04_hit_selection/docking/ligands/lig_126.pdb
REMARK  6 active torsions:
REMARK  status: ('A' for Active; 'I' for Inactive)
REMARK    1  A    between atoms: C1_1  and  O1_2
REMARK    2  A    between atoms: O1_2  and  C2_3
REMARK    3  A    between atoms: C7_10  and  N1_11
REMARK    4  A    between atoms: C8_12  and  C9_14
REMARK    5  A    between atoms: C11_16  and  C12_17
REMARK    6  A    between atoms: C13_18  and  C14_19
REMARK                            x       y       z     vdW  Elec       q    Type
REMARK                         _______ _______ _______ _____ _____    ______ ____
ROOT
ATOM      1  N1  UNL     1      20.948   3.639  31.767  0.00  0.00    -0.277 N 
ATOM      2  C8  UNL     1      21.961   4.102  32.676  0.00  0.00    +0.267 C 
ATOM      3  O2  UNL     1      23.169   3.798  32.477  0.00  0.00    -0.268 OA
ATOM      4  H6  UNL     1      20.037   4.148  31.735  0.00  0.00    +0.155 HD
ENDROOT
BRANCH   1  12
ATOM      5  C2  UNL     1      21.066   1.274  31.024  0.00  0.00    +0.144 A 
ATOM      6  C3  UNL     1      21.325   0.343  29.998  0.00  0.00    +0.087 A 
ATOM      7  C4  UNL     1      21.679   0.781  28.718  0.00  0.00    +0.141 A 
ATOM      8  F1  UNL     1      21.919  -0.131  27.742  0.00  0.00    -0.204 F 
ATOM      9  C5  UNL     1      21.772   2.147  28.445  0.00  0.00    +0.055 A 
ATOM     10 BR1  UNL     1      22.238   2.756  26.694  0.00  0.00    -0.047 Br
ATOM     11  C6  UNL     1      21.525   3.078  29.458  0.00  0.00    +0.045 A 
ATOM     12  C7  UNL     1      21.198   2.653  30.753  0.00  0.00    +0.077 A 
BRANCH   5  14
ATOM     13  C1  UNL     1      19.391   0.287  32.603  0.00  0.00    +0.277 C 
ATOM     14  O1  UNL     1      20.657   0.866  32.305  0.00  0.00    -0.493 OA
ENDBRANCH   5  14
ENDBRANCH   1  12
BRANCH   2  15
ATOM     15  C9  UNL     1      21.598   4.955  33.829  0.00  0.00    +0.126 A 
ATOM     16  C10 UNL     1      22.585   5.542  34.635  0.00  0.00    +0.036 A 
ATOM     17  C11 UNL     1      22.213   6.341  35.729  0.00  0.00    -0.044 A 
ATOM     18  C12 UNL     1      23.282   6.970  36.584  0.00  0.00    +0.044 C 
ATOM     19  C13 UNL     1      20.842   6.552  35.995  0.00  0.00    -0.029 A 
ATOM     20  C14 UNL     1      20.385   7.400  37.153  0.00  0.00    +0.045 C 
ATOM     21  C15 UNL     1      19.892   5.939  35.164  0.00  0.00    +0.115 A 
ATOM     22  N2  UNL     1      20.287   5.169  34.119  0.00  0.00    -0.250 NA
ENDBRANCH   2  15
TORSDOF 3
ENDMDL
MODEL 4
REMARK VINA RESULT:    -5.709     15.565     16.454
REMARK INTER + INTRA:          -7.140
REMARK INTER:                  -6.688
REMARK INTRA:                  -0.451
REMARK UNBOUND:                -0.429
REMARK  Name = /home/qwerty/github/datacon2025hack/step_04_hit_selection/docking/ligands/lig_126.pdb
REMARK  6 active torsions:
REMARK  status: ('A' for Active; 'I' for Inactive)
REMARK    1  A    between atoms: C1_1  and  O1_2
REMARK    2  A    between atoms: O1_2  and  C2_3
REMARK    3  A    between atoms: C7_10  and  N1_11
REMARK    4  A    between atoms: C8_12  and  C9_14
REMARK    5  A    between atoms: C11_16  and  C12_17
REMARK    6  A    between atoms: C13_18  and  C14_19
REMARK                            x       y       z     vdW  Elec       q    Type
REMARK                         _______ _______ _______ _____ _____    ______ ____
ROOT
ATOM      1  N1  UNL     1      21.656   5.364  33.072  0.00  0.00    -0.277 N 
ATOM      2  C8  UNL     1      21.736   3.962  32.765  0.00  0.00    +0.267 C 
ATOM      3  O2  UNL     1      21.758   3.115  33.700  0.00  0.00    -0.268 OA
ATOM      4  H6  UNL     1      21.307   6.016  32.334  0.00  0.00    +0.155 HD
ENDROOT
BRANCH   1  12
ATOM      5  C2  UNL     1      23.105   6.168  34.919  0.00  0.00    +0.144 A 
ATOM      6  C3  UNL     1      23.219   6.676  36.229  0.00  0.00    +0.087 A 
ATOM      7  C4  UNL     1      22.076   6.925  36.994  0.00  0.00    +0.141 A 
ATOM      8  F1  UNL     1      22.207   7.420  38.251  0.00  0.00    -0.204 F 
ATOM      9  C5  UNL     1      20.809   6.679  36.462  0.00  0.00    +0.055 A 
ATOM     10 BR1  UNL     1      19.238   7.033  37.494  0.00  0.00    -0.047 Br
ATOM     11  C6  UNL     1      20.684   6.168  35.167  0.00  0.00    +0.045 A 
ATOM     12  C7  UNL     1      21.823   5.886  34.400  0.00  0.00    +0.077 A 
BRANCH   5  14
ATOM     13  C1  UNL     1      24.892   6.976  33.362  0.00  0.00    +0.277 C 
ATOM     14  O1  UNL     1      24.232   5.959  34.107  0.00  0.00    -0.493 OA
ENDBRANCH   5  14
ENDBRANCH   1  12
BRANCH   2  15
ATOM     15  C9  UNL     1      21.767   3.505  31.359  0.00  0.00    +0.126 A 
ATOM     16  C10 UNL     1      22.141   2.192  31.031  0.00  0.00    +0.036 A 
ATOM     17  C11 UNL     1      22.171   1.786  29.688  0.00  0.00    -0.044 A 
ATOM     18  C12 UNL     1      22.568   0.373  29.349  0.00  0.00    +0.044 C 
ATOM     19  C13 UNL     1      21.810   2.708  28.679  0.00  0.00    -0.029 A 
ATOM     20  C14 UNL     1      21.822   2.328  27.222  0.00  0.00    +0.045 C 
ATOM     21  C15 UNL     1      21.450   4.011  29.055  0.00  0.00    +0.115 A 
ATOM     22  N2  UNL     1      21.437   4.371  30.363  0.00  0.00    -0.250 NA
ENDBRANCH   2  15
TORSDOF 3
ENDMDL
MODEL 5
REMARK VINA RESULT:    -5.526      3.613      6.502
REMARK INTER + INTRA:          -6.925
REMARK INTER:                  -6.435
REMARK INTRA:                  -0.489
REMARK UNBOUND:                -0.429
REMARK  Name = /home/qwerty/github/datacon2025hack/step_04_hit_selection/docking/ligands/lig_126.pdb
REMARK  6 active torsions:
REMARK  status: ('A' for Active; 'I' for Inactive)
REMARK    1  A    between atoms: C1_1  and  O1_2
REMARK    2  A    between atoms: O1_2  and  C2_3
REMARK    3  A    between atoms: C7_10  and  N1_11
REMARK    4  A    between atoms: C8_12  and  C9_14
REMARK    5  A    between atoms: C11_16  and  C12_17
REMARK    6  A    between atoms: C13_18  and  C14_19
REMARK                            x       y       z     vdW  Elec       q    Type
REMARK                         _______ _______ _______ _____ _____    ______ ____
ROOT
ATOM      1  N1  UNL     1       9.409   8.963  24.733  0.00  0.00    -0.277 N 
ATOM      2  C8  UNL     1       8.552   9.757  25.571  0.00  0.00    +0.267 C 
ATOM      3  O2  UNL     1       7.307   9.551  25.570  0.00  0.00    -0.268 OA
ATOM      4  H6  UNL     1      10.423   8.899  24.975  0.00  0.00    +0.155 HD
ENDROOT
BRANCH   1  12
ATOM      5  C2  UNL     1       8.674   8.545  22.400  0.00  0.00    +0.144 A 
ATOM      6  C3  UNL     1       8.181   7.646  21.433  0.00  0.00    +0.087 A 
ATOM      7  C4  UNL     1       7.956   6.306  21.762  0.00  0.00    +0.141 A 
ATOM      8  F1  UNL     1       7.486   5.455  20.815  0.00  0.00    -0.204 F 
ATOM      9  C5  UNL     1       8.227   5.846  23.052  0.00  0.00    +0.055 A 
ATOM     10 BR1  UNL     1       7.939   4.011  23.507  0.00  0.00    -0.047 Br
ATOM     11  C6  UNL     1       8.709   6.731  24.021  0.00  0.00    +0.045 A 
ATOM     12  C7  UNL     1       8.910   8.084  23.712  0.00  0.00    +0.077 A 
BRANCH   5  14
ATOM     13  C1  UNL     1       7.983  10.863  21.749  0.00  0.00    +0.277 C 
ATOM     14  O1  UNL     1       8.960   9.884  22.085  0.00  0.00    -0.493 OA
ENDBRANCH   5  14
ENDBRANCH   1  12
BRANCH   2  15
ATOM     15  C9  UNL     1       9.125  10.796  26.455  0.00  0.00    +0.126 A 
ATOM     16  C10 UNL     1       8.308  11.547  27.314  0.00  0.00    +0.036 A 
ATOM     17  C11 UNL     1       8.875  12.533  28.136  0.00  0.00    -0.044 A 
ATOM     18  C12 UNL     1       7.989  13.329  29.058  0.00  0.00    +0.044 C 
ATOM     19  C13 UNL     1      10.271  12.748  28.095  0.00  0.00    -0.029 A 
ATOM     20  C14 UNL     1      10.935  13.792  28.954  0.00  0.00    +0.045 C 
ATOM     21  C15 UNL     1      11.046  11.977  27.215  0.00  0.00    +0.115 A 
ATOM     22  N2  UNL     1      10.463  11.036  26.430  0.00  0.00    -0.250 NA
ENDBRANCH   2  15
TORSDOF 3
ENDMDL
MODEL 6
REMARK VINA RESULT:    -5.511      9.328     11.239
REMARK INTER + INTRA:          -6.907
REMARK INTER:                  -6.426
REMARK INTRA:                  -0.481
REMARK UNBOUND:                -0.429
REMARK  Name = /home/qwerty/github/datacon2025hack/step_04_hit_selection/docking/ligands/lig_126.pdb
REMARK  6 active torsions:
REMARK  status: ('A' for Active; 'I' for Inactive)
REMARK    1  A    between atoms: C1_1  and  O1_2
REMARK    2  A    between atoms: O1_2  and  C2_3
REMARK    3  A    between atoms: C7_10  and  N1_11
REMARK    4  A    between atoms: C8_12  and  C9_14
REMARK    5  A    between atoms: C11_16  and  C12_17
REMARK    6  A    between atoms: C13_18  and  C14_19
REMARK                            x       y       z     vdW  Elec       q    Type
REMARK                         _______ _______ _______ _____ _____    ______ ____
ROOT
ATOM      1  N1  UNL     1      12.669   1.452  21.436  0.00  0.00    -0.277 N 
ATOM      2  C8  UNL     1      12.361   2.677  22.123  0.00  0.00    +0.267 C 
ATOM      3  O2  UNL     1      13.239   3.235  22.835  0.00  0.00    -0.268 OA
ATOM      4  H6  UNL     1      12.087   1.182  20.612  0.00  0.00    +0.155 HD
ENDROOT
BRANCH   1  12
ATOM      5  C2  UNL     1      15.001   0.823  20.869  0.00  0.00    +0.144 A 
ATOM      6  C3  UNL     1      16.147   0.053  21.156  0.00  0.00    +0.087 A 
ATOM      7  C4  UNL     1      16.164  -0.809  22.256  0.00  0.00    +0.141 A 
ATOM      8  F1  UNL     1      17.278  -1.537  22.519  0.00  0.00    -0.204 F 
ATOM      9  C5  UNL     1      15.045  -0.907  23.087  0.00  0.00    +0.055 A 
ATOM     10 BR1  UNL     1      15.065  -2.069  24.605  0.00  0.00    -0.047 Br
ATOM     11  C6  UNL     1      13.902  -0.154  22.808  0.00  0.00    +0.045 A 
ATOM     12  C7  UNL     1      13.861   0.691  21.690  0.00  0.00    +0.077 A 
BRANCH   5  14
ATOM     13  C1  UNL     1      15.705   2.956  19.763  0.00  0.00    +0.277 C 
ATOM     14  O1  UNL     1      14.973   1.736  19.803  0.00  0.00    -0.493 OA
ENDBRANCH   5  14
ENDBRANCH   1  12
BRANCH   2  15
ATOM     15  C9  UNL     1      11.027   3.301  21.976  0.00  0.00    +0.126 A 
ATOM     16  C10 UNL     1      10.058   3.185  22.984  0.00  0.00    +0.036 A 
ATOM     17  C11 UNL     1       8.797   3.779  22.817  0.00  0.00    -0.044 A 
ATOM     18  C12 UNL     1       7.767   3.652  23.909  0.00  0.00    +0.044 C 
ATOM     19  C13 UNL     1       8.525   4.500  21.633  0.00  0.00    -0.029 A 
ATOM     20  C14 UNL     1       7.191   5.158  21.399  0.00  0.00    +0.045 C 
ATOM     21  C15 UNL     1       9.523   4.582  20.650  0.00  0.00    +0.115 A 
ATOM     22  N2  UNL     1      10.729   3.991  20.843  0.00  0.00    -0.250 NA
ENDBRANCH   2  15
TORSDOF 3
ENDMDL
MODEL 7
REMARK VINA RESULT:    -5.496     13.032     15.186
REMARK INTER + INTRA:          -6.889
REMARK INTER:                  -6.420
REMARK INTRA:                  -0.470
REMARK UNBOUND:                -0.429
REMARK  Name = /home/qwerty/github/datacon2025hack/step_04_hit_selection/docking/ligands/lig_126.pdb
REMARK  6 active torsions:
REMARK  status: ('A' for Active; 'I' for Inactive)
REMARK    1  A    between atoms: C1_1  and  O1_2
REMARK    2  A    between atoms: O1_2  and  C2_3
REMARK    3  A    between atoms: C7_10  and  N1_11
REMARK    4  A    between atoms: C8_12  and  C9_14
REMARK    5  A    between atoms: C11_16  and  C12_17
REMARK    6  A    between atoms: C13_18  and  C14_19
REMARK                            x       y       z     vdW  Elec       q    Type
REMARK                         _______ _______ _______ _____ _____    ______ ____
ROOT
ATOM      1  N1  UNL     1      17.774   0.703  24.713  0.00  0.00    -0.277 N 
ATOM      2  C8  UNL     1      19.164   0.890  25.029  0.00  0.00    +0.267 C 
ATOM      3  O2  UNL     1      20.011   0.992  24.099  0.00  0.00    -0.268 OA
ATOM      4  H6  UNL     1      17.061   0.951  25.435  0.00  0.00    +0.155 HD
ENDROOT
BRANCH   1  12
ATOM      5  C2  UNL     1      17.179  -0.936  22.947  0.00  0.00    +0.144 A 
ATOM      6  C3  UNL     1      16.719  -1.186  21.639  0.00  0.00    +0.087 A 
ATOM      7  C4  UNL     1      16.364  -0.126  20.799  0.00  0.00    +0.141 A 
ATOM      8  F1  UNL     1      15.918  -0.387  19.544  0.00  0.00    -0.204 F 
ATOM      9  C5  UNL     1      16.457   1.191  21.254  0.00  0.00    +0.055 A 
ATOM     10 BR1  UNL     1      15.958   2.646  20.120  0.00  0.00    -0.047 Br
ATOM     11  C6  UNL     1      16.919   1.450  22.548  0.00  0.00    +0.045 A 
ATOM     12  C7  UNL     1      17.307   0.398  23.390  0.00  0.00    +0.077 A 
BRANCH   5  14
ATOM     13  C1  UNL     1      16.530  -2.792  24.498  0.00  0.00    +0.277 C 
ATOM     14  O1  UNL     1      17.492  -1.982  23.832  0.00  0.00    -0.493 OA
ENDBRANCH   5  14
ENDBRANCH   1  12
BRANCH   2  15
ATOM     15  C9  UNL     1      19.604   0.991  26.438  0.00  0.00    +0.126 A 
ATOM     16  C10 UNL     1      18.704   1.352  27.453  0.00  0.00    +0.036 A 
ATOM     17  C11 UNL     1      19.148   1.449  28.782  0.00  0.00    -0.044 A 
ATOM     18  C12 UNL     1      18.172   1.832  29.863  0.00  0.00    +0.044 C 
ATOM     19  C13 UNL     1      20.500   1.167  29.080  0.00  0.00    -0.029 A 
ATOM     20  C14 UNL     1      21.032   1.254  30.487  0.00  0.00    +0.045 C 
ATOM     21  C15 UNL     1      21.363   0.816  28.031  0.00  0.00    +0.115 A 
ATOM     22  N2  UNL     1      20.901   0.738  26.758  0.00  0.00    -0.250 NA
ENDBRANCH   2  15
TORSDOF 3
ENDMDL
MODEL 8
REMARK VINA RESULT:    -5.399     12.786     14.244
REMARK INTER + INTRA:          -6.775
REMARK INTER:                  -6.343
REMARK INTRA:                  -0.432
REMARK UNBOUND:                -0.429
REMARK  Name = /home/qwerty/github/datacon2025hack/step_04_hit_selection/docking/ligands/lig_126.pdb
REMARK  6 active torsions:
REMARK  status: ('A' for Active; 'I' for Inactive)
REMARK    1  A    between atoms: C1_1  and  O1_2
REMARK    2  A    between atoms: O1_2  and  C2_3
REMARK    3  A    between atoms: C7_10  and  N1_11
REMARK    4  A    between atoms: C8_12  and  C9_14
REMARK    5  A    between atoms: C11_16  and  C12_17
REMARK    6  A    between atoms: C13_18  and  C14_19
REMARK                            x       y       z     vdW  Elec       q    Type
REMARK                         _______ _______ _______ _____ _____    ______ ____
ROOT
ATOM      1  N1  UNL     1      19.431   2.045  26.130  0.00  0.00    -0.277 N 
ATOM      2  C8  UNL     1      19.132   1.044  25.142  0.00  0.00    +0.267 C 
ATOM      3  O2  UNL     1      19.611  -0.117  25.261  0.00  0.00    -0.268 OA
ATOM      4  H6  UNL     1      18.792   2.867  26.216  0.00  0.00    +0.155 HD
ENDROOT
BRANCH   1  12
ATOM      5  C2  UNL     1      21.785   2.203  26.899  0.00  0.00    +0.144 A 
ATOM      6  C3  UNL     1      22.735   2.012  27.923  0.00  0.00    +0.087 A 
ATOM      7  C4  UNL     1      22.341   1.527  29.173  0.00  0.00    +0.141 A 
ATOM      8  F1  UNL     1      23.270   1.354  30.147  0.00  0.00    -0.204 F 
ATOM      9  C5  UNL     1      20.998   1.234  29.420  0.00  0.00    +0.055 A 
ATOM     10 BR1  UNL     1      20.446   0.587  31.132  0.00  0.00    -0.047 Br
ATOM     11  C6  UNL     1      20.049   1.414  28.409  0.00  0.00    +0.045 A 
ATOM     12  C7  UNL     1      20.436   1.871  27.142  0.00  0.00    +0.077 A 
BRANCH   5  14
ATOM     13  C1  UNL     1      22.826   3.975  25.467  0.00  0.00    +0.277 C 
ATOM     14  O1  UNL     1      22.143   2.739  25.651  0.00  0.00    -0.493 OA
ENDBRANCH   5  14
ENDBRANCH   1  12
BRANCH   2  15
ATOM     15  C9  UNL     1      18.244   1.360  24.002  0.00  0.00    +0.126 A 
ATOM     16  C10 UNL     1      17.438   0.372  23.416  0.00  0.00    +0.036 A 
ATOM     17  C11 UNL     1      16.610   0.696  22.329  0.00  0.00    -0.044 A 
ATOM     18  C12 UNL     1      15.746  -0.372  21.712  0.00  0.00    +0.044 C 
ATOM     19  C13 UNL     1      16.592   2.024  21.847  0.00  0.00    -0.029 A 
ATOM     20  C14 UNL     1      15.724   2.430  20.685  0.00  0.00    +0.045 C 
ATOM     21  C15 UNL     1      17.420   2.975  22.462  0.00  0.00    +0.115 A 
ATOM     22  N2  UNL     1      18.212   2.626  23.507  0.00  0.00    -0.250 NA
ENDBRANCH   2  15
TORSDOF 3
ENDMDL
MODEL 9
REMARK VINA RESULT:    -5.350     13.635     15.287
REMARK INTER + INTRA:          -6.718
REMARK INTER:                  -6.303
REMARK INTRA:                  -0.415
REMARK UNBOUND:                -0.429
REMARK  Name = /home/qwerty/github/datacon2025hack/step_04_hit_selection/docking/ligands/lig_126.pdb
REMARK  6 active torsions:
REMARK  status: ('A' for Active; 'I' for Inactive)
REMARK    1  A    between atoms: C1_1  and  O1_2
REMARK    2  A    between atoms: O1_2  and  C2_3
REMARK    3  A    between atoms: C7_10  and  N1_11
REMARK    4  A    between atoms: C8_12  and  C9_14
REMARK    5  A    between atoms: C11_16  and  C12_17
REMARK    6  A    between atoms: C13_18  and  C14_19
REMARK                            x       y       z     vdW  Elec       q    Type
REMARK                         _______ _______ _______ _____ _____    ______ ____
ROOT
ATOM      1  N1  UNL     1      17.754   9.958  36.010  0.00  0.00    -0.277 N 
ATOM      2  C8  UNL     1      18.632   9.380  36.990  0.00  0.00    +0.267 C 
ATOM      3  O2  UNL     1      18.443   9.610  38.216  0.00  0.00    -0.268 OA
ATOM      4  H6  UNL     1      17.700   9.515  35.065  0.00  0.00    +0.155 HD
ENDROOT
BRANCH   1  12
ATOM      5  C2  UNL     1      17.164  12.334  36.415  0.00  0.00    +0.144 A 
ATOM      6  C3  UNL     1      16.184  13.297  36.730  0.00  0.00    +0.087 A 
ATOM      7  C4  UNL     1      14.853  12.917  36.923  0.00  0.00    +0.141 A 
ATOM      8  F1  UNL     1      13.924  13.859  37.220  0.00  0.00    -0.204 F 
ATOM      9  C5  UNL     1      14.482  11.576  36.796  0.00  0.00    +0.055 A 
ATOM     10 BR1  UNL     1      12.661  11.047  37.039  0.00  0.00    -0.047 Br
ATOM     11  C6  UNL     1      15.447  10.612  36.491  0.00  0.00    +0.045 A 
ATOM     12  C7  UNL     1      16.791  10.976  36.325  0.00  0.00    +0.077 A 
BRANCH   5  14
ATOM     13  C1  UNL     1      19.022  13.014  34.879  0.00  0.00    +0.277 C 
ATOM     14  O1  UNL     1      18.499  12.694  36.164  0.00  0.00    -0.493 OA
ENDBRANCH   5  14
ENDBRANCH   1  12
BRANCH   2  15
ATOM     15  C9  UNL     1      19.741   8.495  36.570  0.00  0.00    +0.126 A 
ATOM     16  C10 UNL     1      20.695   8.041  37.494  0.00  0.00    +0.036 A 
ATOM     17  C11 UNL     1      21.743   7.209  37.069  0.00  0.00    -0.044 A 
ATOM     18  C12 UNL     1      22.757   6.724  38.071  0.00  0.00    +0.044 C 
ATOM     19  C13 UNL     1      21.814   6.829  35.710  0.00  0.00    -0.029 A 
ATOM     20  C14 UNL     1      22.915   5.938  35.197  0.00  0.00    +0.045 C 
ATOM     21  C15 UNL     1      20.841   7.313  34.823  0.00  0.00    +0.115 A 
ATOM     22  N2  UNL     1      19.846   8.120  35.267  0.00  0.00    -0.250 NA
ENDBRANCH   2  15
TORSDOF 3
ENDMDL
