REMARK  Name = /home/qwerty/github/datacon2025hack/step_04_hit_selection/docking/ligands/lig_498.pdb
REMARK  7 active torsions:
REMARK  status: ('A' for Active; 'I' for Inactive)
REMARK    1  A    between atoms: C1_1  and  C2_2
REMARK    2  A    between atoms: C2_2  and  C3_3
REMARK    3  A    between atoms: C2_2  and  C4_4
REMARK    4  A    between atoms: C2_2  and  O1_5
REMARK    5  A    between atoms: O1_5  and  C5_6
REMARK    6  A    between atoms: C9_12  and  C10_13
REMARK    7  A    between atoms: N4_19  and  C14_20
REMARK                            x       y       z     vdW  Elec       q    Type
REMARK                         _______ _______ _______ _____ _____    ______ ____
ROOT
ATOM      1  C10 UNL     1      -0.515  -1.262  -1.211  0.00  0.00    +0.172 A 
ATOM      2  N2  UNL     1       0.390  -2.010  -0.522  0.00  0.00    -0.209 NA
ATOM      3  C11 UNL     1       1.384  -1.120  -0.367  0.00  0.00    +0.170 A 
ATOM      4  C12 UNL     1       2.604  -1.291   0.257  0.00  0.00    +0.083 A 
ATOM      5  C13 UNL     1       3.252  -2.336   0.872  0.00  0.00    +0.148 A 
ATOM      6  N3  UNL     1       4.483  -1.900   1.245  0.00  0.00    -0.172 NA
ATOM      7  N4  UNL     1       4.615  -0.622   0.891  0.00  0.00    -0.214 N 
ATOM      8  C20 UNL     1       3.475  -0.241   0.283  0.00  0.00    +0.168 A 
ATOM      9  N5  UNL     1       3.195   0.959  -0.307  0.00  0.00    -0.216 NA
ATOM     10  C21 UNL     1       1.977   1.116  -0.920  0.00  0.00    +0.227 A 
ATOM     11  N6  UNL     1       1.105   0.063  -0.926  0.00  0.00    -0.201 N 
ATOM     12  N7  UNL     1      -0.091   0.002  -1.473  0.00  0.00    -0.147 NA
ENDROOT
BRANCH   1  19
ATOM     13  C5  UNL     1      -3.377  -0.509  -0.101  0.00  0.00    +0.404 C 
ATOM     14  O2  UNL     1      -2.879  -1.078   0.908  0.00  0.00    -0.226 OA
ATOM     15  N1  UNL     1      -2.895  -0.835  -1.412  0.00  0.00    -0.257 N 
ATOM     16  C6  UNL     1      -3.453  -0.259  -2.622  0.00  0.00    +0.112 C 
ATOM     17  C7  UNL     1      -2.606  -0.807  -3.764  0.00  0.00    +0.021 C 
ATOM     18  C8  UNL     1      -1.856  -2.008  -3.189  0.00  0.00    +0.032 C 
ATOM     19  C9  UNL     1      -1.839  -1.801  -1.674  0.00  0.00    +0.149 C 
BRANCH  13  20
ATOM     20  O1  UNL     1      -4.398   0.444   0.039  0.00  0.00    -0.445 OA
BRANCH  20  22
ATOM     21  C1  UNL     1      -3.897   1.565   2.156  0.00  0.00    +0.055 C 
ATOM     22  C2  UNL     1      -4.971   0.901   1.273  0.00  0.00    +0.107 C 
ATOM     23  C3  UNL     1      -5.648  -0.263   2.021  0.00  0.00    +0.055 C 
ATOM     24  C4  UNL     1      -6.037   1.949   0.917  0.00  0.00    +0.055 C 
ENDBRANCH  20  22
ENDBRANCH  13  20
ENDBRANCH   1  19
BRANCH   7  25
ATOM     25  C14 UNL     1       5.810   0.150   1.114  0.00  0.00    +0.068 A 
ATOM     26  C15 UNL     1       7.058  -0.495   1.172  0.00  0.00    +0.028 A 
ATOM     27  C16 UNL     1       8.226   0.240   1.396  0.00  0.00    +0.002 A 
ATOM     28  C17 UNL     1       8.160   1.624   1.575  0.00  0.00    +0.000 A 
ATOM     29  C18 UNL     1       6.924   2.274   1.536  0.00  0.00    +0.002 A 
ATOM     30  C19 UNL     1       5.753   1.543   1.311  0.00  0.00    +0.028 A 
ENDBRANCH   7  25
TORSDOF 4
