MODEL 1
REMARK VINA RESULT:    -6.342      0.000      0.000
REMARK INTER + INTRA:          -8.165
REMARK INTER:                  -7.454
REMARK INTRA:                  -0.711
REMARK UNBOUND:                -0.711
REMARK  Name = /home/qwerty/github/datacon2025hack/step_04_hit_selection/docking/ligands/lig_131.pdb
REMARK  5 active torsions:
REMARK  status: ('A' for Active; 'I' for Inactive)
REMARK    1  A    between atoms: C1_1  and  C2_2
REMARK    2  A    between atoms: C5_6  and  C6_7
REMARK    3  A    between atoms: C9_12  and  N3_13
REMARK    4  A    between atoms: C10_14  and  C11_16
REMARK    5  A    between atoms: C15_22  and  C16_23
REMARK                            x       y       z     vdW  Elec       q    Type
REMARK                         _______ _______ _______ _____ _____    ______ ____
ROOT
ATOM      1  C6  UNL     1      24.046  15.655  22.343  0.00  0.00    +0.248 C 
ATOM      2  O1  UNL     1      25.118  16.301  22.187  0.00  0.00    -0.270 OA
ATOM      3  N2  UNL     1      23.402  15.074  21.195  0.00  0.00    -0.293 N 
ATOM      4  C7  UNL     1      23.497  15.669  19.874  0.00  0.00    +0.110 C 
ATOM      5  C8  UNL     1      22.537  14.879  18.999  0.00  0.00    +0.043 C 
ATOM      6  C9  UNL     1      22.349  13.536  19.713  0.00  0.00    +0.095 C 
ATOM      7  C15 UNL     1      22.668  13.810  21.192  0.00  0.00    +0.093 C 
ATOM      8  C16 UNL     1      23.505  12.676  21.800  0.00  0.00    +0.030 C 
ENDROOT
BRANCH   1  14
ATOM      9  C1  UNL     1      22.957  13.619  29.286  0.00  0.00    +0.086 C 
ATOM     10  C2  UNL     1      22.975  14.220  27.920  0.00  0.00    +0.106 A 
ATOM     11  N1  UNL     1      23.940  13.940  27.001  0.00  0.00    -0.231 NA
ATOM     12  C3  UNL     1      23.531  14.638  25.927  0.00  0.00    +0.109 A 
ATOM     13  C4  UNL     1      24.124  14.722  24.673  0.00  0.00    +0.046 A 
ATOM     14  C5  UNL     1      23.482  15.520  23.701  0.00  0.00    +0.057 A 
ATOM     15  C17 UNL     1      22.259  16.164  24.032  0.00  0.00    +0.126 A 
ATOM     16  N6  UNL     1      21.720  16.040  25.283  0.00  0.00    -0.235 NA
ATOM     17  C18 UNL     1      22.373  15.286  26.200  0.00  0.00    +0.158 A 
ATOM     18  N7  UNL     1      21.992  15.034  27.456  0.00  0.00    -0.327 N 
ATOM     19  H19 UNL     1      21.138  15.372  27.952  0.00  0.00    +0.168 HD
ENDBRANCH   1  14
BRANCH   6  20
ATOM     20  N3  UNL     1      20.982  13.031  19.550  0.00  0.00    -0.305 N 
ATOM     21  C10 UNL     1      20.690  11.630  19.410  0.00  0.00    +0.263 C 
ATOM     22  O2  UNL     1      21.635  10.798  19.323  0.00  0.00    -0.269 OA
ATOM     23  H10 UNL     1      20.192  13.696  19.705  0.00  0.00    +0.149 HD
BRANCH  21  24
ATOM     24  C11 UNL     1      19.291  11.155  19.365  0.00  0.00    +0.129 A 
ATOM     25  C12 UNL     1      18.219  12.059  19.296  0.00  0.00    +0.053 A 
ATOM     26  C13 UNL     1      16.919  11.555  19.256  0.00  0.00    +0.115 A 
ATOM     27  N4  UNL     1      16.710  10.213  19.284  0.00  0.00    -0.244 NA
ATOM     28  C14 UNL     1      17.754   9.349  19.351  0.00  0.00    +0.221 A 
ATOM     29  N5  UNL     1      19.027   9.819  19.390  0.00  0.00    -0.231 NA
ENDBRANCH  21  24
ENDBRANCH   6  20
TORSDOF 3
ENDMDL
MODEL 2
REMARK VINA RESULT:    -6.185      3.515      4.899
REMARK INTER + INTRA:          -7.981
REMARK INTER:                  -7.306
REMARK INTRA:                  -0.675
REMARK UNBOUND:                -0.711
REMARK  Name = /home/qwerty/github/datacon2025hack/step_04_hit_selection/docking/ligands/lig_131.pdb
REMARK  5 active torsions:
REMARK  status: ('A' for Active; 'I' for Inactive)
REMARK    1  A    between atoms: C1_1  and  C2_2
REMARK    2  A    between atoms: C5_6  and  C6_7
REMARK    3  A    between atoms: C9_12  and  N3_13
REMARK    4  A    between atoms: C10_14  and  C11_16
REMARK    5  A    between atoms: C15_22  and  C16_23
REMARK                            x       y       z     vdW  Elec       q    Type
REMARK                         _______ _______ _______ _____ _____    ______ ____
ROOT
ATOM      1  C6  UNL     1      21.679  13.211  20.044  0.00  0.00    +0.248 C 
ATOM      2  O1  UNL     1      21.498  14.098  19.165  0.00  0.00    -0.270 OA
ATOM      3  N2  UNL     1      21.136  11.894  19.836  0.00  0.00    -0.293 N 
ATOM      4  C7  UNL     1      19.920  11.674  19.074  0.00  0.00    +0.110 C 
ATOM      5  C8  UNL     1      19.587  10.201  19.253  0.00  0.00    +0.043 C 
ATOM      6  C9  UNL     1      20.906   9.532  19.650  0.00  0.00    +0.095 C 
ATOM      7  C15 UNL     1      21.761  10.648  20.273  0.00  0.00    +0.093 C 
ATOM      8  C16 UNL     1      23.220  10.560  19.805  0.00  0.00    +0.030 C 
ENDROOT
BRANCH   1  14
ATOM      9  C1  UNL     1      23.639  14.084  27.038  0.00  0.00    +0.086 C 
ATOM     10  C2  UNL     1      23.503  13.982  25.556  0.00  0.00    +0.106 A 
ATOM     11  N1  UNL     1      22.415  13.434  24.948  0.00  0.00    -0.231 NA
ATOM     12  C3  UNL     1      22.692  13.605  23.644  0.00  0.00    +0.109 A 
ATOM     13  C4  UNL     1      21.924  13.247  22.543  0.00  0.00    +0.046 A 
ATOM     14  C5  UNL     1      22.438  13.554  21.263  0.00  0.00    +0.057 A 
ATOM     15  C17 UNL     1      23.681  14.234  21.161  0.00  0.00    +0.126 A 
ATOM     16  N6  UNL     1      24.391  14.565  22.283  0.00  0.00    -0.235 NA
ATOM     17  C18 UNL     1      23.882  14.237  23.494  0.00  0.00    +0.158 A 
ATOM     18  N7  UNL     1      24.417  14.494  24.691  0.00  0.00    -0.327 N 
ATOM     19  H19 UNL     1      25.314  14.984  24.906  0.00  0.00    +0.168 HD
ENDBRANCH   1  14
BRANCH   6  20
ATOM     20  N3  UNL     1      20.687   8.438  20.602  0.00  0.00    -0.305 N 
ATOM     21  C10 UNL     1      21.449   7.220  20.565  0.00  0.00    +0.263 C 
ATOM     22  O2  UNL     1      22.274   7.024  19.630  0.00  0.00    -0.269 OA
ATOM     23  H10 UNL     1      20.071   8.622  21.426  0.00  0.00    +0.149 HD
BRANCH  21  24
ATOM     24  C11 UNL     1      21.274   6.192  21.614  0.00  0.00    +0.129 A 
ATOM     25  C12 UNL     1      20.667   4.960  21.329  0.00  0.00    +0.053 A 
ATOM     26  C13 UNL     1      20.528   4.028  22.357  0.00  0.00    +0.115 A 
ATOM     27  N4  UNL     1      20.978   4.320  23.604  0.00  0.00    -0.244 NA
ATOM     28  C14 UNL     1      21.564   5.516  23.869  0.00  0.00    +0.221 A 
ATOM     29  N5  UNL     1      21.708   6.437  22.881  0.00  0.00    -0.231 NA
ENDBRANCH  21  24
ENDBRANCH   6  20
TORSDOF 3
ENDMDL
MODEL 3
REMARK VINA RESULT:    -6.172      4.675      8.621
REMARK INTER + INTRA:          -7.965
REMARK INTER:                  -7.431
REMARK INTRA:                  -0.535
REMARK UNBOUND:                -0.711
REMARK  Name = /home/qwerty/github/datacon2025hack/step_04_hit_selection/docking/ligands/lig_131.pdb
REMARK  5 active torsions:
REMARK  status: ('A' for Active; 'I' for Inactive)
REMARK    1  A    between atoms: C1_1  and  C2_2
REMARK    2  A    between atoms: C5_6  and  C6_7
REMARK    3  A    between atoms: C9_12  and  N3_13
REMARK    4  A    between atoms: C10_14  and  C11_16
REMARK    5  A    between atoms: C15_22  and  C16_23
REMARK                            x       y       z     vdW  Elec       q    Type
REMARK                         _______ _______ _______ _____ _____    ______ ____
ROOT
ATOM      1  C6  UNL     1      23.474   6.999  19.664  0.00  0.00    +0.248 C 
ATOM      2  O1  UNL     1      23.669   6.307  18.629  0.00  0.00    -0.270 OA
ATOM      3  N2  UNL     1      23.975   8.347  19.714  0.00  0.00    -0.293 N 
ATOM      4  C7  UNL     1      25.175   8.749  19.001  0.00  0.00    +0.110 C 
ATOM      5  C8  UNL     1      25.467  10.169  19.462  0.00  0.00    +0.043 C 
ATOM      6  C9  UNL     1      24.134  10.707  19.990  0.00  0.00    +0.095 C 
ATOM      7  C15 UNL     1      23.320   9.465  20.390  0.00  0.00    +0.093 C 
ATOM      8  C16 UNL     1      21.853   9.597  19.957  0.00  0.00    +0.030 C 
ENDROOT
BRANCH   1  14
ATOM      9  C1  UNL     1      18.510   3.399  23.655  0.00  0.00    +0.086 C 
ATOM     10  C2  UNL     1      19.667   4.147  23.081  0.00  0.00    +0.106 A 
ATOM     11  N1  UNL     1      19.827   4.349  21.744  0.00  0.00    -0.231 NA
ATOM     12  C3  UNL     1      20.941   5.101  21.695  0.00  0.00    +0.109 A 
ATOM     13  C4  UNL     1      21.582   5.625  20.579  0.00  0.00    +0.046 A 
ATOM     14  C5  UNL     1      22.740   6.402  20.798  0.00  0.00    +0.057 A 
ATOM     15  C17 UNL     1      23.173   6.639  22.131  0.00  0.00    +0.126 A 
ATOM     16  N6  UNL     1      22.498   6.099  23.191  0.00  0.00    -0.235 NA
ATOM     17  C18 UNL     1      21.404   5.339  22.946  0.00  0.00    +0.158 A 
ATOM     18  N7  UNL     1      20.611   4.752  23.847  0.00  0.00    -0.327 N 
ATOM     19  H19 UNL     1      20.694   4.767  24.888  0.00  0.00    +0.168 HD
ENDBRANCH   1  14
BRANCH   6  20
ATOM     20  N3  UNL     1      24.333  11.600  21.136  0.00  0.00    -0.305 N 
ATOM     21  C10 UNL     1      23.543  12.784  21.336  0.00  0.00    +0.263 C 
ATOM     22  O2  UNL     1      22.709  13.138  20.457  0.00  0.00    -0.269 OA
ATOM     23  H10 UNL     1      24.957  11.275  21.909  0.00  0.00    +0.149 HD
BRANCH  21  24
ATOM     24  C11 UNL     1      23.699  13.593  22.564  0.00  0.00    +0.129 A 
ATOM     25  C12 UNL     1      24.631  14.641  22.630  0.00  0.00    +0.053 A 
ATOM     26  C13 UNL     1      24.736  15.371  23.814  0.00  0.00    +0.115 A 
ATOM     27  N4  UNL     1      23.945  15.063  24.874  0.00  0.00    -0.244 NA
ATOM     28  C14 UNL     1      23.047  14.048  24.799  0.00  0.00    +0.221 A 
ATOM     29  N5  UNL     1      22.929  13.325  23.655  0.00  0.00    -0.231 NA
ENDBRANCH  21  24
ENDBRANCH   6  20
TORSDOF 3
ENDMDL
MODEL 4
REMARK VINA RESULT:    -6.141     11.226     14.161
REMARK INTER + INTRA:          -7.929
REMARK INTER:                  -7.285
REMARK INTRA:                  -0.644
REMARK UNBOUND:                -0.711
REMARK  Name = /home/qwerty/github/datacon2025hack/step_04_hit_selection/docking/ligands/lig_131.pdb
REMARK  5 active torsions:
REMARK  status: ('A' for Active; 'I' for Inactive)
REMARK    1  A    between atoms: C1_1  and  C2_2
REMARK    2  A    between atoms: C5_6  and  C6_7
REMARK    3  A    between atoms: C9_12  and  N3_13
REMARK    4  A    between atoms: C10_14  and  C11_16
REMARK    5  A    between atoms: C15_22  and  C16_23
REMARK                            x       y       z     vdW  Elec       q    Type
REMARK                         _______ _______ _______ _____ _____    ______ ____
ROOT
ATOM      1  C6  UNL     1      13.245  11.386  35.935  0.00  0.00    +0.248 C 
ATOM      2  O1  UNL     1      12.599  10.853  36.878  0.00  0.00    -0.270 OA
ATOM      3  N2  UNL     1      12.593  11.602  34.670  0.00  0.00    -0.293 N 
ATOM      4  C7  UNL     1      11.537  10.728  34.189  0.00  0.00    +0.110 C 
ATOM      5  C8  UNL     1      11.259  11.172  32.761  0.00  0.00    +0.043 C 
ATOM      6  C9  UNL     1      11.773  12.612  32.676  0.00  0.00    +0.095 C 
ATOM      7  C15 UNL     1      12.839  12.733  33.778  0.00  0.00    +0.093 C 
ATOM      8  C16 UNL     1      12.719  14.069  34.525  0.00  0.00    +0.030 C 
ENDROOT
BRANCH   1  14
ATOM      9  C1  UNL     1      20.547  11.668  35.572  0.00  0.00    +0.086 C 
ATOM     10  C2  UNL     1      19.082  11.845  35.798  0.00  0.00    +0.106 A 
ATOM     11  N1  UNL     1      18.139  11.104  35.153  0.00  0.00    -0.231 NA
ATOM     12  C3  UNL     1      16.995  11.552  35.697  0.00  0.00    +0.109 A 
ATOM     13  C4  UNL     1      15.693  11.145  35.431  0.00  0.00    +0.046 A 
ATOM     14  C5  UNL     1      14.654  11.768  36.156  0.00  0.00    +0.057 A 
ATOM     15  C17 UNL     1      14.983  12.745  37.135  0.00  0.00    +0.126 A 
ATOM     16  N6  UNL     1      16.285  13.102  37.357  0.00  0.00    -0.235 NA
ATOM     17  C18 UNL     1      17.256  12.501  36.628  0.00  0.00    +0.158 A 
ATOM     18  N7  UNL     1      18.574  12.703  36.718  0.00  0.00    -0.327 N 
ATOM     19  H19 UNL     1      19.085  13.355  37.354  0.00  0.00    +0.168 HD
ENDBRANCH   1  14
BRANCH   6  20
ATOM     20  N3  UNL     1      12.343  12.900  31.355  0.00  0.00    -0.305 N 
ATOM     21  C10 UNL     1      11.562  13.453  30.283  0.00  0.00    +0.263 C 
ATOM     22  O2  UNL     1      10.318  13.614  30.431  0.00  0.00    -0.269 OA
ATOM     23  H10 UNL     1      13.381  12.851  31.248  0.00  0.00    +0.149 HD
BRANCH  21  24
ATOM     24  C11 UNL     1      12.202  13.835  29.006  0.00  0.00    +0.129 A 
ATOM     25  C12 UNL     1      11.689  14.880  28.221  0.00  0.00    +0.053 A 
ATOM     26  C13 UNL     1      12.333  15.198  27.026  0.00  0.00    +0.115 A 
ATOM     27  N4  UNL     1      13.434  14.502  26.641  0.00  0.00    -0.244 NA
ATOM     28  C14 UNL     1      13.921  13.494  27.408  0.00  0.00    +0.221 A 
ATOM     29  N5  UNL     1      13.309  13.169  28.576  0.00  0.00    -0.231 NA
ENDBRANCH  21  24
ENDBRANCH   6  20
TORSDOF 3
ENDMDL
MODEL 5
REMARK VINA RESULT:    -6.104     10.787     13.753
REMARK INTER + INTRA:          -7.886
REMARK INTER:                  -7.238
REMARK INTRA:                  -0.648
REMARK UNBOUND:                -0.711
REMARK  Name = /home/qwerty/github/datacon2025hack/step_04_hit_selection/docking/ligands/lig_131.pdb
REMARK  5 active torsions:
REMARK  status: ('A' for Active; 'I' for Inactive)
REMARK    1  A    between atoms: C1_1  and  C2_2
REMARK    2  A    between atoms: C5_6  and  C6_7
REMARK    3  A    between atoms: C9_12  and  N3_13
REMARK    4  A    between atoms: C10_14  and  C11_16
REMARK    5  A    between atoms: C15_22  and  C16_23
REMARK                            x       y       z     vdW  Elec       q    Type
REMARK                         _______ _______ _______ _____ _____    ______ ____
ROOT
ATOM      1  C6  UNL     1       8.014  10.260  28.162  0.00  0.00    +0.248 C 
ATOM      2  O1  UNL     1       7.154  10.263  29.084  0.00  0.00    -0.270 OA
ATOM      3  N2  UNL     1       8.168   9.084  27.347  0.00  0.00    -0.293 N 
ATOM      4  C7  UNL     1       7.909   7.751  27.863  0.00  0.00    +0.110 C 
ATOM      5  C8  UNL     1       8.368   6.795  26.773  0.00  0.00    +0.043 C 
ATOM      6  C9  UNL     1       8.359   7.618  25.481  0.00  0.00    +0.095 C 
ATOM      7  C15 UNL     1       8.507   9.083  25.926  0.00  0.00    +0.093 C 
ATOM      8  C16 UNL     1       7.575  10.005  25.128  0.00  0.00    +0.030 C 
ENDROOT
BRANCH   1  14
ATOM      9  C1  UNL     1      13.722  14.720  27.128  0.00  0.00    +0.086 C 
ATOM     10  C2  UNL     1      12.403  14.039  27.288  0.00  0.00    +0.106 A 
ATOM     11  N1  UNL     1      12.277  12.687  27.400  0.00  0.00    -0.231 NA
ATOM     12  C3  UNL     1      10.954  12.532  27.580  0.00  0.00    +0.109 A 
ATOM     13  C4  UNL     1      10.239  11.356  27.767  0.00  0.00    +0.046 A 
ATOM     14  C5  UNL     1       8.843  11.464  27.951  0.00  0.00    +0.057 A 
ATOM     15  C17 UNL     1       8.245  12.753  27.969  0.00  0.00    +0.126 A 
ATOM     16  N6  UNL     1       9.002  13.877  27.783  0.00  0.00    -0.235 NA
ATOM     17  C18 UNL     1      10.335  13.738  27.587  0.00  0.00    +0.158 A 
ATOM     18  N7  UNL     1      11.231  14.713  27.410  0.00  0.00    -0.327 N 
ATOM     19  H19 UNL     1      11.068  15.744  27.386  0.00  0.00    +0.168 HD
ENDBRANCH   1  14
BRANCH   6  20
ATOM     20  N3  UNL     1       9.452   7.224  24.586  0.00  0.00    -0.305 N 
ATOM     21  C10 UNL     1       9.292   7.152  23.160  0.00  0.00    +0.263 C 
ATOM     22  O2  UNL     1       8.154   7.337  22.645  0.00  0.00    -0.269 OA
ATOM     23  H10 UNL     1      10.413   7.152  24.989  0.00  0.00    +0.149 HD
BRANCH  21  24
ATOM     24  C11 UNL     1      10.451   6.862  22.287  0.00  0.00    +0.129 A 
ATOM     25  C12 UNL     1      11.724   7.377  22.577  0.00  0.00    +0.053 A 
ATOM     26  C13 UNL     1      12.781   7.072  21.719  0.00  0.00    +0.115 A 
ATOM     27  N4  UNL     1      12.567   6.290  20.630  0.00  0.00    -0.244 NA
ATOM     28  C14 UNL     1      11.332   5.797  20.360  0.00  0.00    +0.221 A 
ATOM     29  N5  UNL     1      10.289   6.083  21.183  0.00  0.00    -0.231 NA
ENDBRANCH  21  24
ENDBRANCH   6  20
TORSDOF 3
ENDMDL
MODEL 6
REMARK VINA RESULT:    -6.085     11.691     13.729
REMARK INTER + INTRA:          -7.864
REMARK INTER:                  -7.277
REMARK INTRA:                  -0.586
REMARK UNBOUND:                -0.711
REMARK  Name = /home/qwerty/github/datacon2025hack/step_04_hit_selection/docking/ligands/lig_131.pdb
REMARK  5 active torsions:
REMARK  status: ('A' for Active; 'I' for Inactive)
REMARK    1  A    between atoms: C1_1  and  C2_2
REMARK    2  A    between atoms: C5_6  and  C6_7
REMARK    3  A    between atoms: C9_12  and  N3_13
REMARK    4  A    between atoms: C10_14  and  C11_16
REMARK    5  A    between atoms: C15_22  and  C16_23
REMARK                            x       y       z     vdW  Elec       q    Type
REMARK                         _______ _______ _______ _____ _____    ______ ____
ROOT
ATOM      1  C6  UNL     1      21.370   2.156  26.579  0.00  0.00    +0.248 C 
ATOM      2  O1  UNL     1      22.537   2.559  26.323  0.00  0.00    -0.270 OA
ATOM      3  N2  UNL     1      20.337   2.315  25.590  0.00  0.00    -0.293 N 
ATOM      4  C7  UNL     1      20.343   3.415  24.641  0.00  0.00    +0.110 C 
ATOM      5  C8  UNL     1      19.009   3.336  23.915  0.00  0.00    +0.043 C 
ATOM      6  C9  UNL     1      18.536   1.890  24.092  0.00  0.00    +0.095 C 
ATOM      7  C15 UNL     1      19.237   1.380  25.362  0.00  0.00    +0.093 C 
ATOM      8  C16 UNL     1      19.752  -0.054  25.178  0.00  0.00    +0.030 C 
ENDROOT
BRANCH   1  14
ATOM      9  C1  UNL     1      18.295   0.445  32.994  0.00  0.00    +0.086 C 
ATOM     10  C2  UNL     1      19.091   0.576  31.738  0.00  0.00    +0.106 A 
ATOM     11  N1  UNL     1      18.739   1.413  30.723  0.00  0.00    -0.231 NA
ATOM     12  C3  UNL     1      19.748   1.251  29.849  0.00  0.00    +0.109 A 
ATOM     13  C4  UNL     1      19.934   1.870  28.619  0.00  0.00    +0.046 A 
ATOM     14  C5  UNL     1      21.097   1.536  27.892  0.00  0.00    +0.057 A 
ATOM     15  C17 UNL     1      22.028   0.622  28.456  0.00  0.00    +0.126 A 
ATOM     16  N6  UNL     1      21.792   0.047  29.675  0.00  0.00    -0.235 NA
ATOM     17  C18 UNL     1      20.656   0.371  30.337  0.00  0.00    +0.158 A 
ATOM     18  N7  UNL     1      20.269  -0.069  31.537  0.00  0.00    -0.327 N 
ATOM     19  H19 UNL     1      20.762  -0.737  32.171  0.00  0.00    +0.168 HD
ENDBRANCH   1  14
BRANCH   6  20
ATOM     20  N3  UNL     1      17.078   1.815  24.226  0.00  0.00    -0.305 N 
ATOM     21  C10 UNL     1      16.268   0.978  23.385  0.00  0.00    +0.263 C 
ATOM     22  O2  UNL     1      16.799   0.350  22.427  0.00  0.00    -0.269 OA
ATOM     23  H10 UNL     1      16.639   2.261  25.064  0.00  0.00    +0.149 HD
BRANCH  21  24
ATOM     24  C11 UNL     1      14.816   0.845  23.630  0.00  0.00    +0.129 A 
ATOM     25  C12 UNL     1      14.305   0.763  24.935  0.00  0.00    +0.053 A 
ATOM     26  C13 UNL     1      12.926   0.639  25.108  0.00  0.00    +0.115 A 
ATOM     27  N4  UNL     1      12.107   0.600  24.026  0.00  0.00    -0.244 NA
ATOM     28  C14 UNL     1      12.612   0.681  22.769  0.00  0.00    +0.221 A 
ATOM     29  N5  UNL     1      13.951   0.803  22.579  0.00  0.00    -0.231 NA
ENDBRANCH  21  24
ENDBRANCH   6  20
TORSDOF 3
ENDMDL
MODEL 7
REMARK VINA RESULT:    -6.033     12.109     15.626
REMARK INTER + INTRA:          -7.803
REMARK INTER:                  -7.157
REMARK INTRA:                  -0.645
REMARK UNBOUND:                -0.711
REMARK  Name = /home/qwerty/github/datacon2025hack/step_04_hit_selection/docking/ligands/lig_131.pdb
REMARK  5 active torsions:
REMARK  status: ('A' for Active; 'I' for Inactive)
REMARK    1  A    between atoms: C1_1  and  C2_2
REMARK    2  A    between atoms: C5_6  and  C6_7
REMARK    3  A    between atoms: C9_12  and  N3_13
REMARK    4  A    between atoms: C10_14  and  C11_16
REMARK    5  A    between atoms: C15_22  and  C16_23
REMARK                            x       y       z     vdW  Elec       q    Type
REMARK                         _______ _______ _______ _____ _____    ______ ____
ROOT
ATOM      1  C6  UNL     1      11.315  13.885  29.107  0.00  0.00    +0.248 C 
ATOM      2  O1  UNL     1      11.267  14.715  28.159  0.00  0.00    -0.270 OA
ATOM      3  N2  UNL     1      12.478  13.850  29.954  0.00  0.00    -0.293 N 
ATOM      4  C7  UNL     1      13.799  14.201  29.463  0.00  0.00    +0.110 C 
ATOM      5  C8  UNL     1      14.759  13.853  30.590  0.00  0.00    +0.043 C 
ATOM      6  C9  UNL     1      13.904  13.833  31.861  0.00  0.00    +0.095 C 
ATOM      7  C15 UNL     1      12.469  13.554  31.385  0.00  0.00    +0.093 C 
ATOM      8  C16 UNL     1      11.454  14.431  32.131  0.00  0.00    +0.030 C 
ENDROOT
BRANCH   1  14
ATOM      9  C1  UNL     1       7.304   7.872  30.239  0.00  0.00    +0.086 C 
ATOM     10  C2  UNL     1       7.880   9.235  30.046  0.00  0.00    +0.106 A 
ATOM     11  N1  UNL     1       9.219   9.468  29.971  0.00  0.00    -0.231 NA
ATOM     12  C3  UNL     1       9.272  10.791  29.741  0.00  0.00    +0.109 A 
ATOM     13  C4  UNL     1      10.392  11.594  29.560  0.00  0.00    +0.046 A 
ATOM     14  C5  UNL     1      10.176  12.968  29.316  0.00  0.00    +0.057 A 
ATOM     15  C17 UNL     1       8.844  13.456  29.232  0.00  0.00    +0.126 A 
ATOM     16  N6  UNL     1       7.780  12.615  29.414  0.00  0.00    -0.235 NA
ATOM     17  C18 UNL     1       8.021  11.307  29.670  0.00  0.00    +0.158 A 
ATOM     18  N7  UNL     1       7.116  10.341  29.854  0.00  0.00    -0.327 N 
ATOM     19  H19 UNL     1       6.075  10.419  29.838  0.00  0.00    +0.168 HD
ENDBRANCH   1  14
BRANCH   6  20
ATOM     20  N3  UNL     1      14.362  12.802  32.798  0.00  0.00    -0.305 N 
ATOM     21  C10 UNL     1      14.419  13.021  34.217  0.00  0.00    +0.263 C 
ATOM     22  O2  UNL     1      14.164  14.165  34.686  0.00  0.00    -0.269 OA
ATOM     23  H10 UNL     1      14.493  11.831  32.433  0.00  0.00    +0.149 HD
BRANCH  21  24
ATOM     24  C11 UNL     1      14.776  11.918  35.135  0.00  0.00    +0.129 A 
ATOM     25  C12 UNL     1      15.492  12.160  36.317  0.00  0.00    +0.053 A 
ATOM     26  C13 UNL     1      15.801  11.081  37.145  0.00  0.00    +0.115 A 
ATOM     27  N4  UNL     1      15.410   9.827  36.802  0.00  0.00    -0.244 NA
ATOM     28  C14 UNL     1      14.717   9.605  35.656  0.00  0.00    +0.221 A 
ATOM     29  N5  UNL     1      14.406  10.642  34.836  0.00  0.00    -0.231 NA
ENDBRANCH  21  24
ENDBRANCH   6  20
TORSDOF 3
ENDMDL
MODEL 8
REMARK VINA RESULT:    -5.982     11.852     14.282
REMARK INTER + INTRA:          -7.743
REMARK INTER:                  -7.029
REMARK INTRA:                  -0.713
REMARK UNBOUND:                -0.711
REMARK  Name = /home/qwerty/github/datacon2025hack/step_04_hit_selection/docking/ligands/lig_131.pdb
REMARK  5 active torsions:
REMARK  status: ('A' for Active; 'I' for Inactive)
REMARK    1  A    between atoms: C1_1  and  C2_2
REMARK    2  A    between atoms: C5_6  and  C6_7
REMARK    3  A    between atoms: C9_12  and  N3_13
REMARK    4  A    between atoms: C10_14  and  C11_16
REMARK    5  A    between atoms: C15_22  and  C16_23
REMARK                            x       y       z     vdW  Elec       q    Type
REMARK                         _______ _______ _______ _____ _____    ______ ____
ROOT
ATOM      1  C6  UNL     1      22.189   1.567  28.536  0.00  0.00    +0.248 C 
ATOM      2  O1  UNL     1      23.355   1.166  28.799  0.00  0.00    -0.270 OA
ATOM      3  N2  UNL     1      21.148   1.395  29.515  0.00  0.00    -0.293 N 
ATOM      4  C7  UNL     1      21.150   0.287  30.454  0.00  0.00    +0.110 C 
ATOM      5  C8  UNL     1      19.809   0.355  31.169  0.00  0.00    +0.043 C 
ATOM      6  C9  UNL     1      19.332   1.801  31.001  0.00  0.00    +0.095 C 
ATOM      7  C15 UNL     1      20.042   2.324  29.741  0.00  0.00    +0.093 C 
ATOM      8  C16 UNL     1      20.550   3.759  29.942  0.00  0.00    +0.030 C 
ENDROOT
BRANCH   1  14
ATOM      9  C1  UNL     1      22.204   6.226  22.894  0.00  0.00    +0.086 C 
ATOM     10  C2  UNL     1      22.065   5.104  23.869  0.00  0.00    +0.106 A 
ATOM     11  N1  UNL     1      22.701   5.087  25.073  0.00  0.00    -0.231 NA
ATOM     12  C3  UNL     1      22.249   3.948  25.625  0.00  0.00    +0.109 A 
ATOM     13  C4  UNL     1      22.550   3.413  26.872  0.00  0.00    +0.046 A 
ATOM     14  C5  UNL     1      21.925   2.197  27.226  0.00  0.00    +0.057 A 
ATOM     15  C17 UNL     1      21.004   1.602  26.322  0.00  0.00    +0.126 A 
ATOM     16  N6  UNL     1      20.744   2.180  25.109  0.00  0.00    -0.235 NA
ATOM     17  C18 UNL     1      21.377   3.333  24.790  0.00  0.00    +0.158 A 
ATOM     18  N7  UNL     1      21.236   4.048  23.669  0.00  0.00    -0.327 N 
ATOM     19  H19 UNL     1      20.624   3.846  22.847  0.00  0.00    +0.168 HD
ENDBRANCH   1  14
BRANCH   6  20
ATOM     20  N3  UNL     1      17.875   1.871  30.854  0.00  0.00    -0.305 N 
ATOM     21  C10 UNL     1      17.101   2.970  31.362  0.00  0.00    +0.263 C 
ATOM     22  O2  UNL     1      17.663   3.870  32.046  0.00  0.00    -0.269 OA
ATOM     23  H10 UNL     1      17.412   1.180  30.221  0.00  0.00    +0.149 HD
BRANCH  21  24
ATOM     24  C11 UNL     1      15.650   3.057  31.091  0.00  0.00    +0.129 A 
ATOM     25  C12 UNL     1      15.168   3.345  29.805  0.00  0.00    +0.053 A 
ATOM     26  C13 UNL     1      13.789   3.414  29.607  0.00  0.00    +0.115 A 
ATOM     27  N4  UNL     1      12.941   3.204  30.647  0.00  0.00    -0.244 NA
ATOM     28  C14 UNL     1      13.419   2.926  31.887  0.00  0.00    +0.221 A 
ATOM     29  N5  UNL     1      14.758   2.854  32.101  0.00  0.00    -0.231 NA
ENDBRANCH  21  24
ENDBRANCH   6  20
TORSDOF 3
ENDMDL
MODEL 9
REMARK VINA RESULT:    -5.859     10.861     15.096
REMARK INTER + INTRA:          -7.598
REMARK INTER:                  -6.896
REMARK INTRA:                  -0.701
REMARK UNBOUND:                -0.711
REMARK  Name = /home/qwerty/github/datacon2025hack/step_04_hit_selection/docking/ligands/lig_131.pdb
REMARK  5 active torsions:
REMARK  status: ('A' for Active; 'I' for Inactive)
REMARK    1  A    between atoms: C1_1  and  C2_2
REMARK    2  A    between atoms: C5_6  and  C6_7
REMARK    3  A    between atoms: C9_12  and  N3_13
REMARK    4  A    between atoms: C10_14  and  C11_16
REMARK    5  A    between atoms: C15_22  and  C16_23
REMARK                            x       y       z     vdW  Elec       q    Type
REMARK                         _______ _______ _______ _____ _____    ______ ____
ROOT
ATOM      1  C6  UNL     1      20.670   1.511  31.008  0.00  0.00    +0.248 C 
ATOM      2  O1  UNL     1      20.412   0.287  31.167  0.00  0.00    -0.270 OA
ATOM      3  N2  UNL     1      20.309   2.446  32.042  0.00  0.00    -0.293 N 
ATOM      4  C7  UNL     1      19.161   2.232  32.906  0.00  0.00    +0.110 C 
ATOM      5  C8  UNL     1      19.013   3.514  33.711  0.00  0.00    +0.043 C 
ATOM      6  C9  UNL     1      20.390   4.183  33.668  0.00  0.00    +0.095 C 
ATOM      7  C15 UNL     1      21.070   3.641  32.399  0.00  0.00    +0.093 C 
ATOM      8  C16 UNL     1      22.546   3.307  32.657  0.00  0.00    +0.030 C 
ENDROOT
BRANCH   1  14
ATOM      9  C1  UNL     1      22.137   4.933  24.710  0.00  0.00    +0.086 C 
ATOM     10  C2  UNL     1      22.099   4.138  25.972  0.00  0.00    +0.106 A 
ATOM     11  N1  UNL     1      21.086   4.232  26.877  0.00  0.00    -0.231 NA
ATOM     12  C3  UNL     1      21.432   3.317  27.799  0.00  0.00    +0.109 A 
ATOM     13  C4  UNL     1      20.757   2.961  28.960  0.00  0.00    +0.046 A 
ATOM     14  C5  UNL     1      21.330   1.949  29.762  0.00  0.00    +0.057 A 
ATOM     15  C17 UNL     1      22.533   1.326  29.336  0.00  0.00    +0.126 A 
ATOM     16  N6  UNL     1      23.150   1.716  28.179  0.00  0.00    -0.235 NA
ATOM     17  C18 UNL     1      22.588   2.705  27.444  0.00  0.00    +0.158 A 
ATOM     18  N7  UNL     1      23.031   3.201  26.285  0.00  0.00    -0.327 N 
ATOM     19  H19 UNL     1      23.882   2.924  25.747  0.00  0.00    +0.168 HD
ENDBRANCH   1  14
BRANCH   6  20
ATOM     20  N3  UNL     1      20.275   5.644  33.623  0.00  0.00    -0.305 N 
ATOM     21  C10 UNL     1      21.138   6.509  34.379  0.00  0.00    +0.263 C 
ATOM     22  O2  UNL     1      21.969   6.013  35.191  0.00  0.00    -0.269 OA
ATOM     23  H10 UNL     1      19.653   6.065  32.896  0.00  0.00    +0.149 HD
BRANCH  21  24
ATOM     24  C11 UNL     1      21.063   7.977  34.216  0.00  0.00    +0.129 A 
ATOM     25  C12 UNL     1      20.762   8.813  35.302  0.00  0.00    +0.053 A 
ATOM     26  C13 UNL     1      20.704  10.191  35.090  0.00  0.00    +0.115 A 
ATOM     27  N4  UNL     1      20.937  10.698  33.852  0.00  0.00    -0.244 NA
ATOM     28  C14 UNL     1      21.227   9.880  32.809  0.00  0.00    +0.221 A 
ATOM     29  N5  UNL     1      21.289   8.536  32.995  0.00  0.00    -0.231 NA
ENDBRANCH  21  24
ENDBRANCH   6  20
TORSDOF 3
ENDMDL
