MODEL 1
REMARK VINA RESULT:    -6.818      0.000      0.000
REMARK INTER + INTRA:          -8.022
REMARK INTER:                  -7.615
REMARK INTRA:                  -0.407
REMARK UNBOUND:                -0.407
REMARK  Name = /home/qwerty/github/datacon2025hack/step_04_hit_selection/docking/ligands/lig_577.pdb
REMARK  6 active torsions:
REMARK  status: ('A' for Active; 'I' for Inactive)
REMARK    1  A    between atoms: C1_1  and  N1_2
REMARK    2  A    between atoms: C5_6  and  N2_7
REMARK    3  A    between atoms: N3_10  and  C7_11
REMARK    4  A    between atoms: N4_17  and  C13_18
REMARK    5  A    between atoms: C15_21  and  C16_22
REMARK    6  A    between atoms: C15_21  and  C17_23
REMARK                            x       y       z     vdW  Elec       q    Type
REMARK                         _______ _______ _______ _____ _____    ______ ____
ROOT
ATOM      1  C7  UNL     1      17.489   9.191  19.142  0.00  0.00    +0.037 A 
ATOM      2  C8  UNL     1      16.702  10.348  19.213  0.00  0.00    +0.027 A 
ATOM      3  C9  UNL     1      17.303  11.604  19.263  0.00  0.00    +0.049 A 
ATOM      4  C10 UNL     1      18.695  11.740  19.222  0.00  0.00    +0.142 A 
ATOM      5  C11 UNL     1      19.507  10.578  19.146  0.00  0.00    +0.080 A 
ATOM      6  C12 UNL     1      18.883   9.316  19.093  0.00  0.00    +0.050 A 
ATOM      7  N4  UNL     1      20.947  10.656  19.170  0.00  0.00    -0.271 N 
ATOM      8  C13 UNL     1      21.763   9.701  18.417  0.00  0.00    +0.138 C 
ATOM      9  C14 UNL     1      21.595  11.458  20.167  0.00  0.00    +0.229 C 
ATOM     10  O2  UNL     1      22.314  10.895  21.037  0.00  0.00    -0.275 OA
ATOM     11  C15 UNL     1      21.495  12.967  20.141  0.00  0.00    +0.076 C 
ATOM     12  C16 UNL     1      20.968  13.476  21.498  0.00  0.00    +0.024 C 
ATOM     13  C17 UNL     1      22.899  13.549  19.887  0.00  0.00    +0.024 C 
ATOM     14  C18 UNL     1      20.558  13.424  19.001  0.00  0.00    +0.244 C 
ATOM     15  O3  UNL     1      19.205  13.047  19.245  0.00  0.00    -0.489 OA
ENDROOT
BRANCH   1  19
ATOM     16  N2  UNL     1      15.894   5.838  20.049  0.00  0.00    -0.288 N 
ATOM     17  C6  UNL     1      16.677   7.030  20.200  0.00  0.00    +0.304 C 
ATOM     18  O1  UNL     1      17.199   7.305  21.316  0.00  0.00    -0.252 OA
ATOM     19  N3  UNL     1      16.895   7.883  19.066  0.00  0.00    -0.269 N 
ATOM     20  H11 UNL     1      15.488   5.629  19.109  0.00  0.00    +0.151 HD
ATOM     21  H12 UNL     1      16.691   7.490  18.120  0.00  0.00    +0.156 HD
BRANCH  16  27
ATOM     22  C1  UNL     1      12.339   3.037  20.449  0.00  0.00    +0.132 C 
ATOM     23  N1  UNL     1      13.780   3.281  20.546  0.00  0.00    -0.303 N 
ATOM     24  C2  UNL     1      14.713   2.217  20.153  0.00  0.00    +0.107 C 
ATOM     25  C3  UNL     1      16.102   2.767  19.819  0.00  0.00    +0.021 C 
ATOM     26  C4  UNL     1      16.609   3.658  20.953  0.00  0.00    +0.033 C 
ATOM     27  C5  UNL     1      15.699   4.881  21.143  0.00  0.00    +0.161 C 
ATOM     28  C19 UNL     1      14.249   4.474  21.210  0.00  0.00    +0.236 C 
ATOM     29  O4  UNL     1      13.431   5.236  21.795  0.00  0.00    -0.274 OA
ENDBRANCH  16  27
ENDBRANCH   1  19
TORSDOF 2
ENDMDL
MODEL 2
REMARK VINA RESULT:    -6.528      7.321     11.466
REMARK INTER + INTRA:          -7.699
REMARK INTER:                  -7.297
REMARK INTRA:                  -0.402
REMARK UNBOUND:                -0.407
REMARK  Name = /home/qwerty/github/datacon2025hack/step_04_hit_selection/docking/ligands/lig_577.pdb
REMARK  6 active torsions:
REMARK  status: ('A' for Active; 'I' for Inactive)
REMARK    1  A    between atoms: C1_1  and  N1_2
REMARK    2  A    between atoms: C5_6  and  N2_7
REMARK    3  A    between atoms: N3_10  and  C7_11
REMARK    4  A    between atoms: N4_17  and  C13_18
REMARK    5  A    between atoms: C15_21  and  C16_22
REMARK    6  A    between atoms: C15_21  and  C17_23
REMARK                            x       y       z     vdW  Elec       q    Type
REMARK                         _______ _______ _______ _____ _____    ______ ____
ROOT
ATOM      1  C7  UNL     1      21.326   2.938  25.117  0.00  0.00    +0.037 A 
ATOM      2  C8  UNL     1      22.541   3.015  25.812  0.00  0.00    +0.027 A 
ATOM      3  C9  UNL     1      22.627   2.562  27.128  0.00  0.00    +0.049 A 
ATOM      4  C10 UNL     1      21.516   2.005  27.773  0.00  0.00    +0.142 A 
ATOM      5  C11 UNL     1      20.280   1.917  27.081  0.00  0.00    +0.080 A 
ATOM      6  C12 UNL     1      20.211   2.375  25.751  0.00  0.00    +0.050 A 
ATOM      7  N4  UNL     1      19.088   1.415  27.720  0.00  0.00    -0.271 N 
ATOM      8  C13 UNL     1      18.088   0.663  26.959  0.00  0.00    +0.138 C 
ATOM      9  C14 UNL     1      18.718   1.909  29.015  0.00  0.00    +0.229 C 
ATOM     10  O2  UNL     1      17.654   2.575  29.137  0.00  0.00    -0.275 OA
ATOM     11  C15 UNL     1      19.538   1.576  30.241  0.00  0.00    +0.076 C 
ATOM     12  C16 UNL     1      19.951   2.877  30.959  0.00  0.00    +0.024 C 
ATOM     13  C17 UNL     1      18.678   0.719  31.190  0.00  0.00    +0.024 C 
ATOM     14  C18 UNL     1      20.792   0.765  29.845  0.00  0.00    +0.244 C 
ATOM     15  O3  UNL     1      21.709   1.548  29.085  0.00  0.00    -0.489 OA
ENDROOT
BRANCH   1  19
ATOM     16  N2  UNL     1      21.446   5.041  21.928  0.00  0.00    -0.288 N 
ATOM     17  C6  UNL     1      21.372   4.739  23.328  0.00  0.00    +0.304 C 
ATOM     18  O1  UNL     1      21.407   5.672  24.177  0.00  0.00    -0.252 OA
ATOM     19  N3  UNL     1      21.215   3.377  23.752  0.00  0.00    -0.269 N 
ATOM     20  H11 UNL     1      21.398   4.248  21.249  0.00  0.00    +0.151 HD
ATOM     21  H12 UNL     1      20.913   2.679  23.035  0.00  0.00    +0.156 HD
BRANCH  16  27
ATOM     22  C1  UNL     1      25.033   6.820  19.781  0.00  0.00    +0.132 C 
ATOM     23  N1  UNL     1      23.584   6.651  19.906  0.00  0.00    -0.303 N 
ATOM     24  C2  UNL     1      22.769   6.545  18.687  0.00  0.00    +0.107 C 
ATOM     25  C3  UNL     1      21.420   5.875  18.957  0.00  0.00    +0.021 C 
ATOM     26  C4  UNL     1      20.711   6.556  20.127  0.00  0.00    +0.033 C 
ATOM     27  C5  UNL     1      21.524   6.415  21.422  0.00  0.00    +0.161 C 
ATOM     28  C19 UNL     1      22.966   6.795  21.203  0.00  0.00    +0.236 C 
ATOM     29  O4  UNL     1      23.653   7.170  22.192  0.00  0.00    -0.274 OA
ENDBRANCH  16  27
ENDBRANCH   1  19
TORSDOF 2
ENDMDL
MODEL 3
REMARK VINA RESULT:    -6.488     17.136     20.627
REMARK INTER + INTRA:          -7.653
REMARK INTER:                  -7.265
REMARK INTRA:                  -0.388
REMARK UNBOUND:                -0.407
REMARK  Name = /home/qwerty/github/datacon2025hack/step_04_hit_selection/docking/ligands/lig_577.pdb
REMARK  6 active torsions:
REMARK  status: ('A' for Active; 'I' for Inactive)
REMARK    1  A    between atoms: C1_1  and  N1_2
REMARK    2  A    between atoms: C5_6  and  N2_7
REMARK    3  A    between atoms: N3_10  and  C7_11
REMARK    4  A    between atoms: N4_17  and  C13_18
REMARK    5  A    between atoms: C15_21  and  C16_22
REMARK    6  A    between atoms: C15_21  and  C17_23
REMARK                            x       y       z     vdW  Elec       q    Type
REMARK                         _______ _______ _______ _____ _____    ______ ____
ROOT
ATOM      1  C7  UNL     1      12.597   4.874  38.373  0.00  0.00    +0.037 A 
ATOM      2  C8  UNL     1      11.393   5.591  38.398  0.00  0.00    +0.027 A 
ATOM      3  C9  UNL     1      10.174   4.921  38.302  0.00  0.00    +0.049 A 
ATOM      4  C10 UNL     1      10.124   3.525  38.200  0.00  0.00    +0.142 A 
ATOM      5  C11 UNL     1      11.334   2.784  38.178  0.00  0.00    +0.080 A 
ATOM      6  C12 UNL     1      12.557   3.477  38.279  0.00  0.00    +0.050 A 
ATOM      7  N4  UNL     1      11.343   1.352  38.006  0.00  0.00    -0.271 N 
ATOM      8  C13 UNL     1      12.360   0.525  38.659  0.00  0.00    +0.138 C 
ATOM      9  C14 UNL     1      10.563   0.760  36.958  0.00  0.00    +0.229 C 
ATOM     10  O2  UNL     1      11.152   0.170  36.011  0.00  0.00    -0.275 OA
ATOM     11  C15 UNL     1       9.052   0.764  37.014  0.00  0.00    +0.076 C 
ATOM     12  C16 UNL     1       8.486   1.394  35.724  0.00  0.00    +0.024 C 
ATOM     13  C17 UNL     1       8.561  -0.692  37.129  0.00  0.00    +0.024 C 
ATOM     14  C18 UNL     1       8.561   1.549  38.249  0.00  0.00    +0.244 C 
ATOM     15  O3  UNL     1       8.850   2.940  38.142  0.00  0.00    -0.489 OA
ENDROOT
BRANCH   1  19
ATOM     16  N2  UNL     1      15.850   6.720  37.587  0.00  0.00    -0.288 N 
ATOM     17  C6  UNL     1      14.705   5.880  37.379  0.00  0.00    +0.304 C 
ATOM     18  O1  UNL     1      14.462   5.418  36.230  0.00  0.00    -0.252 OA
ATOM     19  N3  UNL     1      13.867   5.537  38.492  0.00  0.00    -0.269 N 
ATOM     20  H11 UNL     1      16.034   7.074  38.553  0.00  0.00    +0.151 HD
ATOM     21  H12 UNL     1      14.247   5.700  39.452  0.00  0.00    +0.156 HD
BRANCH  16  27
ATOM     22  C1  UNL     1      18.789  10.183  37.664  0.00  0.00    +0.132 C 
ATOM     23  N1  UNL     1      18.483   8.784  37.354  0.00  0.00    -0.303 N 
ATOM     24  C2  UNL     1      19.515   7.761  37.574  0.00  0.00    +0.107 C 
ATOM     25  C3  UNL     1      18.913   6.360  37.705  0.00  0.00    +0.021 C 
ATOM     26  C4  UNL     1      17.980   6.068  36.530  0.00  0.00    +0.033 C 
ATOM     27  C5  UNL     1      16.793   7.043  36.512  0.00  0.00    +0.161 C 
ATOM     28  C19 UNL     1      17.259   8.469  36.656  0.00  0.00    +0.236 C 
ATOM     29  O4  UNL     1      16.522   9.396  36.223  0.00  0.00    -0.274 OA
ENDBRANCH  16  27
ENDBRANCH   1  19
TORSDOF 2
ENDMDL
MODEL 4
REMARK VINA RESULT:    -6.459      8.972     11.035
REMARK INTER + INTRA:          -7.622
REMARK INTER:                  -7.261
REMARK INTRA:                  -0.360
REMARK UNBOUND:                -0.407
REMARK  Name = /home/qwerty/github/datacon2025hack/step_04_hit_selection/docking/ligands/lig_577.pdb
REMARK  6 active torsions:
REMARK  status: ('A' for Active; 'I' for Inactive)
REMARK    1  A    between atoms: C1_1  and  N1_2
REMARK    2  A    between atoms: C5_6  and  N2_7
REMARK    3  A    between atoms: N3_10  and  C7_11
REMARK    4  A    between atoms: N4_17  and  C13_18
REMARK    5  A    between atoms: C15_21  and  C16_22
REMARK    6  A    between atoms: C15_21  and  C17_23
REMARK                            x       y       z     vdW  Elec       q    Type
REMARK                         _______ _______ _______ _____ _____    ______ ____
ROOT
ATOM      1  C7  UNL     1      12.967   1.223  21.690  0.00  0.00    +0.037 A 
ATOM      2  C8  UNL     1      13.881   1.313  20.631  0.00  0.00    +0.027 A 
ATOM      3  C9  UNL     1      15.128   0.696  20.725  0.00  0.00    +0.049 A 
ATOM      4  C10 UNL     1      15.484  -0.041  21.861  0.00  0.00    +0.142 A 
ATOM      5  C11 UNL     1      14.568  -0.145  22.940  0.00  0.00    +0.080 A 
ATOM      6  C12 UNL     1      13.312   0.482  22.827  0.00  0.00    +0.050 A 
ATOM      7  N4  UNL     1      14.910  -0.834  24.160  0.00  0.00    -0.271 N 
ATOM      8  C13 UNL     1      13.893  -1.562  24.921  0.00  0.00    +0.138 C 
ATOM      9  C14 UNL     1      16.162  -0.555  24.803  0.00  0.00    +0.229 C 
ATOM     10  O2  UNL     1      16.161  -0.009  25.940  0.00  0.00    -0.275 OA
ATOM     11  C15 UNL     1      17.472  -0.976  24.176  0.00  0.00    +0.076 C 
ATOM     12  C16 UNL     1      18.401   0.247  24.044  0.00  0.00    +0.024 C 
ATOM     13  C17 UNL     1      18.137  -2.027  25.086  0.00  0.00    +0.024 C 
ATOM     14  C18 UNL     1      17.225  -1.610  22.789  0.00  0.00    +0.244 C 
ATOM     15  O3  UNL     1      16.747  -0.653  21.848  0.00  0.00    -0.489 OA
ENDROOT
BRANCH   1  19
ATOM     16  N2  UNL     1      10.020   3.623  22.087  0.00  0.00    -0.288 N 
ATOM     17  C6  UNL     1      11.260   2.968  22.387  0.00  0.00    +0.304 C 
ATOM     18  O1  UNL     1      11.969   3.370  23.351  0.00  0.00    -0.252 OA
ATOM     19  N3  UNL     1      11.667   1.831  21.611  0.00  0.00    -0.269 N 
ATOM     20  H11 UNL     1       9.447   3.257  21.292  0.00  0.00    +0.151 HD
ATOM     21  H12 UNL     1      10.942   1.365  21.020  0.00  0.00    +0.156 HD
BRANCH  16  27
ATOM     22  C1  UNL     1       9.487   7.877  20.584  0.00  0.00    +0.132 C 
ATOM     23  N1  UNL     1       8.995   6.731  21.352  0.00  0.00    -0.303 N 
ATOM     24  C2  UNL     1       7.556   6.433  21.348  0.00  0.00    +0.107 C 
ATOM     25  C3  UNL     1       7.270   4.980  21.735  0.00  0.00    +0.021 C 
ATOM     26  C4  UNL     1       7.981   4.627  23.042  0.00  0.00    +0.033 C 
ATOM     27  C5  UNL     1       9.505   4.737  22.888  0.00  0.00    +0.161 C 
ATOM     28  C19 UNL     1       9.894   6.046  22.249  0.00  0.00    +0.236 C 
ATOM     29  O4  UNL     1      11.053   6.499  22.451  0.00  0.00    -0.274 OA
ENDBRANCH  16  27
ENDBRANCH   1  19
TORSDOF 2
ENDMDL
MODEL 5
REMARK VINA RESULT:    -6.369     12.968     14.967
REMARK INTER + INTRA:          -7.521
REMARK INTER:                  -7.078
REMARK INTRA:                  -0.443
REMARK UNBOUND:                -0.407
REMARK  Name = /home/qwerty/github/datacon2025hack/step_04_hit_selection/docking/ligands/lig_577.pdb
REMARK  6 active torsions:
REMARK  status: ('A' for Active; 'I' for Inactive)
REMARK    1  A    between atoms: C1_1  and  N1_2
REMARK    2  A    between atoms: C5_6  and  N2_7
REMARK    3  A    between atoms: N3_10  and  C7_11
REMARK    4  A    between atoms: N4_17  and  C13_18
REMARK    5  A    between atoms: C15_21  and  C16_22
REMARK    6  A    between atoms: C15_21  and  C17_23
REMARK                            x       y       z     vdW  Elec       q    Type
REMARK                         _______ _______ _______ _____ _____    ______ ____
ROOT
ATOM      1  C7  UNL     1      20.228   1.500  32.351  0.00  0.00    +0.037 A 
ATOM      2  C8  UNL     1      20.490   0.285  31.704  0.00  0.00    +0.027 A 
ATOM      3  C9  UNL     1      21.040   0.275  30.424  0.00  0.00    +0.049 A 
ATOM      4  C10 UNL     1      21.362   1.469  29.768  0.00  0.00    +0.142 A 
ATOM      5  C11 UNL     1      21.107   2.708  30.411  0.00  0.00    +0.080 A 
ATOM      6  C12 UNL     1      20.553   2.700  31.706  0.00  0.00    +0.050 A 
ATOM      7  N4  UNL     1      21.355   3.969  29.754  0.00  0.00    -0.271 N 
ATOM      8  C13 UNL     1      21.794   5.138  30.518  0.00  0.00    +0.138 C 
ATOM      9  C14 UNL     1      20.879   4.175  28.417  0.00  0.00    +0.229 C 
ATOM     10  O2  UNL     1      19.990   5.046  28.209  0.00  0.00    -0.275 OA
ATOM     11  C15 UNL     1      21.481   3.427  27.250  0.00  0.00    +0.076 C 
ATOM     12  C16 UNL     1      20.368   2.696  26.471  0.00  0.00    +0.024 C 
ATOM     13  C17 UNL     1      22.174   4.441  26.320  0.00  0.00    +0.024 C 
ATOM     14  C18 UNL     1      22.536   2.414  27.747  0.00  0.00    +0.244 C 
ATOM     15  O3  UNL     1      21.942   1.356  28.495  0.00  0.00    -0.489 OA
ENDROOT
BRANCH   1  19
ATOM     16  N2  UNL     1      17.937   1.071  35.380  0.00  0.00    -0.288 N 
ATOM     17  C6  UNL     1      18.325   1.198  34.005  0.00  0.00    +0.304 C 
ATOM     18  O1  UNL     1      17.469   1.046  33.091  0.00  0.00    -0.252 OA
ATOM     19  N3  UNL     1      19.681   1.539  33.681  0.00  0.00    -0.269 N 
ATOM     20  H11 UNL     1      18.665   1.218  36.115  0.00  0.00    +0.151 HD
ATOM     21  H12 UNL     1      20.279   1.925  34.446  0.00  0.00    +0.156 HD
BRANCH  16  27
ATOM     22  C1  UNL     1      16.600  -2.464  37.902  0.00  0.00    +0.132 C 
ATOM     23  N1  UNL     1      16.524  -1.038  37.573  0.00  0.00    -0.303 N 
ATOM     24  C2  UNL     1      16.361  -0.061  38.659  0.00  0.00    +0.107 C 
ATOM     25  C3  UNL     1      16.808   1.341  38.240  0.00  0.00    +0.021 C 
ATOM     26  C4  UNL     1      16.139   1.745  36.926  0.00  0.00    +0.033 C 
ATOM     27  C5  UNL     1      16.552   0.805  35.784  0.00  0.00    +0.161 C 
ATOM     28  C19 UNL     1      16.410  -0.640  36.190  0.00  0.00    +0.236 C 
ATOM     29  O4  UNL     1      16.264  -1.512  35.291  0.00  0.00    -0.274 OA
ENDBRANCH  16  27
ENDBRANCH   1  19
TORSDOF 2
ENDMDL
MODEL 6
REMARK VINA RESULT:    -6.355      7.655      9.424
REMARK INTER + INTRA:          -7.505
REMARK INTER:                  -7.183
REMARK INTRA:                  -0.322
REMARK UNBOUND:                -0.407
REMARK  Name = /home/qwerty/github/datacon2025hack/step_04_hit_selection/docking/ligands/lig_577.pdb
REMARK  6 active torsions:
REMARK  status: ('A' for Active; 'I' for Inactive)
REMARK    1  A    between atoms: C1_1  and  N1_2
REMARK    2  A    between atoms: C5_6  and  N2_7
REMARK    3  A    between atoms: N3_10  and  C7_11
REMARK    4  A    between atoms: N4_17  and  C13_18
REMARK    5  A    between atoms: C15_21  and  C16_22
REMARK    6  A    between atoms: C15_21  and  C17_23
REMARK                            x       y       z     vdW  Elec       q    Type
REMARK                         _______ _______ _______ _____ _____    ______ ____
ROOT
ATOM      1  C7  UNL     1      10.843   4.080  20.884  0.00  0.00    +0.037 A 
ATOM      2  C8  UNL     1       9.622   3.607  21.382  0.00  0.00    +0.027 A 
ATOM      3  C9  UNL     1       8.621   4.503  21.755  0.00  0.00    +0.049 A 
ATOM      4  C10 UNL     1       8.803   5.885  21.622  0.00  0.00    +0.142 A 
ATOM      5  C11 UNL     1      10.033   6.380  21.116  0.00  0.00    +0.080 A 
ATOM      6  C12 UNL     1      11.033   5.461  20.740  0.00  0.00    +0.050 A 
ATOM      7  N4  UNL     1      10.300   7.794  21.022  0.00  0.00    -0.271 N 
ATOM      8  C13 UNL     1      11.124   8.332  19.937  0.00  0.00    +0.138 C 
ATOM      9  C14 UNL     1      10.031   8.641  22.148  0.00  0.00    +0.229 C 
ATOM     10  O2  UNL     1      10.993   9.214  22.729  0.00  0.00    -0.275 OA
ATOM     11  C15 UNL     1       8.613   8.918  22.594  0.00  0.00    +0.076 C 
ATOM     12  C16 UNL     1       8.459   8.562  24.087  0.00  0.00    +0.024 C 
ATOM     13  C17 UNL     1       8.319  10.418  22.394  0.00  0.00    +0.024 C 
ATOM     14  C18 UNL     1       7.613   8.103  21.746  0.00  0.00    +0.244 C 
ATOM     15  O3  UNL     1       7.727   6.704  21.993  0.00  0.00    -0.489 OA
ENDROOT
BRANCH   1  19
ATOM     16  N2  UNL     1      14.045   1.997  20.763  0.00  0.00    -0.288 N 
ATOM     17  C6  UNL     1      13.159   3.066  21.122  0.00  0.00    +0.304 C 
ATOM     18  O1  UNL     1      13.516   3.921  21.978  0.00  0.00    -0.252 OA
ATOM     19  N3  UNL     1      11.884   3.178  20.471  0.00  0.00    -0.269 N 
ATOM     20  H11 UNL     1      13.727   1.313  20.039  0.00  0.00    +0.151 HD
ATOM     21  H12 UNL     1      11.741   2.634  19.590  0.00  0.00    +0.156 HD
BRANCH  16  27
ATOM     22  C1  UNL     1      15.441  -1.421  23.410  0.00  0.00    +0.132 C 
ATOM     23  N1  UNL     1      15.687  -0.485  22.311  0.00  0.00    -0.303 N 
ATOM     24  C2  UNL     1      16.438  -0.944  21.134  0.00  0.00    +0.107 C 
ATOM     25  C3  UNL     1      16.172  -0.069  19.908  0.00  0.00    +0.021 C 
ATOM     26  C4  UNL     1      16.383   1.406  20.249  0.00  0.00    +0.033 C 
ATOM     27  C5  UNL     1      15.392   1.870  21.327  0.00  0.00    +0.161 C 
ATOM     28  C19 UNL     1      15.368   0.912  22.491  0.00  0.00    +0.236 C 
ATOM     29  O4  UNL     1      14.988   1.334  23.617  0.00  0.00    -0.274 OA
ENDBRANCH  16  27
ENDBRANCH   1  19
TORSDOF 2
ENDMDL
MODEL 7
REMARK VINA RESULT:    -6.314      6.715     10.842
REMARK INTER + INTRA:          -7.460
REMARK INTER:                  -7.015
REMARK INTRA:                  -0.445
REMARK UNBOUND:                -0.407
REMARK  Name = /home/qwerty/github/datacon2025hack/step_04_hit_selection/docking/ligands/lig_577.pdb
REMARK  6 active torsions:
REMARK  status: ('A' for Active; 'I' for Inactive)
REMARK    1  A    between atoms: C1_1  and  N1_2
REMARK    2  A    between atoms: C5_6  and  N2_7
REMARK    3  A    between atoms: N3_10  and  C7_11
REMARK    4  A    between atoms: N4_17  and  C13_18
REMARK    5  A    between atoms: C15_21  and  C16_22
REMARK    6  A    between atoms: C15_21  and  C17_23
REMARK                            x       y       z     vdW  Elec       q    Type
REMARK                         _______ _______ _______ _____ _____    ______ ____
ROOT
ATOM      1  C7  UNL     1      17.572   0.790  24.358  0.00  0.00    +0.037 A 
ATOM      2  C8  UNL     1      17.346  -0.318  23.530  0.00  0.00    +0.027 A 
ATOM      3  C9  UNL     1      16.729  -0.155  22.291  0.00  0.00    +0.049 A 
ATOM      4  C10 UNL     1      16.344   1.113  21.838  0.00  0.00    +0.142 A 
ATOM      5  C11 UNL     1      16.569   2.246  22.663  0.00  0.00    +0.080 A 
ATOM      6  C12 UNL     1      17.197   2.063  23.911  0.00  0.00    +0.050 A 
ATOM      7  N4  UNL     1      16.131   3.565  22.276  0.00  0.00    -0.271 N 
ATOM      8  C13 UNL     1      16.901   4.751  22.653  0.00  0.00    +0.138 C 
ATOM      9  C14 UNL     1      14.792   3.753  21.799  0.00  0.00    +0.229 C 
ATOM     10  O2  UNL     1      13.991   4.453  22.477  0.00  0.00    -0.275 OA
ATOM     11  C15 UNL     1      14.353   3.195  20.464  0.00  0.00    +0.076 C 
ATOM     12  C16 UNL     1      13.101   2.315  20.655  0.00  0.00    +0.024 C 
ATOM     13  C17 UNL     1      14.013   4.370  19.527  0.00  0.00    +0.024 C 
ATOM     14  C18 UNL     1      15.492   2.370  19.826  0.00  0.00    +0.244 C 
ATOM     15  O3  UNL     1      15.761   1.180  20.564  0.00  0.00    -0.489 OA
ENDROOT
BRANCH   1  19
ATOM     16  N2  UNL     1      20.074   1.055  27.235  0.00  0.00    -0.288 N 
ATOM     17  C6  UNL     1      19.583   1.041  25.887  0.00  0.00    +0.304 C 
ATOM     18  O1  UNL     1      20.354   1.333  24.932  0.00  0.00    -0.252 OA
ATOM     19  N3  UNL     1      18.225   0.653  25.632  0.00  0.00    -0.269 N 
ATOM     20  H11 UNL     1      19.416   0.793  28.003  0.00  0.00    +0.151 HD
ATOM     21  H12 UNL     1      17.712   0.158  26.396  0.00  0.00    +0.156 HD
BRANCH  16  27
ATOM     22  C1  UNL     1      21.415   4.239  30.186  0.00  0.00    +0.132 C 
ATOM     23  N1  UNL     1      21.551   2.894  29.620  0.00  0.00    -0.303 N 
ATOM     24  C2  UNL     1      21.880   1.774  30.511  0.00  0.00    +0.107 C 
ATOM     25  C3  UNL     1      21.486   0.425  29.905  0.00  0.00    +0.021 C 
ATOM     26  C4  UNL     1      22.052   0.289  28.492  0.00  0.00    +0.033 C 
ATOM     27  C5  UNL     1      21.470   1.362  27.560  0.00  0.00    +0.161 C 
ATOM     28  C19 UNL     1      21.557   2.731  28.186  0.00  0.00    +0.236 C 
ATOM     29  O4  UNL     1      21.560   3.744  27.434  0.00  0.00    -0.274 OA
ENDBRANCH  16  27
ENDBRANCH   1  19
TORSDOF 2
ENDMDL
MODEL 8
REMARK VINA RESULT:    -6.199      7.071     10.071
REMARK INTER + INTRA:          -7.331
REMARK INTER:                  -6.865
REMARK INTRA:                  -0.467
REMARK UNBOUND:                -0.407
REMARK  Name = /home/qwerty/github/datacon2025hack/step_04_hit_selection/docking/ligands/lig_577.pdb
REMARK  6 active torsions:
REMARK  status: ('A' for Active; 'I' for Inactive)
REMARK    1  A    between atoms: C1_1  and  N1_2
REMARK    2  A    between atoms: C5_6  and  N2_7
REMARK    3  A    between atoms: N3_10  and  C7_11
REMARK    4  A    between atoms: N4_17  and  C13_18
REMARK    5  A    between atoms: C15_21  and  C16_22
REMARK    6  A    between atoms: C15_21  and  C17_23
REMARK                            x       y       z     vdW  Elec       q    Type
REMARK                         _______ _______ _______ _____ _____    ______ ____
ROOT
ATOM      1  C7  UNL     1      14.654   4.268  21.004  0.00  0.00    +0.037 A 
ATOM      2  C8  UNL     1      15.542   3.829  20.013  0.00  0.00    +0.027 A 
ATOM      3  C9  UNL     1      16.036   2.526  20.040  0.00  0.00    +0.049 A 
ATOM      4  C10 UNL     1      15.644   1.626  21.037  0.00  0.00    +0.142 A 
ATOM      5  C11 UNL     1      14.742   2.054  22.047  0.00  0.00    +0.080 A 
ATOM      6  C12 UNL     1      14.249   3.373  22.003  0.00  0.00    +0.050 A 
ATOM      7  N4  UNL     1      14.358   1.190  23.136  0.00  0.00    -0.271 N 
ATOM      8  C13 UNL     1      13.016   1.267  23.717  0.00  0.00    +0.138 C 
ATOM      9  C14 UNL     1      15.368   0.477  23.863  0.00  0.00    +0.229 C 
ATOM     10  O2  UNL     1      15.560   0.753  25.079  0.00  0.00    -0.275 OA
ATOM     11  C15 UNL     1      16.144  -0.649  23.219  0.00  0.00    +0.076 C 
ATOM     12  C16 UNL     1      17.657  -0.373  23.341  0.00  0.00    +0.024 C 
ATOM     13  C17 UNL     1      15.804  -1.963  23.949  0.00  0.00    +0.024 C 
ATOM     14  C18 UNL     1      15.748  -0.795  21.733  0.00  0.00    +0.244 C 
ATOM     15  O3  UNL     1      16.169   0.327  20.961  0.00  0.00    -0.489 OA
ENDROOT
BRANCH   1  19
ATOM     16  N2  UNL     1      12.275   7.248  20.750  0.00  0.00    -0.288 N 
ATOM     17  C6  UNL     1      12.791   5.927  20.533  0.00  0.00    +0.304 C 
ATOM     18  O1  UNL     1      12.099   5.073  19.914  0.00  0.00    -0.252 OA
ATOM     19  N3  UNL     1      14.112   5.600  20.988  0.00  0.00    -0.269 N 
ATOM     20  H11 UNL     1      12.877   7.938  21.252  0.00  0.00    +0.151 HD
ATOM     21  H12 UNL     1      14.747   6.391  21.238  0.00  0.00    +0.156 HD
BRANCH  16  27
ATOM     22  C1  UNL     1       8.665   8.208  23.337  0.00  0.00    +0.132 C 
ATOM     23  N1  UNL     1       9.524   8.517  22.191  0.00  0.00    -0.303 N 
ATOM     24  C2  UNL     1       9.800   9.923  21.863  0.00  0.00    +0.107 C 
ATOM     25  C3  UNL     1      11.067  10.075  21.019  0.00  0.00    +0.021 C 
ATOM     26  C4  UNL     1      11.016   9.146  19.806  0.00  0.00    +0.033 C 
ATOM     27  C5  UNL     1      10.967   7.674  20.241  0.00  0.00    +0.161 C 
ATOM     28  C19 UNL     1       9.914   7.453  21.296  0.00  0.00    +0.236 C 
ATOM     29  O4  UNL     1       9.428   6.298  21.437  0.00  0.00    -0.274 OA
ENDBRANCH  16  27
ENDBRANCH   1  19
TORSDOF 2
ENDMDL
MODEL 9
REMARK VINA RESULT:    -6.141      7.869     11.414
REMARK INTER + INTRA:          -7.266
REMARK INTER:                  -6.870
REMARK INTRA:                  -0.396
REMARK UNBOUND:                -0.407
REMARK  Name = /home/qwerty/github/datacon2025hack/step_04_hit_selection/docking/ligands/lig_577.pdb
REMARK  6 active torsions:
REMARK  status: ('A' for Active; 'I' for Inactive)
REMARK    1  A    between atoms: C1_1  and  N1_2
REMARK    2  A    between atoms: C5_6  and  N2_7
REMARK    3  A    between atoms: N3_10  and  C7_11
REMARK    4  A    between atoms: N4_17  and  C13_18
REMARK    5  A    between atoms: C15_21  and  C16_22
REMARK    6  A    between atoms: C15_21  and  C17_23
REMARK                            x       y       z     vdW  Elec       q    Type
REMARK                         _______ _______ _______ _____ _____    ______ ____
ROOT
ATOM      1  C7  UNL     1      22.285   4.508  26.337  0.00  0.00    +0.037 A 
ATOM      2  C8  UNL     1      22.902   3.250  26.366  0.00  0.00    +0.027 A 
ATOM      3  C9  UNL     1      22.511   2.297  27.306  0.00  0.00    +0.049 A 
ATOM      4  C10 UNL     1      21.487   2.566  28.222  0.00  0.00    +0.142 A 
ATOM      5  C11 UNL     1      20.850   3.834  28.204  0.00  0.00    +0.080 A 
ATOM      6  C12 UNL     1      21.254   4.784  27.245  0.00  0.00    +0.050 A 
ATOM      7  N4  UNL     1      19.837   4.187  29.168  0.00  0.00    -0.271 N 
ATOM      8  C13 UNL     1      18.724   5.065  28.800  0.00  0.00    +0.138 C 
ATOM      9  C14 UNL     1      20.073   3.946  30.562  0.00  0.00    +0.229 C 
ATOM     10  O2  UNL     1      20.165   4.928  31.349  0.00  0.00    -0.275 OA
ATOM     11  C15 UNL     1      20.132   2.539  31.111  0.00  0.00    +0.076 C 
ATOM     12  C16 UNL     1      21.459   2.332  31.869  0.00  0.00    +0.024 C 
ATOM     13  C17 UNL     1      18.952   2.340  32.083  0.00  0.00    +0.024 C 
ATOM     14  C18 UNL     1      20.006   1.509  29.967  0.00  0.00    +0.244 C 
ATOM     15  O3  UNL     1      21.143   1.533  29.107  0.00  0.00    -0.489 OA
ENDROOT
BRANCH   1  19
ATOM     16  N2  UNL     1      22.416   6.683  23.197  0.00  0.00    -0.288 N 
ATOM     17  C6  UNL     1      22.148   5.539  24.021  0.00  0.00    +0.304 C 
ATOM     18  O1  UNL     1      21.505   4.560  23.552  0.00  0.00    -0.252 OA
ATOM     19  N3  UNL     1      22.653   5.501  25.364  0.00  0.00    -0.269 N 
ATOM     20  H11 UNL     1      22.965   7.471  23.609  0.00  0.00    +0.151 HD
ATOM     21  H12 UNL     1      23.400   6.185  25.620  0.00  0.00    +0.156 HD
BRANCH  16  27
ATOM     22  C1  UNL     1      21.149  10.481  21.049  0.00  0.00    +0.132 C 
ATOM     23  N1  UNL     1      21.882   9.212  21.060  0.00  0.00    -0.303 N 
ATOM     24  C2  UNL     1      23.184   9.134  20.383  0.00  0.00    +0.107 C 
ATOM     25  C3  UNL     1      24.030   7.968  20.902  0.00  0.00    +0.021 C 
ATOM     26  C4  UNL     1      23.226   6.668  20.868  0.00  0.00    +0.033 C 
ATOM     27  C5  UNL     1      22.002   6.753  21.792  0.00  0.00    +0.161 C 
ATOM     28  C19 UNL     1      21.227   8.024  21.554  0.00  0.00    +0.236 C 
ATOM     29  O4  UNL     1      20.006   8.059  21.866  0.00  0.00    -0.274 OA
ENDBRANCH  16  27
ENDBRANCH   1  19
TORSDOF 2
ENDMDL
