REMARK  Name = /home/qwerty/github/datacon2025hack/step_04_hit_selection/docking/ligands/lig_307.pdb
REMARK  8 active torsions:
REMARK  status: ('A' for Active; 'I' for Inactive)
REMARK    1  A    between atoms: C1_1  and  C2_2
REMARK    2  A    between atoms: C2_2  and  C3_3
REMARK    3  A    between atoms: C3_3  and  C4_4
REMARK    4  A    between atoms: C3_3  and  C5_5
REMARK    5  A    between atoms: N6_19  and  C13_20
REMARK    6  A    between atoms: C13_20  and  C14_21
REMARK    7  A    between atoms: N7_24  and  C17_25
REMARK    8  A    between atoms: C17_25  and  C18_26
REMARK                            x       y       z     vdW  Elec       q    Type
REMARK                         _______ _______ _______ _____ _____    ______ ____
ROOT
ATOM      1  C5  UNL     1       0.227   2.314  -0.195  0.00  0.00    +0.138 A 
ATOM      2  N1  UNL     1      -0.672   3.058   0.481  0.00  0.00    -0.132 NA
ATOM      3  N2  UNL     1      -1.564   2.229   0.999  0.00  0.00    -0.113 NA
ATOM      4  C6  UNL     1      -1.209   0.987   0.622  0.00  0.00    +0.220 A 
ATOM      5  N3  UNL     1      -1.941  -0.187   1.023  0.00  0.00    -0.296 N 
ATOM      6  C7  UNL     1      -2.548  -0.214   2.364  0.00  0.00    +0.127 C 
ATOM      7  C8  UNL     1      -4.070  -0.142   2.236  0.00  0.00    +0.128 C 
ATOM      8  N4  UNL     1      -4.514  -1.095   1.223  0.00  0.00    -0.278 N 
ATOM      9  C9  UNL     1      -5.773  -1.111   0.589  0.00  0.00    +0.303 C 
ATOM     10  O1  UNL     1      -6.763  -0.436   0.976  0.00  0.00    -0.253 OA
ATOM     11  N5  UNL     1      -5.797  -1.950  -0.542  0.00  0.00    -0.297 N 
ATOM     12  C10 UNL     1      -4.470  -2.533  -0.703  0.00  0.00    +0.129 C 
ATOM     13  C11 UNL     1      -3.615  -1.965   0.469  0.00  0.00    +0.112 C 
ATOM     14  C12 UNL     1      -2.381  -1.162   0.004  0.00  0.00    +0.132 C 
ATOM     15  N6  UNL     1      -0.086   0.996  -0.136  0.00  0.00    -0.299 N 
ATOM     16  H14 UNL     1      -6.620  -2.120  -1.162  0.00  0.00    +0.150 HD
ENDROOT
BRANCH   1  17
ATOM     17  C3  UNL     1       1.401   2.904  -0.951  0.00  0.00    +0.054 C 
ATOM     18  C4  UNL     1       1.082   2.999  -2.449  0.00  0.00    +0.015 C 
BRANCH  17  20
ATOM     19  C1  UNL     1       1.041   5.472  -0.725  0.00  0.00    +0.004 C 
ATOM     20  C2  UNL     1       1.889   4.249  -0.355  0.00  0.00    +0.007 C 
ENDBRANCH  17  20
ENDBRANCH   1  17
BRANCH  15  21
ATOM     21  C13 UNL     1       0.670  -0.144  -0.673  0.00  0.00    +0.131 C 
BRANCH  21  22
ATOM     22  C14 UNL     1       1.276  -1.004   0.460  0.00  0.00    +0.024 C 
ATOM     23  C15 UNL     1       2.347  -0.258   1.242  0.00  0.00    +0.022 C 
ATOM     24  C16 UNL     1       3.670  -0.645   0.588  0.00  0.00    +0.085 C 
ATOM     25  N7  UNL     1       3.403  -1.725  -0.378  0.00  0.00    -0.302 NA
ATOM     26  C19 UNL     1       2.037  -2.194  -0.107  0.00  0.00    +0.089 C 
BRANCH  25  27
ATOM     27  C17 UNL     1       4.405  -2.805  -0.286  0.00  0.00    +0.081 C 
ATOM     28  C18 UNL     1       4.280  -3.769  -1.463  0.00  0.00    +0.020 C 
ENDBRANCH  25  27
ENDBRANCH  21  22
ENDBRANCH  15  21
TORSDOF 5
