REMARK  Name = /home/qwerty/github/datacon2025hack/step_04_hit_selection/docking/ligands/lig_322.pdb
REMARK  10 active torsions:
REMARK  status: ('A' for Active; 'I' for Inactive)
REMARK    1  A    between atoms: C1_1  and  C2_2
REMARK    2  A    between atoms: C7_7  and  C8_8
REMARK    3  A    between atoms: N1_10  and  C9_11
REMARK    4  A    between atoms: C12_15  and  C13_17
REMARK    5  A    between atoms: C13_17  and  O3_18
REMARK    6  A    between atoms: O3_18  and  C14_19
REMARK    7  A    between atoms: C14_19  and  C15_21
REMARK    8  A    between atoms: C20_26  and  O5_27
REMARK    9  A    between atoms: O5_27  and  C21_28
REMARK   10  A    between atoms: C21_28  and  C22_30
REMARK                            x       y       z     vdW  Elec       q    Type
REMARK                         _______ _______ _______ _____ _____    ______ ____
ROOT
ATOM      1  C14 UNL     1       1.446  -0.585  -0.395  0.00  0.00    +0.356 C 
ATOM      2  O4  UNL     1       0.674  -1.583  -0.411  0.00  0.00    -0.243 OA
ENDROOT
BRANCH   1   3
ATOM      3  C15 UNL     1       2.884  -0.775  -0.156  0.00  0.00    +0.125 A 
ATOM      4  C16 UNL     1       3.515  -2.006   0.015  0.00  0.00    +0.042 A 
ATOM      5  C17 UNL     1       4.851  -1.699   0.160  0.00  0.00    +0.001 A 
ATOM      6  C18 UNL     1       5.954  -2.527   0.339  0.00  0.00    +0.013 A 
ATOM      7  C19 UNL     1       7.222  -1.924   0.431  0.00  0.00    +0.047 A 
ATOM      8  C20 UNL     1       7.361  -0.513   0.332  0.00  0.00    +0.134 A 
ATOM      9  C28 UNL     1       6.215   0.291   0.173  0.00  0.00    +0.072 A 
ATOM     10  C29 UNL     1       4.975  -0.338   0.080  0.00  0.00    +0.051 A 
ATOM     11  N3  UNL     1       3.778   0.241  -0.112  0.00  0.00    -0.349 N 
ATOM     12  H24 UNL     1       3.585   1.262  -0.222  0.00  0.00    +0.166 HD
BRANCH   8  13
ATOM     13  O5  UNL     1       8.610   0.116   0.421  0.00  0.00    -0.422 OA
BRANCH  13  14
ATOM     14  C21 UNL     1       9.819  -0.428  -0.038  0.00  0.00    +0.344 C 
ATOM     15  O6  UNL     1       9.815  -1.406  -0.835  0.00  0.00    -0.245 OA
BRANCH  14  16
ATOM     16  C22 UNL     1      11.101   0.188   0.369  0.00  0.00    +0.059 A 
ATOM     17  C23 UNL     1      12.321  -0.278  -0.157  0.00  0.00    +0.016 A 
ATOM     18  C24 UNL     1      13.529   0.311   0.229  0.00  0.00    +0.021 A 
ATOM     19  C25 UNL     1      13.534   1.369   1.143  0.00  0.00    +0.041 A 
ATOM     20 CL1  UNL     1      15.051   2.106   1.626  0.00  0.00    -0.084 Cl
ATOM     21  C26 UNL     1      12.328   1.839   1.671  0.00  0.00    +0.021 A 
ATOM     22  C27 UNL     1      11.117   1.255   1.286  0.00  0.00    +0.016 A 
ENDBRANCH  14  16
ENDBRANCH  13  14
ENDBRANCH   8  13
ENDBRANCH   1   3
BRANCH   1  23
ATOM     23  O3  UNL     1       0.949   0.705  -0.619  0.00  0.00    -0.451 OA
BRANCH  23  24
ATOM     24  C13 UNL     1      -0.419   0.971  -0.928  0.00  0.00    +0.328 C 
BRANCH  24  29
ATOM     25  C9  UNL     1      -5.580   0.493   0.299  0.00  0.00    +0.076 C 
ATOM     26  C10 UNL     1      -4.843   1.114  -0.918  0.00  0.00    +0.041 C 
ATOM     27  C11 UNL     1      -3.408   0.599  -1.122  0.00  0.00    +0.109 C 
ATOM     28  N2  UNL     1      -2.698   0.463   0.161  0.00  0.00    -0.299 N 
ATOM     29  C12 UNL     1      -1.296   0.786   0.282  0.00  0.00    +0.253 C 
ATOM     30  O2  UNL     1      -0.793   0.948   1.428  0.00  0.00    -0.272 OA
ATOM     31  C30 UNL     1      -3.370  -0.168   1.308  0.00  0.00    +0.109 C 
ATOM     32  C31 UNL     1      -4.780  -0.646   0.949  0.00  0.00    +0.041 C 
BRANCH  25  35
ATOM     33  C8  UNL     1      -7.977   0.918  -0.431  0.00  0.00    +0.245 C 
ATOM     34  O1  UNL     1      -7.761   2.159  -0.489  0.00  0.00    -0.270 OA
ATOM     35  N1  UNL     1      -6.911   0.016  -0.095  0.00  0.00    -0.308 N 
ATOM     36  H8  UNL     1      -7.088  -1.012  -0.161  0.00  0.00    +0.149 HD
BRANCH  33  43
ATOM     37  C1  UNL     1      -9.462  -0.962   1.400  0.00  0.00    +0.044 C 
ATOM     38  C2  UNL     1     -10.017  -0.505   0.076  0.00  0.00    -0.038 A 
ATOM     39  C3  UNL     1     -11.265  -1.002  -0.336  0.00  0.00    +0.004 A 
ATOM     40  C4  UNL     1     -11.838  -0.579  -1.537  0.00  0.00    +0.000 A 
ATOM     41  C5  UNL     1     -11.172   0.343  -2.343  0.00  0.00    +0.001 A 
ATOM     42  C6  UNL     1      -9.922   0.834  -1.959  0.00  0.00    +0.013 A 
ATOM     43  C7  UNL     1      -9.321   0.401  -0.765  0.00  0.00    +0.040 A 
ENDBRANCH  33  43
ENDBRANCH  25  35
ENDBRANCH  24  29
ENDBRANCH  23  24
ENDBRANCH   1  23
TORSDOF 9
