REMARK  Name = /home/qwerty/github/datacon2025hack/step_04_hit_selection/docking/ligands/lig_585.pdb
REMARK  5 active torsions:
REMARK  status: ('A' for Active; 'I' for Inactive)
REMARK    1  A    between atoms: C1_2  and  C8_10
REMARK    2  A    between atoms: N1_3  and  C2_4
REMARK    3  A    between atoms: C13_16  and  C14_17
REMARK    4  A    between atoms: C17_21  and  C18_22
REMARK    5  A    between atoms: C18_22  and  N3_23
REMARK                            x       y       z     vdW  Elec       q    Type
REMARK                         _______ _______ _______ _____ _____    ______ ____
ROOT
ATOM      1  C8  UNL     1       2.079  -2.473  -0.755  0.00  0.00    +0.046 A 
ATOM      2  C9  UNL     1       2.729  -3.239  -1.738  0.00  0.00    +0.033 A 
ATOM      3  C10 UNL     1       2.153  -4.419  -2.216  0.00  0.00    +0.042 A 
ATOM      4 CL1  UNL     1       2.984  -5.369  -3.436  0.00  0.00    -0.084 Cl
ATOM      5  C11 UNL     1       0.924  -4.849  -1.716  0.00  0.00    +0.020 A 
ATOM      6  C12 UNL     1       0.261  -4.097  -0.745  0.00  0.00    +0.011 A 
ATOM      7  C13 UNL     1       0.819  -2.902  -0.260  0.00  0.00    -0.004 A 
ENDROOT
BRANCH   7   8
ATOM      8  C14 UNL     1       0.044  -2.099   0.719  0.00  0.00    +0.001 A 
ATOM      9  C15 UNL     1      -0.444  -2.685   1.896  0.00  0.00    +0.119 A 
ATOM     10  N2  UNL     1      -1.152  -1.943   2.787  0.00  0.00    -0.262 NA
ATOM     11  C16 UNL     1      -1.419  -0.628   2.573  0.00  0.00    +0.115 A 
ATOM     12  C17 UNL     1      -0.970   0.004   1.404  0.00  0.00    -0.015 A 
ATOM     13  C24 UNL     1      -0.236  -0.746   0.476  0.00  0.00    +0.016 A 
BRANCH  12  14
ATOM     14  C18 UNL     1      -1.266   1.468   1.153  0.00  0.00    +0.121 C 
BRANCH  14  15
ATOM     15  N3  UNL     1      -2.521   1.706   0.406  0.00  0.00    -0.298 NA
ATOM     16  C19 UNL     1      -3.718   1.246   1.137  0.00  0.00    +0.085 C 
ATOM     17  C20 UNL     1      -4.984   1.733   0.424  0.00  0.00    +0.015 C 
ATOM     18  C21 UNL     1      -5.001   1.251  -1.031  0.00  0.00    +0.002 C 
ATOM     19  C22 UNL     1      -3.706   1.641  -1.751  0.00  0.00    +0.015 C 
ATOM     20  C23 UNL     1      -2.485   1.156  -0.963  0.00  0.00    +0.085 C 
ENDBRANCH  14  15
ENDBRANCH  12  14
ENDBRANCH   7   8
BRANCH   1  22
ATOM     21  O1  UNL     1       2.834  -1.110   1.026  0.00  0.00    -0.270 OA
ATOM     22  C1  UNL     1       2.752  -1.269  -0.222  0.00  0.00    +0.249 C 
ATOM     23  N1  UNL     1       3.323  -0.297  -1.114  0.00  0.00    -0.281 N 
ATOM     24  H1  UNL     1       3.503  -0.575  -2.105  0.00  0.00    +0.155 HD
BRANCH  23  25
ATOM     25  C2  UNL     1       3.673   1.041  -0.722  0.00  0.00    +0.034 A 
ATOM     26  C3  UNL     1       4.724   1.698  -1.382  0.00  0.00    +0.023 A 
ATOM     27  C4  UNL     1       5.064   3.011  -1.040  0.00  0.00    +0.002 A 
ATOM     28  C5  UNL     1       4.347   3.683  -0.047  0.00  0.00    +0.000 A 
ATOM     29  C6  UNL     1       3.285   3.047   0.600  0.00  0.00    +0.002 A 
ATOM     30  C7  UNL     1       2.943   1.734   0.262  0.00  0.00    +0.023 A 
ENDBRANCH  23  25
ENDBRANCH   1  22
TORSDOF 5
