MODEL 1
REMARK VINA RESULT:    -5.993      0.000      0.000
REMARK INTER + INTRA:          -8.756
REMARK INTER:                  -8.096
REMARK INTRA:                  -0.660
REMARK UNBOUND:                -0.660
REMARK  Name = /home/qwerty/github/datacon2025hack/step_04_hit_selection/docking/ligands/lig_28.pdb
REMARK  9 active torsions:
REMARK  status: ('A' for Active; 'I' for Inactive)
REMARK    1  A    between atoms: C1_1  and  C2_2
REMARK    2  A    between atoms: C2_2  and  C3_3
REMARK    3  A    between atoms: C2_2  and  N1_4
REMARK    4  A    between atoms: C5_7  and  C6_8
REMARK    5  A    between atoms: N3_10  and  C7_11
REMARK    6  A    between atoms: C7_11  and  C8_12
REMARK    7  A    between atoms: N4_14  and  C10_15
REMARK    8  A    between atoms: C13_19  and  C14_20
REMARK    9  A    between atoms: C16_24  and  C17_25
REMARK                            x       y       z     vdW  Elec       q    Type
REMARK                         _______ _______ _______ _____ _____    ______ ____
ROOT
ATOM      1  C8  UNL     1      24.272   7.601  33.725  0.00  0.00    +0.028 C 
ATOM      2  C9  UNL     1      23.220   7.294  34.792  0.00  0.00    +0.112 C 
ATOM      3  N4  UNL     1      22.289   8.411  34.745  0.00  0.00    -0.313 N 
ATOM      4  C15 UNL     1      22.533   9.298  33.617  0.00  0.00    +0.110 C 
ATOM      5  C16 UNL     1      23.583   8.587  32.761  0.00  0.00    +0.009 C 
ATOM      6  C17 UNL     1      24.565   9.566  32.107  0.00  0.00    +0.009 C 
ENDROOT
BRANCH   3   7
ATOM      7  C10 UNL     1      21.237   8.588  35.712  0.00  0.00    +0.141 A 
ATOM      8  C11 UNL     1      20.934   7.596  36.662  0.00  0.00    +0.154 A 
ATOM      9  N5  UNL     1      19.931   7.807  37.554  0.00  0.00    -0.257 NA
ATOM     10  C12 UNL     1      19.212   8.960  37.551  0.00  0.00    +0.149 A 
ATOM     11  C13 UNL     1      19.506   9.947  36.609  0.00  0.00    +0.160 A 
ATOM     12  N7  UNL     1      20.508   9.739  35.715  0.00  0.00    -0.219 NA
BRANCH  11  13
ATOM     13  C14 UNL     1      18.764  11.178  36.578  0.00  0.00    +0.121 C 
ATOM     14  N6  UNL     1      18.166  12.168  36.553  0.00  0.00    -0.189 NA
ENDBRANCH  11  13
ENDBRANCH   3   7
BRANCH   1  15
ATOM     15  C7  UNL     1      24.868   6.347  33.051  0.00  0.00    +0.110 C 
BRANCH  15  18
ATOM     16  C6  UNL     1      22.897   4.842  32.452  0.00  0.00    +0.264 C 
ATOM     17  O1  UNL     1      22.638   5.537  31.433  0.00  0.00    -0.268 OA
ATOM     18  N3  UNL     1      24.045   5.152  33.261  0.00  0.00    -0.310 N 
ATOM     19  H9  UNL     1      24.324   4.501  34.027  0.00  0.00    +0.149 HD
BRANCH  16  23
ATOM     20  N1  UNL     1      20.896   1.822  32.726  0.00  0.00    -0.334 N 
ATOM     21  C4  UNL     1      20.661   2.474  33.882  0.00  0.00    +0.200 A 
ATOM     22  N2  UNL     1      21.327   3.645  33.961  0.00  0.00    -0.231 NA
ATOM     23  C5  UNL     1      22.005   3.721  32.796  0.00  0.00    +0.143 A 
ATOM     24  C18 UNL     1      21.746   2.601  32.032  0.00  0.00    +0.120 A 
BRANCH  20  26
ATOM     25  C1  UNL     1      20.509   0.313  30.819  0.00  0.00    +0.030 C 
ATOM     26  C2  UNL     1      20.346   0.522  32.327  0.00  0.00    +0.082 C 
ATOM     27  C3  UNL     1      18.877   0.411  32.745  0.00  0.00    +0.030 C 
ENDBRANCH  20  26
ENDBRANCH  16  23
ENDBRANCH  15  18
ENDBRANCH   1  15
TORSDOF 6
ENDMDL
MODEL 2
REMARK VINA RESULT:    -5.970      2.095      8.251
REMARK INTER + INTRA:          -8.725
REMARK INTER:                  -8.091
REMARK INTRA:                  -0.634
REMARK UNBOUND:                -0.660
REMARK  Name = /home/qwerty/github/datacon2025hack/step_04_hit_selection/docking/ligands/lig_28.pdb
REMARK  9 active torsions:
REMARK  status: ('A' for Active; 'I' for Inactive)
REMARK    1  A    between atoms: C1_1  and  C2_2
REMARK    2  A    between atoms: C2_2  and  C3_3
REMARK    3  A    between atoms: C2_2  and  N1_4
REMARK    4  A    between atoms: C5_7  and  C6_8
REMARK    5  A    between atoms: N3_10  and  C7_11
REMARK    6  A    between atoms: C7_11  and  C8_12
REMARK    7  A    between atoms: N4_14  and  C10_15
REMARK    8  A    between atoms: C13_19  and  C14_20
REMARK    9  A    between atoms: C16_24  and  C17_25
REMARK                            x       y       z     vdW  Elec       q    Type
REMARK                         _______ _______ _______ _____ _____    ______ ____
ROOT
ATOM      1  C8  UNL     1      22.819   6.849  34.608  0.00  0.00    +0.028 C 
ATOM      2  C9  UNL     1      22.008   5.555  34.523  0.00  0.00    +0.112 C 
ATOM      3  N4  UNL     1      22.590   4.811  33.417  0.00  0.00    -0.313 N 
ATOM      4  C15 UNL     1      23.818   5.414  32.919  0.00  0.00    +0.110 C 
ATOM      5  C16 UNL     1      24.156   6.527  33.912  0.00  0.00    +0.009 C 
ATOM      6  C17 UNL     1      24.783   7.749  33.231  0.00  0.00    +0.009 C 
ENDROOT
BRANCH   3   7
ATOM      7  C10 UNL     1      22.005   3.601  32.899  0.00  0.00    +0.141 A 
ATOM      8  C11 UNL     1      20.995   2.914  33.596  0.00  0.00    +0.154 A 
ATOM      9  N5  UNL     1      20.473   1.775  33.070  0.00  0.00    -0.257 NA
ATOM     10  C12 UNL     1      20.905   1.284  31.880  0.00  0.00    +0.149 A 
ATOM     11  C13 UNL     1      21.908   1.960  31.183  0.00  0.00    +0.160 A 
ATOM     12  N7  UNL     1      22.432   3.098  31.708  0.00  0.00    -0.219 NA
BRANCH  11  13
ATOM     13  C14 UNL     1      22.388   1.466  29.921  0.00  0.00    +0.121 C 
ATOM     14  N6  UNL     1      22.775   1.069  28.905  0.00  0.00    -0.189 NA
ENDBRANCH  11  13
ENDBRANCH   3   7
BRANCH   1  15
ATOM     15  C7  UNL     1      22.953   7.414  36.038  0.00  0.00    +0.110 C 
BRANCH  15  18
ATOM     16  C6  UNL     1      20.710   8.013  37.094  0.00  0.00    +0.264 C 
ATOM     17  O1  UNL     1      20.605   6.862  37.597  0.00  0.00    -0.268 OA
ATOM     18  N3  UNL     1      21.895   8.374  36.364  0.00  0.00    -0.310 N 
ATOM     19  H9  UNL     1      22.028   9.363  36.058  0.00  0.00    +0.149 HD
BRANCH  16  23
ATOM     20  N1  UNL     1      18.264  10.699  37.017  0.00  0.00    -0.334 N 
ATOM     21  C4  UNL     1      17.786   9.850  37.949  0.00  0.00    +0.200 A 
ATOM     22  N2  UNL     1      18.579   8.773  38.124  0.00  0.00    -0.231 NA
ATOM     23  C5  UNL     1      19.599   8.967  37.260  0.00  0.00    +0.143 A 
ATOM     24  C18 UNL     1      19.410  10.149  36.574  0.00  0.00    +0.120 A 
BRANCH  20  26
ATOM     25  C1  UNL     1      16.320  12.183  37.310  0.00  0.00    +0.030 C 
ATOM     26  C2  UNL     1      17.644  11.952  36.574  0.00  0.00    +0.082 C 
ATOM     27  C3  UNL     1      17.438  11.940  35.057  0.00  0.00    +0.030 C 
ENDBRANCH  20  26
ENDBRANCH  16  23
ENDBRANCH  15  18
ENDBRANCH   1  15
TORSDOF 6
ENDMDL
MODEL 3
REMARK VINA RESULT:    -5.867      3.473      9.403
REMARK INTER + INTRA:          -8.585
REMARK INTER:                  -7.956
REMARK INTRA:                  -0.629
REMARK UNBOUND:                -0.660
REMARK  Name = /home/qwerty/github/datacon2025hack/step_04_hit_selection/docking/ligands/lig_28.pdb
REMARK  9 active torsions:
REMARK  status: ('A' for Active; 'I' for Inactive)
REMARK    1  A    between atoms: C1_1  and  C2_2
REMARK    2  A    between atoms: C2_2  and  C3_3
REMARK    3  A    between atoms: C2_2  and  N1_4
REMARK    4  A    between atoms: C5_7  and  C6_8
REMARK    5  A    between atoms: N3_10  and  C7_11
REMARK    6  A    between atoms: C7_11  and  C8_12
REMARK    7  A    between atoms: N4_14  and  C10_15
REMARK    8  A    between atoms: C13_19  and  C14_20
REMARK    9  A    between atoms: C16_24  and  C17_25
REMARK                            x       y       z     vdW  Elec       q    Type
REMARK                         _______ _______ _______ _____ _____    ______ ____
ROOT
ATOM      1  C8  UNL     1      21.138   1.668  32.077  0.00  0.00    +0.028 C 
ATOM      2  C9  UNL     1      21.675   2.357  30.821  0.00  0.00    +0.112 C 
ATOM      3  N4  UNL     1      20.880   1.827  29.724  0.00  0.00    -0.313 N 
ATOM      4  C15 UNL     1      19.758   1.020  30.182  0.00  0.00    +0.110 C 
ATOM      5  C16 UNL     1      19.716   1.208  31.700  0.00  0.00    +0.009 C 
ATOM      6  C17 UNL     1      19.287  -0.067  32.435  0.00  0.00    +0.009 C 
ENDROOT
BRANCH   3   7
ATOM      7  C10 UNL     1      21.181   2.099  28.342  0.00  0.00    +0.141 A 
ATOM      8  C11 UNL     1      22.239   2.949  27.972  0.00  0.00    +0.154 A 
ATOM      9  N5  UNL     1      22.485   3.178  26.655  0.00  0.00    -0.257 NA
ATOM     10  C12 UNL     1      21.731   2.601  25.684  0.00  0.00    +0.149 A 
ATOM     11  C13 UNL     1      20.678   1.757  26.045  0.00  0.00    +0.160 A 
ATOM     12  N7  UNL     1      20.430   1.528  27.360  0.00  0.00    -0.219 NA
BRANCH  11  13
ATOM     13  C14 UNL     1      19.861   1.131  25.042  0.00  0.00    +0.121 C 
ATOM     14  N6  UNL     1      19.202   0.628  24.234  0.00  0.00    -0.189 NA
ENDBRANCH  11  13
ENDBRANCH   3   7
BRANCH   1  15
ATOM     15  C7  UNL     1      21.221   2.534  33.352  0.00  0.00    +0.110 C 
BRANCH  15  18
ATOM     16  C6  UNL     1      22.007   4.927  33.754  0.00  0.00    +0.264 C 
ATOM     17  O1  UNL     1      20.982   5.180  34.442  0.00  0.00    -0.268 OA
ATOM     18  N3  UNL     1      22.221   3.600  33.242  0.00  0.00    -0.310 N 
ATOM     19  H9  UNL     1      23.128   3.368  32.781  0.00  0.00    +0.149 HD
BRANCH  16  23
ATOM     20  N1  UNL     1      23.844   7.944  32.900  0.00  0.00    -0.334 N 
ATOM     21  C4  UNL     1      24.791   7.108  33.371  0.00  0.00    +0.200 A 
ATOM     22  N2  UNL     1      24.289   5.911  33.739  0.00  0.00    -0.231 NA
ATOM     23  C5  UNL     1      22.968   6.011  33.482  0.00  0.00    +0.143 A 
ATOM     24  C18 UNL     1      22.686   7.260  32.967  0.00  0.00    +0.120 A 
BRANCH  20  26
ATOM     25  C1  UNL     1      23.279   9.555  31.126  0.00  0.00    +0.030 C 
ATOM     26  C2  UNL     1      24.044   9.319  32.431  0.00  0.00    +0.082 C 
ATOM     27  C3  UNL     1      25.537   9.613  32.258  0.00  0.00    +0.030 C 
ENDBRANCH  20  26
ENDBRANCH  16  23
ENDBRANCH  15  18
ENDBRANCH   1  15
TORSDOF 6
ENDMDL
MODEL 4
REMARK VINA RESULT:    -5.788     11.579     14.647
REMARK INTER + INTRA:          -8.478
REMARK INTER:                  -7.844
REMARK INTRA:                  -0.634
REMARK UNBOUND:                -0.660
REMARK  Name = /home/qwerty/github/datacon2025hack/step_04_hit_selection/docking/ligands/lig_28.pdb
REMARK  9 active torsions:
REMARK  status: ('A' for Active; 'I' for Inactive)
REMARK    1  A    between atoms: C1_1  and  C2_2
REMARK    2  A    between atoms: C2_2  and  C3_3
REMARK    3  A    between atoms: C2_2  and  N1_4
REMARK    4  A    between atoms: C5_7  and  C6_8
REMARK    5  A    between atoms: N3_10  and  C7_11
REMARK    6  A    between atoms: C7_11  and  C8_12
REMARK    7  A    between atoms: N4_14  and  C10_15
REMARK    8  A    between atoms: C13_19  and  C14_20
REMARK    9  A    between atoms: C16_24  and  C17_25
REMARK                            x       y       z     vdW  Elec       q    Type
REMARK                         _______ _______ _______ _____ _____    ______ ____
ROOT
ATOM      1  C8  UNL     1      11.257  14.003  28.831  0.00  0.00    +0.028 C 
ATOM      2  C9  UNL     1      10.204  12.953  29.192  0.00  0.00    +0.112 C 
ATOM      3  N4  UNL     1      10.154  12.053  28.050  0.00  0.00    -0.313 N 
ATOM      4  C15 UNL     1      11.213  12.310  27.085  0.00  0.00    +0.110 C 
ATOM      5  C16 UNL     1      12.134  13.332  27.756  0.00  0.00    +0.009 C 
ATOM      6  C17 UNL     1      12.723  14.333  26.756  0.00  0.00    +0.009 C 
ENDROOT
BRANCH   3   7
ATOM      7  C10 UNL     1       9.163  11.016  27.920  0.00  0.00    +0.141 A 
ATOM      8  C11 UNL     1       8.659  10.632  26.664  0.00  0.00    +0.154 A 
ATOM      9  N5  UNL     1       7.724   9.649  26.589  0.00  0.00    -0.257 NA
ATOM     10  C12 UNL     1       7.263   9.025  27.704  0.00  0.00    +0.149 A 
ATOM     11  C13 UNL     1       7.758   9.404  28.954  0.00  0.00    +0.160 A 
ATOM     12  N7  UNL     1       8.692  10.386  29.032  0.00  0.00    -0.219 NA
BRANCH  11  13
ATOM     13  C14 UNL     1       7.290   8.764  30.154  0.00  0.00    +0.121 C 
ATOM     14  N6  UNL     1       6.914   8.249  31.120  0.00  0.00    -0.189 NA
ENDBRANCH  11  13
ENDBRANCH   3   7
BRANCH   1  15
ATOM     15  C7  UNL     1      12.032  14.558  30.045  0.00  0.00    +0.110 C 
BRANCH  15  18
ATOM     16  C6  UNL     1      11.842  14.601  32.588  0.00  0.00    +0.264 C 
ATOM     17  O1  UNL     1      12.395  15.732  32.640  0.00  0.00    -0.268 OA
ATOM     18  N3  UNL     1      11.565  13.993  31.315  0.00  0.00    -0.310 N 
ATOM     19  H9  UNL     1      10.999  13.118  31.276  0.00  0.00    +0.149 HD
BRANCH  16  23
ATOM     20  N1  UNL     1      11.482  12.511  35.539  0.00  0.00    -0.334 N 
ATOM     21  C4  UNL     1      10.558  13.477  35.710  0.00  0.00    +0.200 A 
ATOM     22  N2  UNL     1      10.538  14.361  34.691  0.00  0.00    -0.231 NA
ATOM     23  C5  UNL     1      11.495  13.918  33.848  0.00  0.00    +0.143 A 
ATOM     24  C18 UNL     1      12.082  12.781  34.365  0.00  0.00    +0.120 A 
BRANCH  20  26
ATOM     25  C1  UNL     1      10.828  11.449  37.662  0.00  0.00    +0.030 C 
ATOM     26  C2  UNL     1      11.776  11.408  36.460  0.00  0.00    +0.082 C 
ATOM     27  C3  UNL     1      13.239  11.460  36.908  0.00  0.00    +0.030 C 
ENDBRANCH  20  26
ENDBRANCH  16  23
ENDBRANCH  15  18
ENDBRANCH   1  15
TORSDOF 6
ENDMDL
MODEL 5
REMARK VINA RESULT:    -5.744     10.553     14.783
REMARK INTER + INTRA:          -8.420
REMARK INTER:                  -7.879
REMARK INTRA:                  -0.541
REMARK UNBOUND:                -0.660
REMARK  Name = /home/qwerty/github/datacon2025hack/step_04_hit_selection/docking/ligands/lig_28.pdb
REMARK  9 active torsions:
REMARK  status: ('A' for Active; 'I' for Inactive)
REMARK    1  A    between atoms: C1_1  and  C2_2
REMARK    2  A    between atoms: C2_2  and  C3_3
REMARK    3  A    between atoms: C2_2  and  N1_4
REMARK    4  A    between atoms: C5_7  and  C6_8
REMARK    5  A    between atoms: N3_10  and  C7_11
REMARK    6  A    between atoms: C7_11  and  C8_12
REMARK    7  A    between atoms: N4_14  and  C10_15
REMARK    8  A    between atoms: C13_19  and  C14_20
REMARK    9  A    between atoms: C16_24  and  C17_25
REMARK                            x       y       z     vdW  Elec       q    Type
REMARK                         _______ _______ _______ _____ _____    ______ ____
ROOT
ATOM      1  C8  UNL     1      16.157  -0.693  23.561  0.00  0.00    +0.028 C 
ATOM      2  C9  UNL     1      17.211   0.416  23.591  0.00  0.00    +0.112 C 
ATOM      3  N4  UNL     1      18.241  -0.060  24.501  0.00  0.00    -0.313 N 
ATOM      4  C15 UNL     1      18.044  -1.447  24.897  0.00  0.00    +0.110 C 
ATOM      5  C16 UNL     1      16.903  -1.962  24.018  0.00  0.00    +0.009 C 
ATOM      6  C17 UNL     1      15.997  -2.953  24.756  0.00  0.00    +0.009 C 
ENDROOT
BRANCH   3   7
ATOM      7  C10 UNL     1      19.337   0.767  24.936  0.00  0.00    +0.141 A 
ATOM      8  C11 UNL     1      19.795   1.850  24.164  0.00  0.00    +0.154 A 
ATOM      9  N5  UNL     1      20.834   2.602  24.614  0.00  0.00    -0.257 NA
ATOM     10  C12 UNL     1      21.442   2.331  25.797  0.00  0.00    +0.149 A 
ATOM     11  C13 UNL     1      20.994   1.256  26.567  0.00  0.00    +0.160 A 
ATOM     12  N7  UNL     1      19.957   0.503  26.120  0.00  0.00    -0.219 NA
BRANCH  11  13
ATOM     13  C14 UNL     1      21.617   0.942  27.824  0.00  0.00    +0.121 C 
ATOM     14  N6  UNL     1      22.119   0.689  28.836  0.00  0.00    -0.189 NA
ENDBRANCH  11  13
ENDBRANCH   3   7
BRANCH   1  15
ATOM     15  C7  UNL     1      15.423  -0.825  22.210  0.00  0.00    +0.110 C 
BRANCH  15  18
ATOM     16  C6  UNL     1      14.077   1.006  21.051  0.00  0.00    +0.264 C 
ATOM     17  O1  UNL     1      14.874   1.014  20.074  0.00  0.00    -0.268 OA
ATOM     18  N3  UNL     1      14.256   0.057  22.117  0.00  0.00    -0.310 N 
ATOM     19  H9  UNL     1      13.526  -0.027  22.857  0.00  0.00    +0.149 HD
BRANCH  16  23
ATOM     20  N1  UNL     1      11.713   3.739  20.669  0.00  0.00    -0.334 N 
ATOM     21  C4  UNL     1      11.115   2.911  21.548  0.00  0.00    +0.200 A 
ATOM     22  N2  UNL     1      11.860   1.821  21.824  0.00  0.00    -0.231 NA
ATOM     23  C5  UNL     1      12.975   1.984  21.080  0.00  0.00    +0.143 A 
ATOM     24  C18 UNL     1      12.890   3.161  20.365  0.00  0.00    +0.120 A 
BRANCH  20  26
ATOM     25  C1  UNL     1      12.062   6.174  20.561  0.00  0.00    +0.030 C 
ATOM     26  C2  UNL     1      11.174   4.998  20.145  0.00  0.00    +0.082 C 
ATOM     27  C3  UNL     1       9.732   5.201  20.619  0.00  0.00    +0.030 C 
ENDBRANCH  20  26
ENDBRANCH  16  23
ENDBRANCH  15  18
ENDBRANCH   1  15
TORSDOF 6
ENDMDL
MODEL 6
REMARK VINA RESULT:    -5.738      9.837     14.392
REMARK INTER + INTRA:          -8.411
REMARK INTER:                  -7.724
REMARK INTRA:                  -0.687
REMARK UNBOUND:                -0.660
REMARK  Name = /home/qwerty/github/datacon2025hack/step_04_hit_selection/docking/ligands/lig_28.pdb
REMARK  9 active torsions:
REMARK  status: ('A' for Active; 'I' for Inactive)
REMARK    1  A    between atoms: C1_1  and  C2_2
REMARK    2  A    between atoms: C2_2  and  C3_3
REMARK    3  A    between atoms: C2_2  and  N1_4
REMARK    4  A    between atoms: C5_7  and  C6_8
REMARK    5  A    between atoms: N3_10  and  C7_11
REMARK    6  A    between atoms: C7_11  and  C8_12
REMARK    7  A    between atoms: N4_14  and  C10_15
REMARK    8  A    between atoms: C13_19  and  C14_20
REMARK    9  A    between atoms: C16_24  and  C17_25
REMARK                            x       y       z     vdW  Elec       q    Type
REMARK                         _______ _______ _______ _____ _____    ______ ____
ROOT
ATOM      1  C8  UNL     1      15.914  -1.905  23.932  0.00  0.00    +0.028 C 
ATOM      2  C9  UNL     1      16.024  -0.833  22.845  0.00  0.00    +0.112 C 
ATOM      3  N4  UNL     1      14.778  -0.086  22.919  0.00  0.00    -0.313 N 
ATOM      4  C15 UNL     1      13.973  -0.447  24.077  0.00  0.00    +0.110 C 
ATOM      5  C16 UNL     1      14.863  -1.362  24.920  0.00  0.00    +0.009 C 
ATOM      6  C17 UNL     1      14.068  -2.474  25.614  0.00  0.00    +0.009 C 
ENDROOT
BRANCH   3   7
ATOM      7  C10 UNL     1      14.411   0.913  21.947  0.00  0.00    +0.141 A 
ATOM      8  C11 UNL     1      15.323   1.367  20.977  0.00  0.00    +0.154 A 
ATOM      9  N5  UNL     1      14.932   2.311  20.081  0.00  0.00    -0.257 NA
ATOM     10  C12 UNL     1      13.677   2.829  20.101  0.00  0.00    +0.149 A 
ATOM     11  C13 UNL     1      12.768   2.384  21.063  0.00  0.00    +0.160 A 
ATOM     12  N7  UNL     1      13.156   1.440  21.960  0.00  0.00    -0.219 NA
BRANCH  11  13
ATOM     13  C14 UNL     1      11.432   2.911  21.112  0.00  0.00    +0.121 C 
ATOM     14  N6  UNL     1      10.356   3.337  21.151  0.00  0.00    -0.189 NA
ENDBRANCH  11  13
ENDBRANCH   3   7
BRANCH   1  15
ATOM     15  C7  UNL     1      17.266  -2.290  24.571  0.00  0.00    +0.110 C 
BRANCH  15  18
ATOM     16  C6  UNL     1      18.361  -0.135  25.383  0.00  0.00    +0.264 C 
ATOM     17  O1  UNL     1      17.651  -0.131  26.424  0.00  0.00    -0.268 OA
ATOM     18  N3  UNL     1      18.267  -1.227  24.452  0.00  0.00    -0.310 N 
ATOM     19  H9  UNL     1      18.943  -1.285  23.659  0.00  0.00    +0.149 HD
BRANCH  16  23
ATOM     20  N1  UNL     1      21.004   2.352  25.214  0.00  0.00    -0.334 N 
ATOM     21  C4  UNL     1      20.097   2.780  24.314  0.00  0.00    +0.200 A 
ATOM     22  N2  UNL     1      19.020   1.971  24.239  0.00  0.00    -0.231 NA
ATOM     23  C5  UNL     1      19.273   0.996  25.139  0.00  0.00    +0.143 A 
ATOM     24  C18 UNL     1      20.494   1.224  25.740  0.00  0.00    +0.120 A 
BRANCH  20  26
ATOM     25  C1  UNL     1      22.592   2.860  27.027  0.00  0.00    +0.030 C 
ATOM     26  C2  UNL     1      22.289   2.986  25.531  0.00  0.00    +0.082 C 
ATOM     27  C3  UNL     1      22.286   4.452  25.090  0.00  0.00    +0.030 C 
ENDBRANCH  20  26
ENDBRANCH  16  23
ENDBRANCH  15  18
ENDBRANCH   1  15
TORSDOF 6
ENDMDL
MODEL 7
REMARK VINA RESULT:    -5.735     11.659     13.776
REMARK INTER + INTRA:          -8.407
REMARK INTER:                  -7.846
REMARK INTRA:                  -0.561
REMARK UNBOUND:                -0.660
REMARK  Name = /home/qwerty/github/datacon2025hack/step_04_hit_selection/docking/ligands/lig_28.pdb
REMARK  9 active torsions:
REMARK  status: ('A' for Active; 'I' for Inactive)
REMARK    1  A    between atoms: C1_1  and  C2_2
REMARK    2  A    between atoms: C2_2  and  C3_3
REMARK    3  A    between atoms: C2_2  and  N1_4
REMARK    4  A    between atoms: C5_7  and  C6_8
REMARK    5  A    between atoms: N3_10  and  C7_11
REMARK    6  A    between atoms: C7_11  and  C8_12
REMARK    7  A    between atoms: N4_14  and  C10_15
REMARK    8  A    between atoms: C13_19  and  C14_20
REMARK    9  A    between atoms: C16_24  and  C17_25
REMARK                            x       y       z     vdW  Elec       q    Type
REMARK                         _______ _______ _______ _____ _____    ______ ____
ROOT
ATOM      1  C8  UNL     1      10.853  13.476  28.533  0.00  0.00    +0.028 C 
ATOM      2  C9  UNL     1      10.762  13.275  30.047  0.00  0.00    +0.112 C 
ATOM      3  N4  UNL     1      11.857  14.053  30.603  0.00  0.00    -0.313 N 
ATOM      4  C15 UNL     1      12.513  14.891  29.608  0.00  0.00    +0.110 C 
ATOM      5  C16 UNL     1      11.643  14.787  28.354  0.00  0.00    +0.009 C 
ATOM      6  C17 UNL     1      12.472  14.811  27.064  0.00  0.00    +0.009 C 
ENDROOT
BRANCH   3   7
ATOM      7  C10 UNL     1      12.224  13.997  31.995  0.00  0.00    +0.141 A 
ATOM      8  C11 UNL     1      13.563  13.849  32.398  0.00  0.00    +0.154 A 
ATOM      9  N5  UNL     1      13.862  13.800  33.723  0.00  0.00    -0.257 NA
ATOM     10  C12 UNL     1      12.893  13.892  34.670  0.00  0.00    +0.149 A 
ATOM     11  C13 UNL     1      11.562  14.037  34.276  0.00  0.00    +0.160 A 
ATOM     12  N7  UNL     1      11.260  14.086  32.952  0.00  0.00    -0.219 NA
BRANCH  11  13
ATOM     13  C14 UNL     1      10.512  14.137  35.254  0.00  0.00    +0.121 C 
ATOM     14  N6  UNL     1       9.667  14.217  36.040  0.00  0.00    -0.189 NA
ENDBRANCH  11  13
ENDBRANCH   3   7
BRANCH   1  15
ATOM     15  C7  UNL     1       9.488  13.440  27.812  0.00  0.00    +0.110 C 
BRANCH  15  18
ATOM     16  C6  UNL     1       8.150  11.373  28.478  0.00  0.00    +0.264 C 
ATOM     17  O1  UNL     1       7.653  11.976  29.467  0.00  0.00    -0.268 OA
ATOM     18  N3  UNL     1       9.018  12.073  27.569  0.00  0.00    -0.310 N 
ATOM     19  H9  UNL     1       9.324  11.605  26.689  0.00  0.00    +0.149 HD
BRANCH  16  23
ATOM     20  N1  UNL     1       7.401   7.821  28.644  0.00  0.00    -0.334 N 
ATOM     21  C4  UNL     1       7.309   8.112  27.331  0.00  0.00    +0.200 A 
ATOM     22  N2  UNL     1       7.567   9.410  27.068  0.00  0.00    -0.231 NA
ATOM     23  C5  UNL     1       7.831   9.948  28.278  0.00  0.00    +0.143 A 
ATOM     24  C18 UNL     1       7.728   8.976  29.253  0.00  0.00    +0.120 A 
BRANCH  20  26
ATOM     25  C1  UNL     1       8.491   5.912  29.752  0.00  0.00    +0.030 C 
ATOM     26  C2  UNL     1       7.169   6.515  29.269  0.00  0.00    +0.082 C 
ATOM     27  C3  UNL     1       6.456   5.574  28.294  0.00  0.00    +0.030 C 
ENDBRANCH  20  26
ENDBRANCH  16  23
ENDBRANCH  15  18
ENDBRANCH   1  15
TORSDOF 6
ENDMDL
MODEL 8
REMARK VINA RESULT:    -5.700     14.162     15.816
REMARK INTER + INTRA:          -8.360
REMARK INTER:                  -7.707
REMARK INTRA:                  -0.652
REMARK UNBOUND:                -0.660
REMARK  Name = /home/qwerty/github/datacon2025hack/step_04_hit_selection/docking/ligands/lig_28.pdb
REMARK  9 active torsions:
REMARK  status: ('A' for Active; 'I' for Inactive)
REMARK    1  A    between atoms: C1_1  and  C2_2
REMARK    2  A    between atoms: C2_2  and  C3_3
REMARK    3  A    between atoms: C2_2  and  N1_4
REMARK    4  A    between atoms: C5_7  and  C6_8
REMARK    5  A    between atoms: N3_10  and  C7_11
REMARK    6  A    between atoms: C7_11  and  C8_12
REMARK    7  A    between atoms: N4_14  and  C10_15
REMARK    8  A    between atoms: C13_19  and  C14_20
REMARK    9  A    between atoms: C16_24  and  C17_25
REMARK                            x       y       z     vdW  Elec       q    Type
REMARK                         _______ _______ _______ _____ _____    ______ ____
ROOT
ATOM      1  C8  UNL     1       7.886  10.330  27.597  0.00  0.00    +0.028 C 
ATOM      2  C9  UNL     1       8.991  11.337  27.275  0.00  0.00    +0.112 C 
ATOM      3  N4  UNL     1       9.518  11.753  28.565  0.00  0.00    -0.313 N 
ATOM      4  C15 UNL     1       8.994  10.960  29.668  0.00  0.00    +0.110 C 
ATOM      5  C16 UNL     1       8.217   9.817  29.012  0.00  0.00    +0.009 C 
ATOM      6  C17 UNL     1       6.969   9.424  29.811  0.00  0.00    +0.009 C 
ENDROOT
BRANCH   3   7
ATOM      7  C10 UNL     1      10.468  12.826  28.709  0.00  0.00    +0.141 A 
ATOM      8  C11 UNL     1      11.006  13.488  27.591  0.00  0.00    +0.154 A 
ATOM      9  N5  UNL     1      11.901  14.494  27.775  0.00  0.00    -0.257 NA
ATOM     10  C12 UNL     1      12.288  14.877  29.019  0.00  0.00    +0.149 A 
ATOM     11  C13 UNL     1      11.759  14.223  30.133  0.00  0.00    +0.160 A 
ATOM     12  N7  UNL     1      10.865  13.216  29.952  0.00  0.00    -0.219 NA
BRANCH  11  13
ATOM     13  C14 UNL     1      12.148  14.604  31.464  0.00  0.00    +0.121 C 
ATOM     14  N6  UNL     1      12.462  14.910  32.535  0.00  0.00    -0.189 NA
ENDBRANCH  11  13
ENDBRANCH   3   7
BRANCH   1  15
ATOM     15  C7  UNL     1       7.713   9.226  26.532  0.00  0.00    +0.110 C 
BRANCH  15  18
ATOM     16  C6  UNL     1       7.845   9.896  24.075  0.00  0.00    +0.264 C 
ATOM     17  O1  UNL     1       6.610  10.145  24.045  0.00  0.00    -0.268 OA
ATOM     18  N3  UNL     1       8.470   9.503  25.308  0.00  0.00    -0.310 N 
ATOM     19  H9  UNL     1       9.509   9.419  25.353  0.00  0.00    +0.149 HD
BRANCH  16  23
ATOM     20  N1  UNL     1      10.221   9.820  21.326  0.00  0.00    -0.334 N 
ATOM     21  C4  UNL     1       9.155  10.470  20.818  0.00  0.00    +0.200 A 
ATOM     22  N2  UNL     1       8.153  10.603  21.712  0.00  0.00    -0.231 NA
ATOM     23  C5  UNL     1       8.624  10.007  22.829  0.00  0.00    +0.143 A 
ATOM     24  C18 UNL     1       9.895   9.521  22.598  0.00  0.00    +0.120 A 
BRANCH  20  26
ATOM     25  C1  UNL     1      12.016   8.149  21.104  0.00  0.00    +0.030 C 
ATOM     26  C2  UNL     1      11.466   9.495  20.622  0.00  0.00    +0.082 C 
ATOM     27  C3  UNL     1      12.495  10.613  20.812  0.00  0.00    +0.030 C 
ENDBRANCH  20  26
ENDBRANCH  16  23
ENDBRANCH  15  18
ENDBRANCH   1  15
TORSDOF 6
ENDMDL
MODEL 9
REMARK VINA RESULT:    -5.589      8.951     12.560
REMARK INTER + INTRA:          -8.210
REMARK INTER:                  -7.666
REMARK INTRA:                  -0.544
REMARK UNBOUND:                -0.660
REMARK  Name = /home/qwerty/github/datacon2025hack/step_04_hit_selection/docking/ligands/lig_28.pdb
REMARK  9 active torsions:
REMARK  status: ('A' for Active; 'I' for Inactive)
REMARK    1  A    between atoms: C1_1  and  C2_2
REMARK    2  A    between atoms: C2_2  and  C3_3
REMARK    3  A    between atoms: C2_2  and  N1_4
REMARK    4  A    between atoms: C5_7  and  C6_8
REMARK    5  A    between atoms: N3_10  and  C7_11
REMARK    6  A    between atoms: C7_11  and  C8_12
REMARK    7  A    between atoms: N4_14  and  C10_15
REMARK    8  A    between atoms: C13_19  and  C14_20
REMARK    9  A    between atoms: C16_24  and  C17_25
REMARK                            x       y       z     vdW  Elec       q    Type
REMARK                         _______ _______ _______ _____ _____    ______ ____
ROOT
ATOM      1  C8  UNL     1      12.391  14.495  34.047  0.00  0.00    +0.028 C 
ATOM      2  C9  UNL     1      13.736  13.785  34.208  0.00  0.00    +0.112 C 
ATOM      3  N4  UNL     1      13.547  12.853  35.309  0.00  0.00    -0.313 N 
ATOM      4  C15 UNL     1      12.157  12.757  35.731  0.00  0.00    +0.110 C 
ATOM      5  C16 UNL     1      11.361  13.546  34.690  0.00  0.00    +0.009 C 
ATOM      6  C17 UNL     1      10.169  14.288  35.304  0.00  0.00    +0.009 C 
ENDROOT
BRANCH   3   7
ATOM      7  C10 UNL     1      14.631  12.104  35.890  0.00  0.00    +0.141 A 
ATOM      8  C11 UNL     1      14.401  10.943  36.649  0.00  0.00    +0.154 A 
ATOM      9  N5  UNL     1      15.456  10.270  37.180  0.00  0.00    -0.257 NA
ATOM     10  C12 UNL     1      16.732  10.693  36.992  0.00  0.00    +0.149 A 
ATOM     11  C13 UNL     1      16.967  11.847  36.241  0.00  0.00    +0.160 A 
ATOM     12  N7  UNL     1      15.915  12.522  35.710  0.00  0.00    -0.219 NA
BRANCH  11  13
ATOM     13  C14 UNL     1      18.307  12.322  36.024  0.00  0.00    +0.121 C 
ATOM     14  N6  UNL     1      19.384  12.706  35.849  0.00  0.00    -0.189 NA
ENDBRANCH  11  13
ENDBRANCH   3   7
BRANCH   1  15
ATOM     15  C7  UNL     1      12.071  14.910  32.594  0.00  0.00    +0.110 C 
BRANCH  15  18
ATOM     16  C6  UNL     1      10.965  13.761  30.604  0.00  0.00    +0.264 C 
ATOM     17  O1  UNL     1      11.938  14.051  29.858  0.00  0.00    -0.268 OA
ATOM     18  N3  UNL     1      11.004  14.099  32.001  0.00  0.00    -0.310 N 
ATOM     19  H9  UNL     1      10.253  13.748  32.635  0.00  0.00    +0.149 HD
BRANCH  16  23
ATOM     20  N1  UNL     1       8.347  11.541  29.412  0.00  0.00    -0.334 N 
ATOM     21  C4  UNL     1       7.934  12.766  29.029  0.00  0.00    +0.200 A 
ATOM     22  N2  UNL     1       8.799  13.739  29.385  0.00  0.00    -0.231 NA
ATOM     23  C5  UNL     1       9.795  13.083  30.018  0.00  0.00    +0.143 A 
ATOM     24  C18 UNL     1       9.522  11.730  30.040  0.00  0.00    +0.120 A 
BRANCH  20  26
ATOM     25  C1  UNL     1       8.122   9.219  30.199  0.00  0.00    +0.030 C 
ATOM     26  C2  UNL     1       7.641  10.273  29.198  0.00  0.00    +0.082 C 
ATOM     27  C3  UNL     1       7.828   9.793  27.757  0.00  0.00    +0.030 C 
ENDBRANCH  20  26
ENDBRANCH  16  23
ENDBRANCH  15  18
ENDBRANCH   1  15
TORSDOF 6
ENDMDL
