REMARK  Name = /home/qwerty/github/datacon2025hack/step_04_hit_selection/docking/ligands/lig_599.pdb
REMARK  7 active torsions:
REMARK  status: ('A' for Active; 'I' for Inactive)
REMARK    1  A    between atoms: C1_1  and  O1_2
REMARK    2  A    between atoms: O1_2  and  C2_3
REMARK    3  A    between atoms: C5_7  and  C6_8
REMARK    4  A    between atoms: N1_10  and  C7_11
REMARK    5  A    between atoms: C7_11  and  C8_12
REMARK    6  A    between atoms: C7_11  and  C9_13
REMARK    7  A    between atoms: C13_17  and  O3_18
REMARK                            x       y       z     vdW  Elec       q    Type
REMARK                         _______ _______ _______ _____ _____    ______ ____
ROOT
ATOM      1  C6  UNL     1       0.337  -0.375   1.135  0.00  0.00    +0.247 C 
ATOM      2  O2  UNL     1      -0.227  -1.363   1.680  0.00  0.00    -0.270 OA
ATOM      3  N1  UNL     1      -0.275   0.923   1.206  0.00  0.00    -0.305 N 
ATOM      4  H5  UNL     1       0.297   1.762   0.961  0.00  0.00    +0.150 HD
ENDROOT
BRANCH   1   9
ATOM      5  C2  UNL     1       4.125  -0.979  -0.814  0.00  0.00    +0.158 A 
ATOM      6  C3  UNL     1       3.216  -0.032  -1.320  0.00  0.00    +0.087 A 
ATOM      7  C4  UNL     1       1.981   0.170  -0.695  0.00  0.00    +0.139 A 
ATOM      8  F1  UNL     1       1.108   1.051  -1.248  0.00  0.00    -0.205 F 
ATOM      9  C5  UNL     1       1.637  -0.568   0.454  0.00  0.00    +0.075 A 
ATOM     10  C15 UNL     1       2.541  -1.525   0.944  0.00  0.00    +0.058 A 
ATOM     11  C16 UNL     1       3.775  -1.724   0.318  0.00  0.00    +0.166 A 
ATOM     12  F2  UNL     1       4.637  -2.645   0.817  0.00  0.00    -0.202 F 
BRANCH   5  14
ATOM     13  C1  UNL     1       5.858  -0.529  -2.560  0.00  0.00    +0.277 C 
ATOM     14  O1  UNL     1       5.375  -1.212  -1.407  0.00  0.00    -0.492 OA
ENDBRANCH   5  14
ENDBRANCH   1   9
BRANCH   3  15
ATOM     15  C7  UNL     1      -1.654   1.104   1.673  0.00  0.00    +0.101 C 
ATOM     16  C8  UNL     1      -1.961   2.589   1.890  0.00  0.00    +0.033 C 
BRANCH  15  17
ATOM     17  C9  UNL     1      -2.629   0.508   0.680  0.00  0.00    -0.024 A 
ATOM     18  C10 UNL     1      -2.534   0.815  -0.690  0.00  0.00    +0.005 A 
ATOM     19  C11 UNL     1      -3.444   0.270  -1.600  0.00  0.00    +0.004 A 
ATOM     20  C12 UNL     1      -4.460  -0.579  -1.153  0.00  0.00    +0.045 A 
ATOM     21  C13 UNL     1      -4.572  -0.884   0.207  0.00  0.00    +0.117 A 
ATOM     22  C14 UNL     1      -3.660  -0.339   1.122  0.00  0.00    +0.050 A 
BRANCH  21  23
ATOM     23  O3  UNL     1      -5.593  -1.728   0.639  0.00  0.00    -0.507 OA
ATOM     24  H13 UNL     1      -5.702  -1.969   1.617  0.00  0.00    +0.292 HD
ENDBRANCH  21  23
ENDBRANCH  15  17
ENDBRANCH   3  15
TORSDOF 5
