MODEL 1
REMARK VINA RESULT:    -7.177      0.000      0.000
REMARK INTER + INTRA:          -7.839
REMARK INTER:                  -7.596
REMARK INTRA:                  -0.242
REMARK UNBOUND:                -0.242
REMARK  Name = /home/qwerty/github/datacon2025hack/step_04_hit_selection/docking/ligands/lig_235.pdb
REMARK  2 active torsions:
REMARK  status: ('A' for Active; 'I' for Inactive)
REMARK    1  A    between atoms: C1_1  and  C2_2
REMARK    2  A    between atoms: C6_7  and  C7_8
REMARK                            x       y       z     vdW  Elec       q    Type
REMARK                         _______ _______ _______ _____ _____    ______ ____
ROOT
ATOM      1  C7  UNL     1      21.742   2.291  27.733  0.00  0.00    +0.076 A 
ATOM      2  C8  UNL     1      20.677   2.141  28.636  0.00  0.00    +0.072 A 
ATOM      3  C9  UNL     1      20.912   1.514  29.871  0.00  0.00    +0.125 A 
ATOM      4  N2  UNL     1      19.854   1.326  30.834  0.00  0.00    -0.312 N 
ATOM      5  C10 UNL     1      19.911   0.158  31.725  0.00  0.00    +0.125 C 
ATOM      6  C11 UNL     1      18.577  -0.076  32.440  0.00  0.00    +0.127 C 
ATOM      7  N3  UNL     1      18.102   1.170  33.057  0.00  0.00    -0.297 N 
ATOM      8  C12 UNL     1      17.421   1.149  34.329  0.00  0.00    +0.218 A 
ATOM      9  N4  UNL     1      17.102   2.317  34.954  0.00  0.00    -0.223 NA
ATOM     10  C13 UNL     1      16.458   2.321  36.151  0.00  0.00    +0.116 A 
ATOM     11  C14 UNL     1      16.113   1.117  36.758  0.00  0.00    +0.039 A 
ATOM     12  C15 UNL     1      16.443  -0.071  36.110  0.00  0.00    +0.116 A 
ATOM     13  N5  UNL     1      17.086  -0.034  34.914  0.00  0.00    -0.223 NA
ATOM     14  C16 UNL     1      18.236   2.444  32.335  0.00  0.00    +0.127 C 
ATOM     15  C17 UNL     1      18.704   2.241  30.888  0.00  0.00    +0.125 C 
ATOM     16  N6  UNL     1      22.160   1.044  30.145  0.00  0.00    -0.221 NA
ATOM     17  C18 UNL     1      23.178   1.184  29.260  0.00  0.00    +0.223 A 
ATOM     18  N7  UNL     1      22.966   1.801  28.071  0.00  0.00    -0.235 NA
ENDROOT
BRANCH   1  25
ATOM     19  C1  UNL     1      22.263   7.026  22.139  0.00  0.00    +0.086 C 
ATOM     20  C2  UNL     1      22.010   5.895  23.079  0.00  0.00    +0.105 A 
ATOM     21  N1  UNL     1      21.173   4.864  22.787  0.00  0.00    -0.233 NA
ATOM     22  C3  UNL     1      21.205   4.130  23.914  0.00  0.00    +0.089 A 
ATOM     23  C4  UNL     1      20.534   2.941  24.175  0.00  0.00    +0.030 A 
ATOM     24  C5  UNL     1      20.720   2.346  25.436  0.00  0.00    +0.012 A 
ATOM     25  C6  UNL     1      21.560   2.948  26.414  0.00  0.00    +0.003 A 
ATOM     26  C19 UNL     1      22.229   4.158  26.098  0.00  0.00    +0.037 A 
ATOM     27  C20 UNL     1      22.019   4.711  24.838  0.00  0.00    +0.067 A 
ATOM     28  N8  UNL     1      22.536   5.835  24.327  0.00  0.00    -0.342 N 
ATOM     29  H20 UNL     1      23.186   6.512  24.787  0.00  0.00    +0.167 HD
ENDBRANCH   1  25
TORSDOF 1
ENDMDL
MODEL 2
REMARK VINA RESULT:    -7.143      1.391     10.237
REMARK INTER + INTRA:          -7.803
REMARK INTER:                  -7.559
REMARK INTRA:                  -0.244
REMARK UNBOUND:                -0.242
REMARK  Name = /home/qwerty/github/datacon2025hack/step_04_hit_selection/docking/ligands/lig_235.pdb
REMARK  2 active torsions:
REMARK  status: ('A' for Active; 'I' for Inactive)
REMARK    1  A    between atoms: C1_1  and  C2_2
REMARK    2  A    between atoms: C6_7  and  C7_8
REMARK                            x       y       z     vdW  Elec       q    Type
REMARK                         _______ _______ _______ _____ _____    ______ ____
ROOT
ATOM      1  C7  UNL     1      20.782   1.222  30.313  0.00  0.00    +0.076 A 
ATOM      2  C8  UNL     1      20.780   2.268  29.375  0.00  0.00    +0.072 A 
ATOM      3  C9  UNL     1      21.469   2.099  28.164  0.00  0.00    +0.125 A 
ATOM      4  N2  UNL     1      21.506   3.142  27.167  0.00  0.00    -0.312 N 
ATOM      5  C10 UNL     1      22.691   3.250  26.302  0.00  0.00    +0.125 C 
ATOM      6  C11 UNL     1      22.722   4.580  25.544  0.00  0.00    +0.127 C 
ATOM      7  N3  UNL     1      21.432   4.824  24.886  0.00  0.00    -0.297 N 
ATOM      8  C12 UNL     1      21.374   5.457  23.591  0.00  0.00    +0.218 A 
ATOM      9  N4  UNL     1      20.186   5.560  22.931  0.00  0.00    -0.223 NA
ATOM     10  C13 UNL     1      20.107   6.156  21.712  0.00  0.00    +0.116 A 
ATOM     11  C14 UNL     1      21.255   6.674  21.117  0.00  0.00    +0.039 A 
ATOM     12  C15 UNL     1      22.464   6.565  21.801  0.00  0.00    +0.116 A 
ATOM     13  N5  UNL     1      22.501   5.963  23.018  0.00  0.00    -0.223 NA
ATOM     14  C16 UNL     1      20.178   4.506  25.586  0.00  0.00    +0.127 C 
ATOM     15  C17 UNL     1      20.417   4.124  27.052  0.00  0.00    +0.125 C 
ATOM     16  N6  UNL     1      22.143   0.937  27.944  0.00  0.00    -0.221 NA
ATOM     17  C18 UNL     1      22.149  -0.061  28.862  0.00  0.00    +0.223 A 
ATOM     18  N7  UNL     1      21.475   0.086  30.030  0.00  0.00    -0.235 NA
ENDROOT
BRANCH   1  25
ATOM     19  C1  UNL     1      16.127   0.036  35.872  0.00  0.00    +0.086 C 
ATOM     20  C2  UNL     1      17.202   0.468  34.932  0.00  0.00    +0.105 A 
ATOM     21  N1  UNL     1      18.030   1.516  35.186  0.00  0.00    -0.233 NA
ATOM     22  C3  UNL     1      18.781   1.575  34.071  0.00  0.00    +0.089 A 
ATOM     23  C4  UNL     1      19.811   2.464  33.786  0.00  0.00    +0.030 A 
ATOM     24  C5  UNL     1      20.462   2.337  32.544  0.00  0.00    +0.012 A 
ATOM     25  C6  UNL     1      20.071   1.336  31.612  0.00  0.00    +0.003 A 
ATOM     26  C19 UNL     1      19.019   0.448  31.952  0.00  0.00    +0.037 A 
ATOM     27  C20 UNL     1      18.404   0.607  33.191  0.00  0.00    +0.067 A 
ATOM     28  N8  UNL     1      17.400  -0.103  33.718  0.00  0.00    -0.342 N 
ATOM     29  H20 UNL     1      16.884  -0.905  33.290  0.00  0.00    +0.167 HD
ENDBRANCH   1  25
TORSDOF 1
ENDMDL
MODEL 3
REMARK VINA RESULT:    -7.080     13.020     14.208
REMARK INTER + INTRA:          -7.736
REMARK INTER:                  -7.493
REMARK INTRA:                  -0.243
REMARK UNBOUND:                -0.242
REMARK  Name = /home/qwerty/github/datacon2025hack/step_04_hit_selection/docking/ligands/lig_235.pdb
REMARK  2 active torsions:
REMARK  status: ('A' for Active; 'I' for Inactive)
REMARK    1  A    between atoms: C1_1  and  C2_2
REMARK    2  A    between atoms: C6_7  and  C7_8
REMARK                            x       y       z     vdW  Elec       q    Type
REMARK                         _______ _______ _______ _____ _____    ______ ____
ROOT
ATOM      1  C7  UNL     1      10.547  13.382  28.403  0.00  0.00    +0.076 A 
ATOM      2  C8  UNL     1      10.263  12.080  28.846  0.00  0.00    +0.072 A 
ATOM      3  C9  UNL     1       8.954  11.587  28.720  0.00  0.00    +0.125 A 
ATOM      4  N2  UNL     1       8.604  10.259  29.165  0.00  0.00    -0.312 N 
ATOM      5  C10 UNL     1       7.238  10.017  29.652  0.00  0.00    +0.125 C 
ATOM      6  C11 UNL     1       7.126   8.677  30.384  0.00  0.00    +0.127 C 
ATOM      7  N3  UNL     1       7.711   7.600  29.573  0.00  0.00    -0.297 N 
ATOM      8  C12 UNL     1       7.121   6.284  29.561  0.00  0.00    +0.218 A 
ATOM      9  N4  UNL     1       7.590   5.331  28.708  0.00  0.00    -0.223 NA
ATOM     10  C13 UNL     1       7.052   4.083  28.682  0.00  0.00    +0.116 A 
ATOM     11  C14 UNL     1       6.003   3.761  29.538  0.00  0.00    +0.039 A 
ATOM     12  C15 UNL     1       5.532   4.742  30.408  0.00  0.00    +0.116 A 
ATOM     13  N5  UNL     1       6.096   5.978  30.405  0.00  0.00    -0.223 NA
ATOM     14  C16 UNL     1       8.962   7.834  28.835  0.00  0.00    +0.127 C 
ATOM     15  C17 UNL     1       9.602   9.180  29.196  0.00  0.00    +0.125 C 
ATOM     16  N6  UNL     1       7.992  12.396  28.197  0.00  0.00    -0.221 NA
ATOM     17  C18 UNL     1       8.275  13.655  27.784  0.00  0.00    +0.223 A 
ATOM     18  N7  UNL     1       9.539  14.138  27.888  0.00  0.00    -0.235 NA
ENDROOT
BRANCH   1  25
ATOM     19  C1  UNL     1      17.084  16.248  26.659  0.00  0.00    +0.086 C 
ATOM     20  C2  UNL     1      15.834  15.736  27.293  0.00  0.00    +0.105 A 
ATOM     21  N1  UNL     1      15.686  15.605  28.637  0.00  0.00    -0.233 NA
ATOM     22  C3  UNL     1      14.458  15.068  28.748  0.00  0.00    +0.089 A 
ATOM     23  C4  UNL     1      13.780  14.728  29.913  0.00  0.00    +0.030 A 
ATOM     24  C5  UNL     1      12.493  14.174  29.785  0.00  0.00    +0.012 A 
ATOM     25  C6  UNL     1      11.911  13.962  28.504  0.00  0.00    +0.003 A 
ATOM     26  C19 UNL     1      12.639  14.332  27.345  0.00  0.00    +0.037 A 
ATOM     27  C20 UNL     1      13.908  14.879  27.518  0.00  0.00    +0.067 A 
ATOM     28  N8  UNL     1      14.769  15.293  26.580  0.00  0.00    -0.342 N 
ATOM     29  H20 UNL     1      14.650  15.272  25.542  0.00  0.00    +0.167 HD
ENDBRANCH   1  25
TORSDOF 1
ENDMDL
MODEL 4
REMARK VINA RESULT:    -7.057     12.821     16.123
REMARK INTER + INTRA:          -7.712
REMARK INTER:                  -7.466
REMARK INTRA:                  -0.246
REMARK UNBOUND:                -0.242
REMARK  Name = /home/qwerty/github/datacon2025hack/step_04_hit_selection/docking/ligands/lig_235.pdb
REMARK  2 active torsions:
REMARK  status: ('A' for Active; 'I' for Inactive)
REMARK    1  A    between atoms: C1_1  and  C2_2
REMARK    2  A    between atoms: C6_7  and  C7_8
REMARK                            x       y       z     vdW  Elec       q    Type
REMARK                         _______ _______ _______ _____ _____    ______ ____
ROOT
ATOM      1  C7  UNL     1       8.629  11.173  28.867  0.00  0.00    +0.076 A 
ATOM      2  C8  UNL     1       9.897  11.530  28.380  0.00  0.00    +0.072 A 
ATOM      3  C9  UNL     1      10.319  12.865  28.492  0.00  0.00    +0.125 A 
ATOM      4  N2  UNL     1      11.609  13.291  28.003  0.00  0.00    -0.312 N 
ATOM      5  C10 UNL     1      11.757  14.669  27.510  0.00  0.00    +0.125 C 
ATOM      6  C11 UNL     1      13.062  14.857  26.733  0.00  0.00    +0.127 C 
ATOM      7  N3  UNL     1      14.198  14.334  27.505  0.00  0.00    -0.297 N 
ATOM      8  C12 UNL     1      15.478  14.997  27.473  0.00  0.00    +0.218 A 
ATOM      9  N4  UNL     1      16.485  14.583  28.292  0.00  0.00    -0.223 NA
ATOM     10  C13 UNL     1      17.701  15.190  28.277  0.00  0.00    +0.116 A 
ATOM     11  C14 UNL     1      17.933  16.257  27.412  0.00  0.00    +0.039 A 
ATOM     12  C15 UNL     1      16.897  16.671  26.577  0.00  0.00    +0.116 A 
ATOM     13  N5  UNL     1      15.696  16.038  26.622  0.00  0.00    -0.223 NA
ATOM     14  C16 UNL     1      14.061  13.071  28.248  0.00  0.00    +0.127 C 
ATOM     15  C17 UNL     1      12.742  12.356  27.932  0.00  0.00    +0.125 C 
ATOM     16  N6  UNL     1       9.476  13.780  29.045  0.00  0.00    -0.221 NA
ATOM     17  C18 UNL     1       8.250  13.426  29.500  0.00  0.00    +0.223 A 
ATOM     18  N7  UNL     1       7.836  12.137  29.410  0.00  0.00    -0.235 NA
ENDROOT
BRANCH   1  25
ATOM     19  C1  UNL     1       6.014   4.552  30.684  0.00  0.00    +0.086 C 
ATOM     20  C2  UNL     1       6.493   5.807  30.035  0.00  0.00    +0.105 A 
ATOM     21  N1  UNL     1       6.682   5.921  28.694  0.00  0.00    -0.233 NA
ATOM     22  C3  UNL     1       7.161   7.172  28.569  0.00  0.00    +0.089 A 
ATOM     23  C4  UNL     1       7.524   7.831  27.400  0.00  0.00    +0.030 A 
ATOM     24  C5  UNL     1       8.005   9.149  27.512  0.00  0.00    +0.012 A 
ATOM     25  C6  UNL     1       8.125   9.779  28.782  0.00  0.00    +0.003 A 
ATOM     26  C19 UNL     1       7.736   9.067  29.946  0.00  0.00    +0.037 A 
ATOM     27  C20 UNL     1       7.262   7.767  29.789  0.00  0.00    +0.067 A 
ATOM     28  N8  UNL     1       6.847   6.915  30.733  0.00  0.00    -0.342 N 
ATOM     29  H20 UNL     1       6.810   7.065  31.766  0.00  0.00    +0.167 HD
ENDBRANCH   1  25
TORSDOF 1
ENDMDL
MODEL 5
REMARK VINA RESULT:    -7.032      6.719     10.844
REMARK INTER + INTRA:          -7.686
REMARK INTER:                  -7.459
REMARK INTRA:                  -0.227
REMARK UNBOUND:                -0.242
REMARK  Name = /home/qwerty/github/datacon2025hack/step_04_hit_selection/docking/ligands/lig_235.pdb
REMARK  2 active torsions:
REMARK  status: ('A' for Active; 'I' for Inactive)
REMARK    1  A    between atoms: C1_1  and  C2_2
REMARK    2  A    between atoms: C6_7  and  C7_8
REMARK                            x       y       z     vdW  Elec       q    Type
REMARK                         _______ _______ _______ _____ _____    ______ ____
ROOT
ATOM      1  C7  UNL     1      19.983   8.335  36.599  0.00  0.00    +0.076 A 
ATOM      2  C8  UNL     1      19.954   7.513  35.461  0.00  0.00    +0.072 A 
ATOM      3  C9  UNL     1      20.998   6.597  35.254  0.00  0.00    +0.125 A 
ATOM      4  N2  UNL     1      21.023   5.732  34.098  0.00  0.00    -0.312 N 
ATOM      5  C10 UNL     1      22.326   5.325  33.551  0.00  0.00    +0.125 C 
ATOM      6  C11 UNL     1      22.187   4.700  32.160  0.00  0.00    +0.127 C 
ATOM      7  N3  UNL     1      21.150   3.660  32.168  0.00  0.00    -0.297 N 
ATOM      8  C12 UNL     1      21.304   2.460  31.382  0.00  0.00    +0.218 A 
ATOM      9  N4  UNL     1      20.402   1.446  31.497  0.00  0.00    -0.223 NA
ATOM     10  C13 UNL     1      20.524   0.308  30.764  0.00  0.00    +0.116 A 
ATOM     11  C14 UNL     1      21.588   0.165  29.877  0.00  0.00    +0.039 A 
ATOM     12  C15 UNL     1      22.504   1.209  29.766  0.00  0.00    +0.116 A 
ATOM     13  N5  UNL     1      22.346   2.331  30.515  0.00  0.00    -0.223 NA
ATOM     14  C16 UNL     1      19.898   3.878  32.910  0.00  0.00    +0.127 C 
ATOM     15  C17 UNL     1      19.780   5.314  33.434  0.00  0.00    +0.125 C 
ATOM     16  N6  UNL     1      22.023   6.551  36.149  0.00  0.00    -0.221 NA
ATOM     17  C18 UNL     1      22.046   7.358  37.238  0.00  0.00    +0.223 A 
ATOM     18  N7  UNL     1      21.036   8.238  37.455  0.00  0.00    -0.235 NA
ENDROOT
BRANCH   1  25
ATOM     19  C1  UNL     1      15.798  14.371  36.399  0.00  0.00    +0.086 C 
ATOM     20  C2  UNL     1      16.431  13.037  36.614  0.00  0.00    +0.105 A 
ATOM     21  N1  UNL     1      15.972  12.139  37.524  0.00  0.00    -0.233 NA
ATOM     22  C3  UNL     1      16.858  11.132  37.417  0.00  0.00    +0.089 A 
ATOM     23  C4  UNL     1      16.869   9.930  38.117  0.00  0.00    +0.030 A 
ATOM     24  C5  UNL     1      17.904   9.018  37.838  0.00  0.00    +0.012 A 
ATOM     25  C6  UNL     1      18.908   9.322  36.877  0.00  0.00    +0.003 A 
ATOM     26  C19 UNL     1      18.850  10.558  36.184  0.00  0.00    +0.037 A 
ATOM     27  C20 UNL     1      17.808  11.430  36.489  0.00  0.00    +0.067 A 
ATOM     28  N8  UNL     1      17.557  12.638  35.971  0.00  0.00    -0.342 N 
ATOM     29  H20 UNL     1      18.104  13.154  35.247  0.00  0.00    +0.167 HD
ENDBRANCH   1  25
TORSDOF 1
ENDMDL
MODEL 6
REMARK VINA RESULT:    -6.972      4.417      8.682
REMARK INTER + INTRA:          -7.622
REMARK INTER:                  -7.352
REMARK INTRA:                  -0.270
REMARK UNBOUND:                -0.242
REMARK  Name = /home/qwerty/github/datacon2025hack/step_04_hit_selection/docking/ligands/lig_235.pdb
REMARK  2 active torsions:
REMARK  status: ('A' for Active; 'I' for Inactive)
REMARK    1  A    between atoms: C1_1  and  C2_2
REMARK    2  A    between atoms: C6_7  and  C7_8
REMARK                            x       y       z     vdW  Elec       q    Type
REMARK                         _______ _______ _______ _____ _____    ______ ____
ROOT
ATOM      1  C7  UNL     1      21.763   2.492  30.552  0.00  0.00    +0.076 A 
ATOM      2  C8  UNL     1      20.771   2.396  29.562  0.00  0.00    +0.072 A 
ATOM      3  C9  UNL     1      20.980   1.540  28.468  0.00  0.00    +0.125 A 
ATOM      4  N2  UNL     1      19.999   1.407  27.418  0.00  0.00    -0.312 N 
ATOM      5  C10 UNL     1      20.462   1.104  26.056  0.00  0.00    +0.125 C 
ATOM      6  C11 UNL     1      19.356   1.323  25.019  0.00  0.00    +0.127 C 
ATOM      7  N3  UNL     1      18.121   0.645  25.436  0.00  0.00    -0.297 N 
ATOM      8  C12 UNL     1      17.262   0.017  24.462  0.00  0.00    +0.218 A 
ATOM      9  N4  UNL     1      16.191  -0.721  24.869  0.00  0.00    -0.223 NA
ATOM     10  C13 UNL     1      15.365  -1.318  23.970  0.00  0.00    +0.116 A 
ATOM     11  C14 UNL     1      15.608  -1.181  22.606  0.00  0.00    +0.039 A 
ATOM     12  C15 UNL     1      16.705  -0.423  22.201  0.00  0.00    +0.116 A 
ATOM     13  N5  UNL     1      17.506   0.159  23.130  0.00  0.00    -0.223 NA
ATOM     14  C16 UNL     1      17.704   0.681  26.846  0.00  0.00    +0.127 C 
ATOM     15  C17 UNL     1      18.570   1.634  27.679  0.00  0.00    +0.125 C 
ATOM     16  N6  UNL     1      22.150   0.848  28.386  0.00  0.00    -0.221 NA
ATOM     17  C18 UNL     1      23.104   0.958  29.342  0.00  0.00    +0.223 A 
ATOM     18  N7  UNL     1      22.908   1.771  30.409  0.00  0.00    -0.235 NA
ENDROOT
BRANCH   1  25
ATOM     19  C1  UNL     1      23.221   6.903  36.244  0.00  0.00    +0.086 C 
ATOM     20  C2  UNL     1      22.641   6.083  35.141  0.00  0.00    +0.105 A 
ATOM     21  N1  UNL     1      21.306   5.868  35.002  0.00  0.00    -0.233 NA
ATOM     22  C3  UNL     1      21.249   5.049  33.936  0.00  0.00    +0.089 A 
ATOM     23  C4  UNL     1      20.116   4.512  33.336  0.00  0.00    +0.030 A 
ATOM     24  C5  UNL     1      20.299   3.672  32.222  0.00  0.00    +0.012 A 
ATOM     25  C6  UNL     1      21.602   3.376  31.735  0.00  0.00    +0.003 A 
ATOM     26  C19 UNL     1      22.727   3.955  32.376  0.00  0.00    +0.037 A 
ATOM     27  C20 UNL     1      22.500   4.782  33.473  0.00  0.00    +0.067 A 
ATOM     28  N8  UNL     1      23.398   5.425  34.228  0.00  0.00    -0.342 N 
ATOM     29  H20 UNL     1      24.439   5.417  34.139  0.00  0.00    +0.167 HD
ENDBRANCH   1  25
TORSDOF 1
ENDMDL
MODEL 7
REMARK VINA RESULT:    -6.905      7.574     10.429
REMARK INTER + INTRA:          -7.551
REMARK INTER:                  -7.306
REMARK INTRA:                  -0.245
REMARK UNBOUND:                -0.242
REMARK  Name = /home/qwerty/github/datacon2025hack/step_04_hit_selection/docking/ligands/lig_235.pdb
REMARK  2 active torsions:
REMARK  status: ('A' for Active; 'I' for Inactive)
REMARK    1  A    between atoms: C1_1  and  C2_2
REMARK    2  A    between atoms: C6_7  and  C7_8
REMARK                            x       y       z     vdW  Elec       q    Type
REMARK                         _______ _______ _______ _____ _____    ______ ____
ROOT
ATOM      1  C7  UNL     1      17.135   0.804  23.342  0.00  0.00    +0.076 A 
ATOM      2  C8  UNL     1      16.080   1.717  23.176  0.00  0.00    +0.072 A 
ATOM      3  C9  UNL     1      14.936   1.316  22.466  0.00  0.00    +0.125 A 
ATOM      4  N2  UNL     1      13.826   2.214  22.259  0.00  0.00    -0.312 N 
ATOM      5  C10 UNL     1      13.020   2.069  21.038  0.00  0.00    +0.125 C 
ATOM      6  C11 UNL     1      12.112   3.280  20.809  0.00  0.00    +0.127 C 
ATOM      7  N3  UNL     1      11.360   3.594  22.032  0.00  0.00    -0.297 N 
ATOM      8  C12 UNL     1       9.997   4.062  21.959  0.00  0.00    +0.218 A 
ATOM      9  N4  UNL     1       9.266   4.224  23.097  0.00  0.00    -0.223 NA
ATOM     10  C13 UNL     1       7.983   4.668  23.053  0.00  0.00    +0.116 A 
ATOM     11  C14 UNL     1       7.393   4.965  21.827  0.00  0.00    +0.039 A 
ATOM     12  C15 UNL     1       8.149   4.798  20.669  0.00  0.00    +0.116 A 
ATOM     13  N5  UNL     1       9.430   4.353  20.755  0.00  0.00    -0.223 NA
ATOM     14  C16 UNL     1      12.024   3.519  23.342  0.00  0.00    +0.127 C 
ATOM     15  C17 UNL     1      13.536   3.298  23.210  0.00  0.00    +0.125 C 
ATOM     16  N6  UNL     1      14.894   0.063  21.937  0.00  0.00    -0.221 NA
ATOM     17  C18 UNL     1      15.923  -0.806  22.093  0.00  0.00    +0.223 A 
ATOM     18  N7  UNL     1      17.028  -0.434  22.788  0.00  0.00    -0.235 NA
ENDROOT
BRANCH   1  25
ATOM     19  C1  UNL     1      23.160   4.349  25.603  0.00  0.00    +0.086 C 
ATOM     20  C2  UNL     1      21.986   3.456  25.382  0.00  0.00    +0.105 A 
ATOM     21  N1  UNL     1      21.791   2.304  26.076  0.00  0.00    -0.233 NA
ATOM     22  C3  UNL     1      20.670   1.810  25.521  0.00  0.00    +0.089 A 
ATOM     23  C4  UNL     1      20.000   0.639  25.854  0.00  0.00    +0.030 A 
ATOM     24  C5  UNL     1      18.837   0.319  25.129  0.00  0.00    +0.012 A 
ATOM     25  C6  UNL     1      18.370   1.165  24.084  0.00  0.00    +0.003 A 
ATOM     26  C19 UNL     1      19.084   2.353  23.786  0.00  0.00    +0.037 A 
ATOM     27  C20 UNL     1      20.228   2.632  24.529  0.00  0.00    +0.067 A 
ATOM     28  N8  UNL     1      21.053   3.680  24.423  0.00  0.00    -0.342 N 
ATOM     29  H20 UNL     1      20.996   4.480  23.753  0.00  0.00    +0.167 HD
ENDBRANCH   1  25
TORSDOF 1
ENDMDL
MODEL 8
REMARK VINA RESULT:    -6.902     11.279     13.157
REMARK INTER + INTRA:          -7.548
REMARK INTER:                  -7.306
REMARK INTRA:                  -0.241
REMARK UNBOUND:                -0.242
REMARK  Name = /home/qwerty/github/datacon2025hack/step_04_hit_selection/docking/ligands/lig_235.pdb
REMARK  2 active torsions:
REMARK  status: ('A' for Active; 'I' for Inactive)
REMARK    1  A    between atoms: C1_1  and  C2_2
REMARK    2  A    between atoms: C6_7  and  C7_8
REMARK                            x       y       z     vdW  Elec       q    Type
REMARK                         _______ _______ _______ _____ _____    ______ ____
ROOT
ATOM      1  C7  UNL     1      13.295  13.772  32.817  0.00  0.00    +0.076 A 
ATOM      2  C8  UNL     1      14.339  12.855  33.022  0.00  0.00    +0.072 A 
ATOM      3  C9  UNL     1      14.956  12.794  34.282  0.00  0.00    +0.125 A 
ATOM      4  N2  UNL     1      16.038  11.876  34.547  0.00  0.00    -0.312 N 
ATOM      5  C10 UNL     1      17.063  12.260  35.530  0.00  0.00    +0.125 C 
ATOM      6  C11 UNL     1      18.292  11.351  35.451  0.00  0.00    +0.127 C 
ATOM      7  N3  UNL     1      17.887   9.939  35.475  0.00  0.00    -0.297 N 
ATOM      8  C12 UNL     1      18.686   8.955  36.165  0.00  0.00    +0.218 A 
ATOM      9  N4  UNL     1      18.236   7.676  36.294  0.00  0.00    -0.223 NA
ATOM     10  C13 UNL     1      18.972   6.732  36.937  0.00  0.00    +0.116 A 
ATOM     11  C14 UNL     1      20.211   7.067  37.478  0.00  0.00    +0.039 A 
ATOM     12  C15 UNL     1      20.662   8.378  37.340  0.00  0.00    +0.116 A 
ATOM     13  N5  UNL     1      19.897   9.293  36.690  0.00  0.00    -0.223 NA
ATOM     14  C16 UNL     1      16.707   9.500  34.714  0.00  0.00    +0.127 C 
ATOM     15  C17 UNL     1      16.160  10.611  33.809  0.00  0.00    +0.125 C 
ATOM     16  N6  UNL     1      14.541  13.644  35.262  0.00  0.00    -0.221 NA
ATOM     17  C18 UNL     1      13.540  14.533  35.049  0.00  0.00    +0.223 A 
ATOM     18  N7  UNL     1      12.928  14.592  33.839  0.00  0.00    -0.235 NA
ENDROOT
BRANCH   1  25
ATOM     19  C1  UNL     1       8.140  13.546  27.586  0.00  0.00    +0.086 C 
ATOM     20  C2  UNL     1       9.348  13.734  28.441  0.00  0.00    +0.105 A 
ATOM     21  N1  UNL     1      10.538  14.174  27.954  0.00  0.00    -0.233 NA
ATOM     22  C3  UNL     1      11.333  14.136  29.039  0.00  0.00    +0.089 A 
ATOM     23  C4  UNL     1      12.674  14.494  29.124  0.00  0.00    +0.030 A 
ATOM     24  C5  UNL     1      13.308  14.369  30.374  0.00  0.00    +0.012 A 
ATOM     25  C6  UNL     1      12.600  13.885  31.509  0.00  0.00    +0.003 A 
ATOM     26  C19 UNL     1      11.231  13.539  31.374  0.00  0.00    +0.037 A 
ATOM     27  C20 UNL     1      10.643  13.680  30.120  0.00  0.00    +0.067 A 
ATOM     28  N8  UNL     1       9.382  13.415  29.759  0.00  0.00    -0.342 N 
ATOM     29  H20 UNL     1       8.607  13.043  30.353  0.00  0.00    +0.167 HD
ENDBRANCH   1  25
TORSDOF 1
ENDMDL
MODEL 9
REMARK VINA RESULT:    -6.731      2.499     10.523
REMARK INTER + INTRA:          -7.367
REMARK INTER:                  -7.135
REMARK INTRA:                  -0.231
REMARK UNBOUND:                -0.242
REMARK  Name = /home/qwerty/github/datacon2025hack/step_04_hit_selection/docking/ligands/lig_235.pdb
REMARK  2 active torsions:
REMARK  status: ('A' for Active; 'I' for Inactive)
REMARK    1  A    between atoms: C1_1  and  C2_2
REMARK    2  A    between atoms: C6_7  and  C7_8
REMARK                            x       y       z     vdW  Elec       q    Type
REMARK                         _______ _______ _______ _____ _____    ______ ____
ROOT
ATOM      1  C7  UNL     1      20.133   1.746  26.678  0.00  0.00    +0.076 A 
ATOM      2  C8  UNL     1      20.340   3.070  26.256  0.00  0.00    +0.072 A 
ATOM      3  C9  UNL     1      20.324   3.357  24.881  0.00  0.00    +0.125 A 
ATOM      4  N2  UNL     1      20.538   4.698  24.390  0.00  0.00    -0.312 N 
ATOM      5  C10 UNL     1      21.174   4.873  23.076  0.00  0.00    +0.125 C 
ATOM      6  C11 UNL     1      21.626   6.319  22.852  0.00  0.00    +0.127 C 
ATOM      7  N3  UNL     1      20.531   7.250  23.157  0.00  0.00    -0.297 N 
ATOM      8  C12 UNL     1      20.343   8.448  22.375  0.00  0.00    +0.218 A 
ATOM      9  N4  UNL     1      19.251   9.235  22.579  0.00  0.00    -0.223 NA
ATOM     10  C13 UNL     1      19.055  10.370  21.857  0.00  0.00    +0.116 A 
ATOM     11  C14 UNL     1      19.982  10.744  20.888  0.00  0.00    +0.039 A 
ATOM     12  C15 UNL     1      21.097   9.932  20.687  0.00  0.00    +0.116 A 
ATOM     13  N5  UNL     1      21.257   8.806  21.430  0.00  0.00    -0.223 NA
ATOM     14  C16 UNL     1      19.668   7.013  24.325  0.00  0.00    +0.127 C 
ATOM     15  C17 UNL     1      20.192   5.871  25.205  0.00  0.00    +0.125 C 
ATOM     16  N6  UNL     1      20.135   2.340  23.996  0.00  0.00    -0.221 NA
ATOM     17  C18 UNL     1      19.948   1.065  24.415  0.00  0.00    +0.223 A 
ATOM     18  N7  UNL     1      19.948   0.777  25.741  0.00  0.00    -0.235 NA
ENDROOT
BRANCH   1  25
ATOM     19  C1  UNL     1      17.954   0.410  33.567  0.00  0.00    +0.086 C 
ATOM     20  C2  UNL     1      18.655   0.561  32.258  0.00  0.00    +0.105 A 
ATOM     21  N1  UNL     1      19.988   0.350  32.104  0.00  0.00    -0.233 NA
ATOM     22  C3  UNL     1      20.187   0.650  30.808  0.00  0.00    +0.089 A 
ATOM     23  C4  UNL     1      21.379   0.600  30.095  0.00  0.00    +0.030 A 
ATOM     24  C5  UNL     1      21.348   0.964  28.736  0.00  0.00    +0.012 A 
ATOM     25  C6  UNL     1      20.135   1.377  28.117  0.00  0.00    +0.003 A 
ATOM     26  C19 UNL     1      18.943   1.404  28.883  0.00  0.00    +0.037 A 
ATOM     27  C20 UNL     1      19.019   1.035  30.224  0.00  0.00    +0.067 A 
ATOM     28  N8  UNL     1      18.035   0.989  31.130  0.00  0.00    -0.342 N 
ATOM     29  H20 UNL     1      17.027   1.233  31.000  0.00  0.00    +0.167 HD
ENDBRANCH   1  25
TORSDOF 1
ENDMDL
