MODEL 1
REMARK VINA RESULT:    -6.975      0.000      0.000
REMARK INTER + INTRA:          -8.227
REMARK INTER:                  -7.790
REMARK INTRA:                  -0.437
REMARK UNBOUND:                -0.437
REMARK  Name = /home/qwerty/github/datacon2025hack/step_04_hit_selection/docking/ligands/lig_282.pdb
REMARK  2 active torsions:
REMARK  status: ('A' for Active; 'I' for Inactive)
REMARK    1  A    between atoms: N1_3  and  C2_4
REMARK    2  A    between atoms: N4_20  and  C13_21
REMARK                            x       y       z     vdW  Elec       q    Type
REMARK                         _______ _______ _______ _____ _____    ______ ____
ROOT
ATOM      1  O1  UNL     1      20.022  17.158  25.884  0.00  0.00    -0.252 OA
ATOM      2  C1  UNL     1      19.884  15.934  26.162  0.00  0.00    +0.307 C 
ATOM      3  N1  UNL     1      20.938  15.010  25.828  0.00  0.00    -0.269 N 
ATOM      4  N2  UNL     1      18.687  15.487  26.834  0.00  0.00    -0.282 N 
ATOM      5  C10 UNL     1      17.525  16.381  26.939  0.00  0.00    +0.128 C 
ATOM      6  C11 UNL     1      16.228  15.593  26.733  0.00  0.00    +0.128 C 
ATOM      7  N3  UNL     1      16.189  14.380  27.565  0.00  0.00    -0.282 N 
ATOM      8  C12 UNL     1      14.937  13.692  27.767  0.00  0.00    +0.307 C 
ATOM      9  O4  UNL     1      14.822  12.861  28.711  0.00  0.00    -0.252 OA
ATOM     10  N4  UNL     1      13.825  13.920  26.884  0.00  0.00    -0.267 N 
ATOM     11  C19 UNL     1      17.380  13.979  28.329  0.00  0.00    +0.128 C 
ATOM     12  C20 UNL     1      18.650  14.170  27.491  0.00  0.00    +0.128 C 
ATOM     13  H1  UNL     1      20.991  14.098  26.330  0.00  0.00    +0.156 HD
ATOM     14  H13 UNL     1      14.022  14.255  25.915  0.00  0.00    +0.156 HD
ENDROOT
BRANCH   3  15
ATOM     15  C2  UNL     1      22.001  15.313  24.906  0.00  0.00    +0.038 A 
ATOM     16  C3  UNL     1      23.271  15.649  25.405  0.00  0.00    +0.027 A 
ATOM     17  C4  UNL     1      24.326  15.933  24.531  0.00  0.00    +0.051 A 
ATOM     18  C5  UNL     1      24.121  15.868  23.151  0.00  0.00    +0.162 A 
ATOM     19  C6  UNL     1      22.874  15.484  22.644  0.00  0.00    +0.164 A 
ATOM     20  C7  UNL     1      21.813  15.216  23.513  0.00  0.00    +0.072 A 
ATOM     21  O2  UNL     1      22.710  15.371  21.259  0.00  0.00    -0.485 OA
ATOM     22  C8  UNL     1      23.837  15.372  20.379  0.00  0.00    +0.270 C 
ATOM     23  C9  UNL     1      24.892  16.374  20.867  0.00  0.00    +0.270 C 
ATOM     24  O3  UNL     1      25.153  16.177  22.259  0.00  0.00    -0.485 OA
ENDBRANCH   3  15
BRANCH  10  25
ATOM     25  C13 UNL     1      12.480  13.520  27.192  0.00  0.00    +0.070 A 
ATOM     26  C14 UNL     1      12.054  12.226  26.855  0.00  0.00    +0.026 A 
ATOM     27  C15 UNL     1      10.745  11.817  27.130  0.00  0.00    +0.002 A 
ATOM     28  C16 UNL     1       9.847  12.703  27.731  0.00  0.00    +0.003 A 
ATOM     29  C17 UNL     1      10.253  14.002  28.046  0.00  0.00    +0.040 A 
ATOM     30  C18 UNL     1      11.561  14.417  27.774  0.00  0.00    +0.145 A 
ATOM     31  F1  UNL     1      11.911  15.703  28.033  0.00  0.00    -0.204 F 
ENDBRANCH  10  25
TORSDOF 2
ENDMDL
MODEL 2
REMARK VINA RESULT:    -6.906      2.982     11.097
REMARK INTER + INTRA:          -8.150
REMARK INTER:                  -8.444
REMARK INTRA:                   0.294
REMARK UNBOUND:                -0.437
REMARK  Name = /home/qwerty/github/datacon2025hack/step_04_hit_selection/docking/ligands/lig_282.pdb
REMARK  2 active torsions:
REMARK  status: ('A' for Active; 'I' for Inactive)
REMARK    1  A    between atoms: N1_3  and  C2_4
REMARK    2  A    between atoms: N4_20  and  C13_21
REMARK                            x       y       z     vdW  Elec       q    Type
REMARK                         _______ _______ _______ _____ _____    ______ ____
ROOT
ATOM      1  O1  UNL     1      15.586  14.903  29.877  0.00  0.00    -0.252 OA
ATOM      2  C1  UNL     1      15.526  15.300  28.681  0.00  0.00    +0.307 C 
ATOM      3  N1  UNL     1      14.241  15.456  28.050  0.00  0.00    -0.269 N 
ATOM      4  N2  UNL     1      16.746  15.617  27.974  0.00  0.00    -0.282 N 
ATOM      5  C10 UNL     1      18.044  15.216  28.534  0.00  0.00    +0.128 C 
ATOM      6  C11 UNL     1      18.976  14.729  27.419  0.00  0.00    +0.128 C 
ATOM      7  N3  UNL     1      19.019  15.675  26.293  0.00  0.00    -0.282 N 
ATOM      8  C12 UNL     1      20.072  15.569  25.312  0.00  0.00    +0.307 C 
ATOM      9  O4  UNL     1      20.311  16.539  24.541  0.00  0.00    -0.252 OA
ATOM     10  N4  UNL     1      20.834  14.356  25.183  0.00  0.00    -0.267 N 
ATOM     11  C19 UNL     1      18.106  16.826  26.270  0.00  0.00    +0.128 C 
ATOM     12  C20 UNL     1      16.705  16.415  26.738  0.00  0.00    +0.128 C 
ATOM     13  H1  UNL     1      14.156  16.079  27.217  0.00  0.00    +0.156 HD
ATOM     14  H13 UNL     1      20.398  13.461  25.497  0.00  0.00    +0.156 HD
ENDROOT
BRANCH   3  15
ATOM     15  C2  UNL     1      13.025  14.884  28.565  0.00  0.00    +0.038 A 
ATOM     16  C3  UNL     1      12.900  14.663  29.947  0.00  0.00    +0.027 A 
ATOM     17  C4  UNL     1      11.723  14.122  30.477  0.00  0.00    +0.051 A 
ATOM     18  C5  UNL     1      10.658  13.812  29.629  0.00  0.00    +0.162 A 
ATOM     19  C6  UNL     1      10.753  14.076  28.257  0.00  0.00    +0.164 A 
ATOM     20  C7  UNL     1      11.933  14.601  27.722  0.00  0.00    +0.072 A 
ATOM     21  O2  UNL     1       9.652  13.810  27.436  0.00  0.00    -0.485 OA
ATOM     22  C8  UNL     1       8.364  13.537  27.994  0.00  0.00    +0.270 C 
ATOM     23  C9  UNL     1       8.503  12.679  29.258  0.00  0.00    +0.270 C 
ATOM     24  O3  UNL     1       9.484  13.243  30.132  0.00  0.00    -0.485 OA
ENDBRANCH   3  15
BRANCH  10  25
ATOM     25  C13 UNL     1      22.074  14.278  24.461  0.00  0.00    +0.070 A 
ATOM     26  C14 UNL     1      22.146  13.485  23.305  0.00  0.00    +0.026 A 
ATOM     27  C15 UNL     1      23.345  13.380  22.593  0.00  0.00    +0.002 A 
ATOM     28  C16 UNL     1      24.485  14.054  23.038  0.00  0.00    +0.003 A 
ATOM     29  C17 UNL     1      24.431  14.825  24.202  0.00  0.00    +0.040 A 
ATOM     30  C18 UNL     1      23.234  14.935  24.919  0.00  0.00    +0.145 A 
ATOM     31  F1  UNL     1      23.224  15.638  26.080  0.00  0.00    -0.204 F 
ENDBRANCH  10  25
TORSDOF 2
ENDMDL
MODEL 3
REMARK VINA RESULT:    -6.794     12.146     16.505
REMARK INTER + INTRA:          -8.025
REMARK INTER:                  -8.368
REMARK INTRA:                   0.343
REMARK UNBOUND:                -0.437
REMARK  Name = /home/qwerty/github/datacon2025hack/step_04_hit_selection/docking/ligands/lig_282.pdb
REMARK  2 active torsions:
REMARK  status: ('A' for Active; 'I' for Inactive)
REMARK    1  A    between atoms: N1_3  and  C2_4
REMARK    2  A    between atoms: N4_20  and  C13_21
REMARK                            x       y       z     vdW  Elec       q    Type
REMARK                         _______ _______ _______ _____ _____    ______ ____
ROOT
ATOM      1  O1  UNL     1       7.571   6.093  27.310  0.00  0.00    -0.252 OA
ATOM      2  C1  UNL     1       7.131   6.090  28.493  0.00  0.00    +0.307 C 
ATOM      3  N1  UNL     1       6.808   7.341  29.130  0.00  0.00    -0.269 N 
ATOM      4  N2  UNL     1       6.931   4.833  29.175  0.00  0.00    -0.282 N 
ATOM      5  C10 UNL     1       7.496   3.596  28.617  0.00  0.00    +0.128 C 
ATOM      6  C11 UNL     1       8.048   2.711  29.738  0.00  0.00    +0.128 C 
ATOM      7  N3  UNL     1       7.076   2.545  30.831  0.00  0.00    -0.282 N 
ATOM      8  C12 UNL     1       7.269   1.497  31.804  0.00  0.00    +0.307 C 
ATOM      9  O4  UNL     1       6.307   1.139  32.539  0.00  0.00    -0.252 OA
ATOM     10  N4  UNL     1       8.555   0.876  31.968  0.00  0.00    -0.267 N 
ATOM     11  C19 UNL     1       5.829   3.322  30.823  0.00  0.00    +0.128 C 
ATOM     12  C20 UNL     1       6.093   4.766  30.383  0.00  0.00    +0.128 C 
ATOM     13  H1  UNL     1       6.153   7.343  29.942  0.00  0.00    +0.156 HD
ATOM     14  H13 UNL     1       9.405   1.415  31.689  0.00  0.00    +0.156 HD
ENDROOT
BRANCH   3  15
ATOM     15  C2  UNL     1       7.255   8.621  28.647  0.00  0.00    +0.038 A 
ATOM     16  C3  UNL     1       7.563   8.773  27.284  0.00  0.00    +0.027 A 
ATOM     17  C4  UNL     1       7.986  10.010  26.785  0.00  0.00    +0.051 A 
ATOM     18  C5  UNL     1       8.089  11.107  27.643  0.00  0.00    +0.162 A 
ATOM     19  C6  UNL     1       7.736  10.978  28.991  0.00  0.00    +0.164 A 
ATOM     20  C7  UNL     1       7.329   9.740  29.498  0.00  0.00    +0.072 A 
ATOM     21  O2  UNL     1       7.793  12.105  29.818  0.00  0.00    -0.485 OA
ATOM     22  C8  UNL     1       7.938  13.418  29.270  0.00  0.00    +0.270 C 
ATOM     23  C9  UNL     1       8.900  13.391  28.075  0.00  0.00    +0.270 C 
ATOM     24  O3  UNL     1       8.538  12.345  27.172  0.00  0.00    -0.485 OA
ENDBRANCH   3  15
BRANCH  10  25
ATOM     25  C13 UNL     1       8.750  -0.357  32.679  0.00  0.00    +0.070 A 
ATOM     26  C14 UNL     1       9.545  -0.364  33.836  0.00  0.00    +0.026 A 
ATOM     27  C15 UNL     1       9.762  -1.553  34.539  0.00  0.00    +0.002 A 
ATOM     28  C16 UNL     1       9.200  -2.747  34.083  0.00  0.00    +0.003 A 
ATOM     29  C17 UNL     1       8.429  -2.757  32.918  0.00  0.00    +0.040 A 
ATOM     30  C18 UNL     1       8.207  -1.570  32.210  0.00  0.00    +0.145 A 
ATOM     31  F1  UNL     1       7.507  -1.617  31.049  0.00  0.00    -0.204 F 
ENDBRANCH  10  25
TORSDOF 2
ENDMDL
MODEL 4
REMARK VINA RESULT:    -6.782     10.105     13.360
REMARK INTER + INTRA:          -8.011
REMARK INTER:                  -7.660
REMARK INTRA:                  -0.351
REMARK UNBOUND:                -0.437
REMARK  Name = /home/qwerty/github/datacon2025hack/step_04_hit_selection/docking/ligands/lig_282.pdb
REMARK  2 active torsions:
REMARK  status: ('A' for Active; 'I' for Inactive)
REMARK    1  A    between atoms: N1_3  and  C2_4
REMARK    2  A    between atoms: N4_20  and  C13_21
REMARK                            x       y       z     vdW  Elec       q    Type
REMARK                         _______ _______ _______ _____ _____    ______ ____
ROOT
ATOM      1  O1  UNL     1      18.931   4.567  23.746  0.00  0.00    -0.252 OA
ATOM      2  C1  UNL     1      20.017   4.595  23.104  0.00  0.00    +0.307 C 
ATOM      3  N1  UNL     1      21.033   3.615  23.390  0.00  0.00    -0.269 N 
ATOM      4  N2  UNL     1      20.210   5.589  22.074  0.00  0.00    -0.282 N 
ATOM      5  C10 UNL     1      19.284   6.726  21.967  0.00  0.00    +0.128 C 
ATOM      6  C11 UNL     1      20.053   8.008  21.632  0.00  0.00    +0.128 C 
ATOM      7  N3  UNL     1      20.973   7.812  20.500  0.00  0.00    -0.282 N 
ATOM      8  C12 UNL     1      21.530   8.959  19.826  0.00  0.00    +0.307 C 
ATOM      9  O4  UNL     1      22.049   8.825  18.683  0.00  0.00    -0.252 OA
ATOM     10  N4  UNL     1      21.528  10.252  20.456  0.00  0.00    -0.267 N 
ATOM     11  C19 UNL     1      21.177   6.464  19.949  0.00  0.00    +0.128 C 
ATOM     12  C20 UNL     1      21.279   5.429  21.075  0.00  0.00    +0.128 C 
ATOM     13  H1  UNL     1      21.764   3.416  22.672  0.00  0.00    +0.156 HD
ATOM     14  H13 UNL     1      21.494  10.295  21.499  0.00  0.00    +0.156 HD
ENDROOT
BRANCH   3  15
ATOM     15  C2  UNL     1      21.046   2.805  24.579  0.00  0.00    +0.038 A 
ATOM     16  C3  UNL     1      20.155   1.723  24.684  0.00  0.00    +0.027 A 
ATOM     17  C4  UNL     1      20.157   0.909  25.823  0.00  0.00    +0.051 A 
ATOM     18  C5  UNL     1      21.060   1.163  26.857  0.00  0.00    +0.162 A 
ATOM     19  C6  UNL     1      21.986   2.206  26.739  0.00  0.00    +0.164 A 
ATOM     20  C7  UNL     1      21.977   3.032  25.611  0.00  0.00    +0.072 A 
ATOM     21  O2  UNL     1      22.918   2.405  27.763  0.00  0.00    -0.485 OA
ATOM     22  C8  UNL     1      23.122   1.420  28.779  0.00  0.00    +0.270 C 
ATOM     23  C9  UNL     1      21.783   0.786  29.181  0.00  0.00    +0.270 C 
ATOM     24  O3  UNL     1      21.059   0.381  28.017  0.00  0.00    -0.485 OA
ENDBRANCH   3  15
BRANCH  10  25
ATOM     25  C13 UNL     1      21.776  11.475  19.745  0.00  0.00    +0.070 A 
ATOM     26  C14 UNL     1      23.065  12.030  19.761  0.00  0.00    +0.026 A 
ATOM     27  C15 UNL     1      23.329  13.228  19.089  0.00  0.00    +0.002 A 
ATOM     28  C16 UNL     1      22.304  13.889  18.409  0.00  0.00    +0.003 A 
ATOM     29  C17 UNL     1      21.011  13.360  18.409  0.00  0.00    +0.040 A 
ATOM     30  C18 UNL     1      20.740  12.161  19.079  0.00  0.00    +0.145 A 
ATOM     31  F1  UNL     1      19.464  11.702  19.116  0.00  0.00    -0.204 F 
ENDBRANCH  10  25
TORSDOF 2
ENDMDL
MODEL 5
REMARK VINA RESULT:    -6.709      8.272     10.057
REMARK INTER + INTRA:          -7.930
REMARK INTER:                  -7.554
REMARK INTRA:                  -0.376
REMARK UNBOUND:                -0.437
REMARK  Name = /home/qwerty/github/datacon2025hack/step_04_hit_selection/docking/ligands/lig_282.pdb
REMARK  2 active torsions:
REMARK  status: ('A' for Active; 'I' for Inactive)
REMARK    1  A    between atoms: N1_3  and  C2_4
REMARK    2  A    between atoms: N4_20  and  C13_21
REMARK                            x       y       z     vdW  Elec       q    Type
REMARK                         _______ _______ _______ _____ _____    ______ ____
ROOT
ATOM      1  O1  UNL     1      21.742   9.179  20.013  0.00  0.00    -0.252 OA
ATOM      2  C1  UNL     1      20.901   9.306  20.946  0.00  0.00    +0.307 C 
ATOM      3  N1  UNL     1      20.193  10.551  21.096  0.00  0.00    -0.269 N 
ATOM      4  N2  UNL     1      20.642   8.191  21.827  0.00  0.00    -0.282 N 
ATOM      5  C10 UNL     1      21.541   7.028  21.824  0.00  0.00    +0.128 C 
ATOM      6  C11 UNL     1      21.759   6.522  23.254  0.00  0.00    +0.128 C 
ATOM      7  N3  UNL     1      20.486   6.355  23.973  0.00  0.00    -0.282 N 
ATOM      8  C12 UNL     1      20.451   5.584  25.192  0.00  0.00    +0.307 C 
ATOM      9  O4  UNL     1      19.346   5.169  25.640  0.00  0.00    -0.252 OA
ATOM     10  N4  UNL     1      21.660   5.310  25.922  0.00  0.00    -0.267 N 
ATOM     11  C19 UNL     1      19.234   6.817  23.358  0.00  0.00    +0.128 C 
ATOM     12  C20 UNL     1      19.436   8.172  22.670  0.00  0.00    +0.128 C 
ATOM     13  H1  UNL     1      19.291  10.562  21.620  0.00  0.00    +0.156 HD
ATOM     14  H13 UNL     1      22.467   5.962  25.805  0.00  0.00    +0.156 HD
ENDROOT
BRANCH   3  15
ATOM     15  C2  UNL     1      20.601  11.781  20.471  0.00  0.00    +0.038 A 
ATOM     16  C3  UNL     1      19.949  12.209  19.302  0.00  0.00    +0.027 A 
ATOM     17  C4  UNL     1      20.317  13.408  18.682  0.00  0.00    +0.051 A 
ATOM     18  C5  UNL     1      21.329  14.195  19.235  0.00  0.00    +0.162 A 
ATOM     19  C6  UNL     1      21.949  13.803  20.427  0.00  0.00    +0.164 A 
ATOM     20  C7  UNL     1      21.597  12.598  21.041  0.00  0.00    +0.072 A 
ATOM     21  O2  UNL     1      22.921  14.636  20.993  0.00  0.00    -0.485 OA
ATOM     22  C8  UNL     1      23.096  15.980  20.538  0.00  0.00    +0.270 C 
ATOM     23  C9  UNL     1      22.931  16.052  19.015  0.00  0.00    +0.270 C 
ATOM     24  O3  UNL     1      21.733  15.382  18.616  0.00  0.00    -0.485 OA
ENDBRANCH   3  15
BRANCH  10  25
ATOM     25  C13 UNL     1      21.749   4.313  26.952  0.00  0.00    +0.070 A 
ATOM     26  C14 UNL     1      21.279   4.612  28.240  0.00  0.00    +0.026 A 
ATOM     27  C15 UNL     1      21.369   3.665  29.264  0.00  0.00    +0.002 A 
ATOM     28  C16 UNL     1      21.942   2.416  29.013  0.00  0.00    +0.003 A 
ATOM     29  C17 UNL     1      22.436   2.117  27.742  0.00  0.00    +0.040 A 
ATOM     30  C18 UNL     1      22.350   3.060  26.712  0.00  0.00    +0.145 A 
ATOM     31  F1  UNL     1      22.894   2.768  25.503  0.00  0.00    -0.204 F 
ENDBRANCH  10  25
TORSDOF 2
ENDMDL
MODEL 6
REMARK VINA RESULT:    -6.655      9.501     10.565
REMARK INTER + INTRA:          -7.870
REMARK INTER:                  -7.396
REMARK INTRA:                  -0.473
REMARK UNBOUND:                -0.437
REMARK  Name = /home/qwerty/github/datacon2025hack/step_04_hit_selection/docking/ligands/lig_282.pdb
REMARK  2 active torsions:
REMARK  status: ('A' for Active; 'I' for Inactive)
REMARK    1  A    between atoms: N1_3  and  C2_4
REMARK    2  A    between atoms: N4_20  and  C13_21
REMARK                            x       y       z     vdW  Elec       q    Type
REMARK                         _______ _______ _______ _____ _____    ______ ____
ROOT
ATOM      1  O1  UNL     1      18.880   7.908  21.514  0.00  0.00    -0.252 OA
ATOM      2  C1  UNL     1      18.162   7.526  20.549  0.00  0.00    +0.307 C 
ATOM      3  N1  UNL     1      18.131   8.304  19.337  0.00  0.00    -0.269 N 
ATOM      4  N2  UNL     1      17.405   6.300  20.667  0.00  0.00    -0.282 N 
ATOM      5  C10 UNL     1      17.245   5.659  21.980  0.00  0.00    +0.128 C 
ATOM      6  C11 UNL     1      15.824   5.108  22.132  0.00  0.00    +0.128 C 
ATOM      7  N3  UNL     1      15.423   4.306  20.965  0.00  0.00    -0.282 N 
ATOM      8  C12 UNL     1      14.274   3.437  21.056  0.00  0.00    +0.307 C 
ATOM      9  O4  UNL     1      14.109   2.524  20.201  0.00  0.00    -0.252 OA
ATOM     10  N4  UNL     1      13.298   3.621  22.096  0.00  0.00    -0.267 N 
ATOM     11  C19 UNL     1      16.292   4.254  19.780  0.00  0.00    +0.128 C 
ATOM     12  C20 UNL     1      16.864   5.641  19.468  0.00  0.00    +0.128 C 
ATOM     13  H1  UNL     1      17.828   7.848  18.449  0.00  0.00    +0.156 HD
ATOM     14  H13 UNL     1      13.201   4.569  22.523  0.00  0.00    +0.156 HD
ENDROOT
BRANCH   3  15
ATOM     15  C2  UNL     1      18.599   9.661  19.250  0.00  0.00    +0.038 A 
ATOM     16  C3  UNL     1      17.727  10.713  19.578  0.00  0.00    +0.027 A 
ATOM     17  C4  UNL     1      18.160  12.042  19.516  0.00  0.00    +0.051 A 
ATOM     18  C5  UNL     1      19.475  12.327  19.140  0.00  0.00    +0.162 A 
ATOM     19  C6  UNL     1      20.366  11.285  18.861  0.00  0.00    +0.164 A 
ATOM     20  C7  UNL     1      19.933   9.956  18.905  0.00  0.00    +0.072 A 
ATOM     21  O2  UNL     1      21.693  11.593  18.541  0.00  0.00    -0.485 OA
ATOM     22  C8  UNL     1      22.219  12.905  18.756  0.00  0.00    +0.270 C 
ATOM     23  C9  UNL     1      21.163  13.964  18.409  0.00  0.00    +0.270 C 
ATOM     24  O3  UNL     1      19.921  13.649  19.042  0.00  0.00    -0.485 OA
ENDBRANCH   3  15
BRANCH  10  25
ATOM     25  C13 UNL     1      12.313   2.631  22.435  0.00  0.00    +0.070 A 
ATOM     26  C14 UNL     1      12.647   1.611  23.339  0.00  0.00    +0.026 A 
ATOM     27  C15 UNL     1      11.711   0.627  23.673  0.00  0.00    +0.002 A 
ATOM     28  C16 UNL     1      10.439   0.647  23.097  0.00  0.00    +0.003 A 
ATOM     29  C17 UNL     1      10.105   1.642  22.176  0.00  0.00    +0.040 A 
ATOM     30  C18 UNL     1      11.036   2.630  21.837  0.00  0.00    +0.145 A 
ATOM     31  F1  UNL     1      10.708   3.549  20.894  0.00  0.00    -0.204 F 
ENDBRANCH  10  25
TORSDOF 2
ENDMDL
MODEL 7
REMARK VINA RESULT:    -6.568      2.936     11.223
REMARK INTER + INTRA:          -7.773
REMARK INTER:                  -7.290
REMARK INTRA:                  -0.482
REMARK UNBOUND:                -0.437
REMARK  Name = /home/qwerty/github/datacon2025hack/step_04_hit_selection/docking/ligands/lig_282.pdb
REMARK  2 active torsions:
REMARK  status: ('A' for Active; 'I' for Inactive)
REMARK    1  A    between atoms: N1_3  and  C2_4
REMARK    2  A    between atoms: N4_20  and  C13_21
REMARK                            x       y       z     vdW  Elec       q    Type
REMARK                         _______ _______ _______ _____ _____    ______ ____
ROOT
ATOM      1  O1  UNL     1      13.789  13.458  29.473  0.00  0.00    -0.252 OA
ATOM      2  C1  UNL     1      13.955  14.083  28.389  0.00  0.00    +0.307 C 
ATOM      3  N1  UNL     1      12.830  14.294  27.515  0.00  0.00    -0.269 N 
ATOM      4  N2  UNL     1      15.263  14.600  28.059  0.00  0.00    -0.282 N 
ATOM      5  C10 UNL     1      16.440  14.164  28.824  0.00  0.00    +0.128 C 
ATOM      6  C11 UNL     1      17.636  13.961  27.888  0.00  0.00    +0.128 C 
ATOM      7  N3  UNL     1      17.833  15.115  26.997  0.00  0.00    -0.282 N 
ATOM      8  C12 UNL     1      19.081  15.264  26.287  0.00  0.00    +0.307 C 
ATOM      9  O4  UNL     1      19.387  16.381  25.785  0.00  0.00    -0.252 OA
ATOM     10  N4  UNL     1      19.967  14.144  26.120  0.00  0.00    -0.267 N 
ATOM     11  C19 UNL     1      16.838  16.197  26.971  0.00  0.00    +0.128 C 
ATOM     12  C20 UNL     1      15.416  15.626  27.015  0.00  0.00    +0.128 C 
ATOM     13  H1  UNL     1      12.870  15.066  26.813  0.00  0.00    +0.156 HD
ATOM     14  H13 UNL     1      19.562  13.182  26.154  0.00  0.00    +0.156 HD
ENDROOT
BRANCH   3  15
ATOM     15  C2  UNL     1      11.593  13.566  27.617  0.00  0.00    +0.038 A 
ATOM     16  C3  UNL     1      10.490  14.169  28.245  0.00  0.00    +0.027 A 
ATOM     17  C4  UNL     1       9.271  13.489  28.345  0.00  0.00    +0.051 A 
ATOM     18  C5  UNL     1       9.143  12.208  27.804  0.00  0.00    +0.162 A 
ATOM     19  C6  UNL     1      10.220  11.620  27.132  0.00  0.00    +0.164 A 
ATOM     20  C7  UNL     1      11.445  12.288  27.044  0.00  0.00    +0.072 A 
ATOM     21  O2  UNL     1      10.050  10.359  26.549  0.00  0.00    -0.485 OA
ATOM     22  C8  UNL     1       8.749   9.788  26.390  0.00  0.00    +0.270 C 
ATOM     23  C9  UNL     1       7.877  10.104  27.613  0.00  0.00    +0.270 C 
ATOM     24  O3  UNL     1       7.943  11.499  27.919  0.00  0.00    -0.485 OA
ENDBRANCH   3  15
BRANCH  10  25
ATOM     25  C13 UNL     1      21.336  14.279  25.707  0.00  0.00    +0.070 A 
ATOM     26  C14 UNL     1      21.706  13.876  24.414  0.00  0.00    +0.026 A 
ATOM     27  C15 UNL     1      23.035  13.982  23.993  0.00  0.00    +0.002 A 
ATOM     28  C16 UNL     1      24.008  14.478  24.864  0.00  0.00    +0.003 A 
ATOM     29  C17 UNL     1      23.656  14.857  26.161  0.00  0.00    +0.040 A 
ATOM     30  C18 UNL     1      22.328  14.754  26.590  0.00  0.00    +0.145 A 
ATOM     31  F1  UNL     1      22.023  15.070  27.874  0.00  0.00    -0.204 F 
ENDBRANCH  10  25
TORSDOF 2
ENDMDL
MODEL 8
REMARK VINA RESULT:    -6.516     11.923     15.079
REMARK INTER + INTRA:          -7.714
REMARK INTER:                  -7.294
REMARK INTRA:                  -0.420
REMARK UNBOUND:                -0.437
REMARK  Name = /home/qwerty/github/datacon2025hack/step_04_hit_selection/docking/ligands/lig_282.pdb
REMARK  2 active torsions:
REMARK  status: ('A' for Active; 'I' for Inactive)
REMARK    1  A    between atoms: N1_3  and  C2_4
REMARK    2  A    between atoms: N4_20  and  C13_21
REMARK                            x       y       z     vdW  Elec       q    Type
REMARK                         _______ _______ _______ _____ _____    ______ ____
ROOT
ATOM      1  O1  UNL     1      17.531   6.493  36.569  0.00  0.00    -0.252 OA
ATOM      2  C1  UNL     1      18.549   6.913  35.954  0.00  0.00    +0.307 C 
ATOM      3  N1  UNL     1      18.851   8.322  35.963  0.00  0.00    -0.269 N 
ATOM      4  N2  UNL     1      19.411   5.972  35.276  0.00  0.00    -0.282 N 
ATOM      5  C10 UNL     1      18.962   4.589  35.060  0.00  0.00    +0.128 C 
ATOM      6  C11 UNL     1      19.391   4.102  33.672  0.00  0.00    +0.128 C 
ATOM      7  N3  UNL     1      20.815   4.369  33.418  0.00  0.00    -0.282 N 
ATOM      8  C12 UNL     1      21.483   3.700  32.327  0.00  0.00    +0.307 C 
ATOM      9  O4  UNL     1      22.744   3.666  32.290  0.00  0.00    -0.252 OA
ATOM     10  N4  UNL     1      20.725   3.097  31.263  0.00  0.00    -0.267 N 
ATOM     11  C19 UNL     1      21.592   5.168  34.376  0.00  0.00    +0.128 C 
ATOM     12  C20 UNL     1      20.771   6.363  34.874  0.00  0.00    +0.128 C 
ATOM     13  H1  UNL     1      19.826   8.634  35.761  0.00  0.00    +0.156 HD
ATOM     14  H13 UNL     1      19.766   3.461  31.070  0.00  0.00    +0.156 HD
ENDROOT
BRANCH   3  15
ATOM     15  C2  UNL     1      17.904   9.337  36.343  0.00  0.00    +0.038 A 
ATOM     16  C3  UNL     1      17.764   9.675  37.700  0.00  0.00    +0.027 A 
ATOM     17  C4  UNL     1      16.862  10.668  38.096  0.00  0.00    +0.051 A 
ATOM     18  C5  UNL     1      16.105  11.341  37.135  0.00  0.00    +0.162 A 
ATOM     19  C6  UNL     1      16.274  11.048  35.777  0.00  0.00    +0.164 A 
ATOM     20  C7  UNL     1      17.162  10.045  35.378  0.00  0.00    +0.072 A 
ATOM     21  O2  UNL     1      15.545  11.775  34.829  0.00  0.00    -0.485 OA
ATOM     22  C8  UNL     1      14.851  12.972  35.191  0.00  0.00    +0.270 C 
ATOM     23  C9  UNL     1      14.214  12.818  36.578  0.00  0.00    +0.270 C 
ATOM     24  O3  UNL     1      15.175  12.317  37.510  0.00  0.00    -0.485 OA
ENDBRANCH   3  15
BRANCH  10  25
ATOM     25  C13 UNL     1      21.288   2.166  30.325  0.00  0.00    +0.070 A 
ATOM     26  C14 UNL     1      21.808   2.644  29.112  0.00  0.00    +0.026 A 
ATOM     27  C15 UNL     1      22.348   1.757  28.175  0.00  0.00    +0.002 A 
ATOM     28  C16 UNL     1      22.359   0.385  28.436  0.00  0.00    +0.003 A 
ATOM     29  C17 UNL     1      21.820  -0.104  29.629  0.00  0.00    +0.040 A 
ATOM     30  C18 UNL     1      21.279   0.778  30.571  0.00  0.00    +0.145 A 
ATOM     31  F1  UNL     1      20.706   0.273  31.693  0.00  0.00    -0.204 F 
ENDBRANCH  10  25
TORSDOF 2
ENDMDL
MODEL 9
REMARK VINA RESULT:    -6.508     13.510     15.313
REMARK INTER + INTRA:          -7.706
REMARK INTER:                  -7.296
REMARK INTRA:                  -0.410
REMARK UNBOUND:                -0.437
REMARK  Name = /home/qwerty/github/datacon2025hack/step_04_hit_selection/docking/ligands/lig_282.pdb
REMARK  2 active torsions:
REMARK  status: ('A' for Active; 'I' for Inactive)
REMARK    1  A    between atoms: N1_3  and  C2_4
REMARK    2  A    between atoms: N4_20  and  C13_21
REMARK                            x       y       z     vdW  Elec       q    Type
REMARK                         _______ _______ _______ _____ _____    ______ ____
ROOT
ATOM      1  O1  UNL     1      20.925   1.607  26.128  0.00  0.00    -0.252 OA
ATOM      2  C1  UNL     1      20.181   1.446  27.135  0.00  0.00    +0.307 C 
ATOM      3  N1  UNL     1      18.836   0.965  26.950  0.00  0.00    -0.269 N 
ATOM      4  N2  UNL     1      20.700   1.719  28.455  0.00  0.00    -0.282 N 
ATOM      5  C10 UNL     1      21.970   2.442  28.610  0.00  0.00    +0.128 C 
ATOM      6  C11 UNL     1      21.881   3.426  29.781  0.00  0.00    +0.128 C 
ATOM      7  N3  UNL     1      21.348   2.784  30.993  0.00  0.00    -0.282 N 
ATOM      8  C12 UNL     1      21.498   3.437  32.271  0.00  0.00    +0.307 C 
ATOM      9  O4  UNL     1      21.342   2.776  33.335  0.00  0.00    -0.252 OA
ATOM     10  N4  UNL     1      21.793   4.842  32.346  0.00  0.00    -0.267 N 
ATOM     11  C19 UNL     1      20.831   1.410  30.925  0.00  0.00    +0.128 C 
ATOM     12  C20 UNL     1      20.009   1.203  29.648  0.00  0.00    +0.128 C 
ATOM     13  H1  UNL     1      18.341   0.520  27.754  0.00  0.00    +0.156 HD
ATOM     14  H13 UNL     1      21.521   5.450  31.542  0.00  0.00    +0.156 HD
ENDROOT
BRANCH   3  15
ATOM     15  C2  UNL     1      18.157   0.963  25.681  0.00  0.00    +0.038 A 
ATOM     16  C3  UNL     1      17.639   2.167  25.175  0.00  0.00    +0.027 A 
ATOM     17  C4  UNL     1      16.988   2.196  23.937  0.00  0.00    +0.051 A 
ATOM     18  C5  UNL     1      16.864   1.023  23.190  0.00  0.00    +0.162 A 
ATOM     19  C6  UNL     1      17.421  -0.171  23.661  0.00  0.00    +0.164 A 
ATOM     20  C7  UNL     1      18.058  -0.208  24.905  0.00  0.00    +0.072 A 
ATOM     21  O2  UNL     1      17.334  -1.321  22.868  0.00  0.00    -0.485 OA
ATOM     22  C8  UNL     1      16.938  -1.244  21.497  0.00  0.00    +0.270 C 
ATOM     23  C9  UNL     1      15.825  -0.201  21.322  0.00  0.00    +0.270 C 
ATOM     24  O3  UNL     1      16.191   1.023  21.964  0.00  0.00    -0.485 OA
ENDBRANCH   3  15
BRANCH  10  25
ATOM     25  C13 UNL     1      22.253   5.488  33.544  0.00  0.00    +0.070 A 
ATOM     26  C14 UNL     1      21.314   5.953  34.478  0.00  0.00    +0.026 A 
ATOM     27  C15 UNL     1      21.735   6.598  35.645  0.00  0.00    +0.002 A 
ATOM     28  C16 UNL     1      23.097   6.796  35.882  0.00  0.00    +0.003 A 
ATOM     29  C17 UNL     1      24.039   6.361  34.947  0.00  0.00    +0.040 A 
ATOM     30  C18 UNL     1      23.625   5.715  33.777  0.00  0.00    +0.145 A 
ATOM     31  F1  UNL     1      24.556   5.358  32.856  0.00  0.00    -0.204 F 
ENDBRANCH  10  25
TORSDOF 2
ENDMDL
