REMARK  Name = /home/qwerty/github/datacon2025hack/step_04_hit_selection/docking/ligands/lig_43.pdb
REMARK  4 active torsions:
REMARK  status: ('A' for Active; 'I' for Inactive)
REMARK    1  A    between atoms: C1_1  and  C2_2
REMARK    2  A    between atoms: C6_7  and  C7_8
REMARK    3  A    between atoms: C7_8  and  C8_9
REMARK    4  A    between atoms: C18_23  and  C19_24
REMARK                            x       y       z     vdW  Elec       q    Type
REMARK                         _______ _______ _______ _____ _____    ______ ____
ROOT
ATOM      1  C7  UNL     1       0.364  -3.240  -0.318  0.00  0.00    +0.134 C 
ENDROOT
BRANCH   1   2
ATOM      2  C8  UNL     1      -0.646  -2.589  -1.214  0.00  0.00    +0.220 C 
ATOM      3  O2  UNL     1      -0.765  -2.992  -2.403  0.00  0.00    -0.275 OA
ATOM      4  N1  UNL     1      -1.390  -1.443  -0.770  0.00  0.00    -0.301 N 
ATOM      5  C9  UNL     1      -2.354  -1.584   0.327  0.00  0.00    +0.113 C 
ATOM      6  C10 UNL     1      -2.427  -0.288   1.143  0.00  0.00    +0.084 C 
ATOM      7  C11 UNL     1      -2.664   0.941   0.244  0.00  0.00    +0.173 C 
ATOM      8  C12 UNL     1      -1.586   1.007  -0.854  0.00  0.00    +0.084 C 
ATOM      9  C13 UNL     1      -1.523  -0.291  -1.666  0.00  0.00    +0.113 C 
ATOM     10  O3  UNL     1      -2.569   2.105   1.038  0.00  0.00    -0.346 OA
ATOM     11  C14 UNL     1      -3.836   2.679   1.035  0.00  0.00    +0.191 C 
ATOM     12  C15 UNL     1      -4.586   2.041  -0.091  0.00  0.00    +0.191 C 
ATOM     13  O4  UNL     1      -3.940   0.838  -0.357  0.00  0.00    -0.346 OA
ENDBRANCH   1   2
BRANCH   1  20
ATOM     14  C1  UNL     1       4.642   2.037   0.303  0.00  0.00    +0.044 C 
ATOM     15  C2  UNL     1       3.793   0.806   0.129  0.00  0.00    -0.044 A 
ATOM     16  C3  UNL     1       4.270  -0.250  -0.683  0.00  0.00    +0.050 A 
ATOM     17  C4  UNL     1       3.467  -1.373  -0.846  0.00  0.00    +0.135 A 
ATOM     18  O1  UNL     1       3.718  -2.439  -1.569  0.00  0.00    -0.463 OA
ATOM     19  C5  UNL     1       2.683  -3.253  -1.462  0.00  0.00    +0.200 A 
ATOM     20  C6  UNL     1       1.726  -2.696  -0.621  0.00  0.00    +0.007 A 
ATOM     21  C16 UNL     1       2.247  -1.478  -0.241  0.00  0.00    +0.024 A 
ATOM     22  C17 UNL     1       1.733  -0.466   0.562  0.00  0.00    +0.015 A 
ATOM     23  C18 UNL     1       2.505   0.703   0.743  0.00  0.00    -0.047 A 
ATOM     24  C19 UNL     1       1.958   1.812   1.601  0.00  0.00    +0.044 C 
ENDBRANCH   1  20
TORSDOF 2
