REMARK  Name = /home/qwerty/github/datacon2025hack/step_04_hit_selection/docking/ligands/lig_329.pdb
REMARK  6 active torsions:
REMARK  status: ('A' for Active; 'I' for Inactive)
REMARK    1  A    between atoms: C1_1  and  O1_2
REMARK    2  A    between atoms: O1_2  and  C2_3
REMARK    3  A    between atoms: C5_6  and  C6_7
REMARK    4  A    between atoms: C6_7  and  N1_8
REMARK    5  A    between atoms: C9_13  and  C10_14
REMARK    6  A    between atoms: C11_16  and  C12_17
REMARK                            x       y       z     vdW  Elec       q    Type
REMARK                         _______ _______ _______ _____ _____    ______ ____
ROOT
ATOM      1  N1  UNL     1      -2.050   0.381   1.007  0.00  0.00    -0.295 N 
ATOM      2  C7  UNL     1      -1.298  -0.844   1.039  0.00  0.00    +0.303 C 
ATOM      3  O2  UNL     1      -0.942  -1.321   2.152  0.00  0.00    -0.253 OA
ATOM      4  N2  UNL     1      -0.941  -1.530  -0.180  0.00  0.00    -0.281 N 
ATOM      5  C8  UNL     1      -0.252  -2.826  -0.118  0.00  0.00    +0.140 C 
ATOM      6  C9  UNL     1      -0.579  -3.698  -1.364  0.00  0.00    +0.133 C 
ATOM      7  C10 UNL     1       0.567  -4.659  -1.684  0.00  0.00    +0.039 C 
ATOM      8  O3  UNL     1      -0.943  -2.979  -2.539  0.00  0.00    -0.370 OA
ATOM      9  C11 UNL     1      -0.385  -1.682  -2.575  0.00  0.00    +0.139 C 
ATOM     10  C15 UNL     1      -1.026  -0.835  -1.470  0.00  0.00    +0.141 C 
ATOM     11  H8  UNL     1      -2.471   0.717   0.112  0.00  0.00    +0.151 HD
ENDROOT
BRANCH   9  12
ATOM     12  C12 UNL     1      -0.686  -1.059  -3.947  0.00  0.00    +0.019 C 
ATOM     13  C13 UNL     1       0.302  -1.417  -5.048  0.00  0.00    +0.006 C 
ATOM     14  C14 UNL     1       0.315  -0.024  -4.437  0.00  0.00    +0.006 C 
ENDBRANCH   9  12
BRANCH   1  15
ATOM     15  C6  UNL     1      -2.267   1.194   2.201  0.00  0.00    +0.141 C 
BRANCH  15  19
ATOM     16  C2  UNL     1       1.432   3.140   3.302  0.00  0.00    +0.120 A 
ATOM     17  C3  UNL     1       0.726   3.546   2.153  0.00  0.00    +0.046 A 
ATOM     18  C4  UNL     1      -0.474   2.918   1.806  0.00  0.00    +0.009 A 
ATOM     19  C5  UNL     1      -0.989   1.882   2.599  0.00  0.00    -0.030 A 
ATOM     20  C16 UNL     1      -0.282   1.474   3.740  0.00  0.00    +0.009 A 
ATOM     21  C17 UNL     1       0.918   2.102   4.088  0.00  0.00    +0.046 A 
BRANCH  16  23
ATOM     22  C1  UNL     1       3.277   4.798   2.989  0.00  0.00    +0.277 C 
ATOM     23  O1  UNL     1       2.640   3.736   3.693  0.00  0.00    -0.495 OA
ENDBRANCH  16  23
ENDBRANCH  15  19
ENDBRANCH   1  15
TORSDOF 4
