REMARK  Name = /home/qwerty/github/datacon2025hack/step_04_hit_selection/docking/ligands/lig_119.pdb
REMARK  10 active torsions:
REMARK  status: ('A' for Active; 'I' for Inactive)
REMARK    1  A    between atoms: C1_1  and  C2_2
REMARK    2  A    between atoms: C2_2  and  C3_3
REMARK    3  A    between atoms: C3_3  and  C4_4
REMARK    4  A    between atoms: C3_3  and  C5_5
REMARK    5  A    between atoms: C14_16  and  C15_17
REMARK    6  A    between atoms: N2_19  and  C16_20
REMARK    7  A    between atoms: C18_22  and  C19_23
REMARK    8  A    between atoms: C20_24  and  O3_25
REMARK    9  A    between atoms: O3_25  and  C21_26
REMARK   10  A    between atoms: C23_28  and  C24_29
REMARK                            x       y       z     vdW  Elec       q    Type
REMARK                         _______ _______ _______ _____ _____    ______ ____
ROOT
ATOM      1  C5  UNL     1      -1.975   0.837   1.246  0.00  0.00    +0.219 C 
ATOM      2  O1  UNL     1      -1.173   0.930   2.216  0.00  0.00    -0.275 OA
ATOM      3  N1  UNL     1      -2.061  -0.426   0.536  0.00  0.00    -0.285 N 
ATOM      4  C6  UNL     1      -3.351  -0.911   0.008  0.00  0.00    +0.144 C 
ATOM      5  C7  UNL     1      -3.526  -2.384   0.265  0.00  0.00    -0.027 A 
ATOM      6  C8  UNL     1      -4.788  -2.929   0.554  0.00  0.00    +0.005 A 
ATOM      7  C9  UNL     1      -4.929  -4.307   0.741  0.00  0.00    +0.000 A 
ATOM      8  C10 UNL     1      -3.819  -5.148   0.626  0.00  0.00    +0.000 A 
ATOM      9  C11 UNL     1      -2.563  -4.614   0.321  0.00  0.00    +0.004 A 
ATOM     10  C12 UNL     1      -2.414  -3.230   0.146  0.00  0.00    -0.040 A 
ATOM     11  C13 UNL     1      -1.097  -2.627  -0.235  0.00  0.00    +0.067 C 
ATOM     12  C14 UNL     1      -0.869  -1.314   0.544  0.00  0.00    +0.167 C 
ENDROOT
BRANCH  12  13
ATOM     13  C15 UNL     1       0.341  -0.602  -0.008  0.00  0.00    +0.238 C 
ATOM     14  O2  UNL     1       0.376  -0.281  -1.228  0.00  0.00    -0.273 OA
ATOM     15  N2  UNL     1       1.437  -0.265   0.855  0.00  0.00    -0.284 N 
ATOM     16  H19 UNL     1       1.295  -0.308   1.889  0.00  0.00    +0.155 HD
BRANCH  15  17
ATOM     17  C16 UNL     1       2.636   0.349   0.364  0.00  0.00    +0.037 A 
ATOM     18  C17 UNL     1       2.982   1.621   0.835  0.00  0.00    +0.030 A 
ATOM     19  C18 UNL     1       4.133   2.272   0.369  0.00  0.00    -0.007 A 
ATOM     20  C19 UNL     1       4.476   3.646   0.871  0.00  0.00    +0.047 C 
ATOM     21  C20 UNL     1       4.955   1.643  -0.584  0.00  0.00    +0.123 A 
ATOM     22  C22 UNL     1       4.621   0.353  -1.038  0.00  0.00    +0.051 A 
ATOM     23  C23 UNL     1       3.483  -0.311  -0.553  0.00  0.00    -0.026 A 
ATOM     24  C24 UNL     1       3.190  -1.706  -1.036  0.00  0.00    +0.046 C 
BRANCH  21  25
ATOM     25  O3  UNL     1       6.092   2.323  -1.052  0.00  0.00    -0.495 OA
ATOM     26  C21 UNL     1       7.001   1.809  -2.019  0.00  0.00    +0.277 C 
ENDBRANCH  21  25
ENDBRANCH  15  17
ENDBRANCH  12  13
BRANCH   1  27
ATOM     27  C3  UNL     1      -2.793   2.079   0.914  0.00  0.00    +0.072 C 
ATOM     28  C4  UNL     1      -4.001   2.204   1.852  0.00  0.00    +0.017 C 
BRANCH  27  30
ATOM     29  C1  UNL     1      -2.038   2.195  -1.534  0.00  0.00    +0.004 C 
ATOM     30  C2  UNL     1      -3.214   2.257  -0.563  0.00  0.00    +0.009 C 
ENDBRANCH  27  30
ENDBRANCH   1  27
TORSDOF 5
