MODEL 1
REMARK VINA RESULT:    -5.405      0.000      0.000
REMARK INTER + INTRA:          -8.330
REMARK INTER:                  -7.301
REMARK INTRA:                  -1.029
REMARK UNBOUND:                -1.029
REMARK  Name = /home/qwerty/github/datacon2025hack/step_04_hit_selection/docking/ligands/lig_249.pdb
REMARK  9 active torsions:
REMARK  status: ('A' for Active; 'I' for Inactive)
REMARK    1  A    between atoms: C2_2  and  C3_3
REMARK    2  A    between atoms: C3_3  and  C4_4
REMARK    3  A    between atoms: C3_3  and  C5_5
REMARK    4  A    between atoms: C3_3  and  C6_6
REMARK    5  A    between atoms: C6_6  and  C7_7
REMARK    6  A    between atoms: C11_13  and  C12_14
REMARK    7  A    between atoms: C12_14  and  N2_15
REMARK    8  A    between atoms: N2_15  and  C13_16
REMARK    9  A    between atoms: C14_17  and  C15_19
REMARK                            x       y       z     vdW  Elec       q    Type
REMARK                         _______ _______ _______ _____ _____    ______ ____
ROOT
ATOM      1  C7  UNL     1       9.249   7.647  21.294  0.00  0.00    +0.217 C 
ATOM      2  O1  UNL     1       9.243   6.919  20.264  0.00  0.00    -0.276 OA
ATOM      3  N1  UNL     1      10.058   8.842  21.305  0.00  0.00    -0.297 N 
ATOM      4  C8  UNL     1      10.581   9.405  20.067  0.00  0.00    +0.108 C 
ATOM      5  C9  UNL     1      11.685  10.367  20.476  0.00  0.00    +0.021 C 
ATOM      6  C10 UNL     1      12.080   9.935  21.882  0.00  0.00    +0.025 C 
ATOM      7  C11 UNL     1      10.818   9.296  22.471  0.00  0.00    +0.093 C 
ENDROOT
BRANCH   1   8
ATOM      8  C6  UNL     1       8.394   7.234  22.467  0.00  0.00    +0.106 C 
BRANCH   8   9
ATOM      9  C3  UNL     1       8.898   5.954  23.201  0.00  0.00    -0.009 C 
ATOM     10  C4  UNL     1       8.482   5.987  24.690  0.00  0.00    +0.016 C 
ATOM     11  C5  UNL     1      10.437   5.821  23.130  0.00  0.00    +0.016 C 
BRANCH   9  13
ATOM     12  C1  UNL     1       7.250   4.044  23.133  0.00  0.00    +0.004 C 
ATOM     13  C2  UNL     1       8.256   4.725  22.566  0.00  0.00    -0.028 C 
ENDBRANCH   9  13
ENDBRANCH   8   9
ENDBRANCH   1   8
BRANCH   7  14
ATOM     14  C12 UNL     1      10.007  10.326  23.286  0.00  0.00    +0.130 C 
BRANCH  14  15
ATOM     15  N2  UNL     1       9.657   9.785  24.606  0.00  0.00    -0.299 N 
ATOM     16  C13 UNL     1      10.601   8.904  25.302  0.00  0.00    +0.132 C 
ATOM     17  C14 UNL     1       8.334   9.982  25.144  0.00  0.00    +0.247 C 
ATOM     18  O2  UNL     1       7.338   9.931  24.374  0.00  0.00    -0.270 OA
BRANCH  17  19
ATOM     19  C15 UNL     1       8.118  10.237  26.587  0.00  0.00    +0.040 A 
ATOM     20  C16 UNL     1       8.458  11.476  27.161  0.00  0.00    +0.033 A 
ATOM     21  C17 UNL     1       8.204  11.702  28.517  0.00  0.00    +0.111 A 
ATOM     22  N3  UNL     1       7.633  10.731  29.277  0.00  0.00    -0.263 NA
ATOM     23  C18 UNL     1       7.289   9.525  28.750  0.00  0.00    +0.111 A 
ATOM     24  C19 UNL     1       7.514   9.259  27.394  0.00  0.00    +0.033 A 
ENDBRANCH  17  19
ENDBRANCH  14  15
ENDBRANCH   7  14
TORSDOF 6
ENDMDL
MODEL 2
REMARK VINA RESULT:    -4.948      6.606      9.722
REMARK INTER + INTRA:          -7.713
REMARK INTER:                  -6.993
REMARK INTRA:                  -0.720
REMARK UNBOUND:                -1.029
REMARK  Name = /home/qwerty/github/datacon2025hack/step_04_hit_selection/docking/ligands/lig_249.pdb
REMARK  9 active torsions:
REMARK  status: ('A' for Active; 'I' for Inactive)
REMARK    1  A    between atoms: C2_2  and  C3_3
REMARK    2  A    between atoms: C3_3  and  C4_4
REMARK    3  A    between atoms: C3_3  and  C5_5
REMARK    4  A    between atoms: C3_3  and  C6_6
REMARK    5  A    between atoms: C6_6  and  C7_7
REMARK    6  A    between atoms: C11_13  and  C12_14
REMARK    7  A    between atoms: C12_14  and  N2_15
REMARK    8  A    between atoms: N2_15  and  C13_16
REMARK    9  A    between atoms: C14_17  and  C15_19
REMARK                            x       y       z     vdW  Elec       q    Type
REMARK                         _______ _______ _______ _____ _____    ______ ____
ROOT
ATOM      1  C7  UNL     1      11.001  12.495  28.380  0.00  0.00    +0.217 C 
ATOM      2  O1  UNL     1      11.169  12.706  27.148  0.00  0.00    -0.276 OA
ATOM      3  N1  UNL     1      11.663  13.350  29.336  0.00  0.00    -0.297 N 
ATOM      4  C8  UNL     1      12.223  14.634  28.932  0.00  0.00    +0.108 C 
ATOM      5  C9  UNL     1      13.168  15.050  30.047  0.00  0.00    +0.021 C 
ATOM      6  C10 UNL     1      13.487  13.760  30.793  0.00  0.00    +0.025 C 
ATOM      7  C11 UNL     1      12.261  12.866  30.581  0.00  0.00    +0.093 C 
ENDROOT
BRANCH   1   8
ATOM      8  C6  UNL     1      10.101  11.358  28.797  0.00  0.00    +0.106 C 
BRANCH   8   9
ATOM      9  C3  UNL     1       8.601  11.564  28.424  0.00  0.00    -0.009 C 
ATOM     10  C4  UNL     1       7.690  10.801  29.412  0.00  0.00    +0.016 C 
ATOM     11  C5  UNL     1       8.293  11.063  26.993  0.00  0.00    +0.016 C 
BRANCH   9  13
ATOM     12  C1  UNL     1       7.713  13.604  29.614  0.00  0.00    +0.004 C 
ATOM     13  C2  UNL     1       8.258  13.047  28.523  0.00  0.00    -0.028 C 
ENDBRANCH   9  13
ENDBRANCH   8   9
ENDBRANCH   1   8
BRANCH   7  14
ATOM     14  C12 UNL     1      11.268  13.004  31.755  0.00  0.00    +0.130 C 
BRANCH  14  15
ATOM     15  N2  UNL     1      11.873  12.526  33.006  0.00  0.00    -0.299 N 
ATOM     16  C13 UNL     1      12.192  11.102  33.159  0.00  0.00    +0.132 C 
ATOM     17  C14 UNL     1      12.002  13.412  34.135  0.00  0.00    +0.247 C 
ATOM     18  O2  UNL     1      11.083  14.239  34.382  0.00  0.00    -0.270 OA
BRANCH  17  19
ATOM     19  C15 UNL     1      13.190  13.370  35.018  0.00  0.00    +0.040 A 
ATOM     20  C16 UNL     1      13.104  12.843  36.320  0.00  0.00    +0.033 A 
ATOM     21  C17 UNL     1      14.252  12.779  37.116  0.00  0.00    +0.111 A 
ATOM     22  N3  UNL     1      15.443  13.224  36.636  0.00  0.00    -0.263 NA
ATOM     23  C18 UNL     1      15.558  13.734  35.380  0.00  0.00    +0.111 A 
ATOM     24  C19 UNL     1      14.438  13.807  34.543  0.00  0.00    +0.033 A 
ENDBRANCH  17  19
ENDBRANCH  14  15
ENDBRANCH   7  14
TORSDOF 6
ENDMDL
MODEL 3
REMARK VINA RESULT:    -4.916      2.278      7.638
REMARK INTER + INTRA:          -7.669
REMARK INTER:                  -6.851
REMARK INTRA:                  -0.818
REMARK UNBOUND:                -1.029
REMARK  Name = /home/qwerty/github/datacon2025hack/step_04_hit_selection/docking/ligands/lig_249.pdb
REMARK  9 active torsions:
REMARK  status: ('A' for Active; 'I' for Inactive)
REMARK    1  A    between atoms: C2_2  and  C3_3
REMARK    2  A    between atoms: C3_3  and  C4_4
REMARK    3  A    between atoms: C3_3  and  C5_5
REMARK    4  A    between atoms: C3_3  and  C6_6
REMARK    5  A    between atoms: C6_6  and  C7_7
REMARK    6  A    between atoms: C11_13  and  C12_14
REMARK    7  A    between atoms: C12_14  and  N2_15
REMARK    8  A    between atoms: N2_15  and  C13_16
REMARK    9  A    between atoms: C14_17  and  C15_19
REMARK                            x       y       z     vdW  Elec       q    Type
REMARK                         _______ _______ _______ _____ _____    ______ ____
ROOT
ATOM      1  C7  UNL     1       9.748  10.781  29.380  0.00  0.00    +0.217 C 
ATOM      2  O1  UNL     1       9.793  10.613  30.629  0.00  0.00    -0.276 OA
ATOM      3  N1  UNL     1       8.794  10.027  28.602  0.00  0.00    -0.297 N 
ATOM      4  C8  UNL     1       7.670   9.354  29.243  0.00  0.00    +0.108 C 
ATOM      5  C9  UNL     1       7.142   8.357  28.224  0.00  0.00    +0.021 C 
ATOM      6  C10 UNL     1       8.291   8.150  27.246  0.00  0.00    +0.025 C 
ATOM      7  C11 UNL     1       9.087   9.458  27.286  0.00  0.00    +0.093 C 
ENDROOT
BRANCH   1   8
ATOM      8  C6  UNL     1      10.694  11.778  28.757  0.00  0.00    +0.106 C 
BRANCH   8   9
ATOM      9  C3  UNL     1      10.288  13.267  28.981  0.00  0.00    -0.009 C 
ATOM     10  C4  UNL     1      10.900  14.165  27.882  0.00  0.00    +0.016 C 
ATOM     11  C5  UNL     1      10.765  13.789  30.356  0.00  0.00    +0.016 C 
BRANCH   9  13
ATOM     12  C1  UNL     1       8.127  13.780  27.783  0.00  0.00    +0.004 C 
ATOM     13  C2  UNL     1       8.770  13.392  28.894  0.00  0.00    -0.028 C 
ENDBRANCH   9  13
ENDBRANCH   8   9
ENDBRANCH   1   8
BRANCH   7  14
ATOM     14  C12 UNL     1       8.635  10.415  26.163  0.00  0.00    +0.130 C 
BRANCH  14  15
ATOM     15  N2  UNL     1       9.147   9.968  24.861  0.00  0.00    -0.299 N 
ATOM     16  C13 UNL     1      10.584  10.058  24.578  0.00  0.00    +0.132 C 
ATOM     17  C14 UNL     1       8.234   9.597  23.809  0.00  0.00    +0.247 C 
ATOM     18  O2  UNL     1       7.166  10.249  23.657  0.00  0.00    -0.270 OA
BRANCH  17  19
ATOM     19  C15 UNL     1       8.525   8.468  22.896  0.00  0.00    +0.040 A 
ATOM     20  C16 UNL     1       8.724   8.684  21.520  0.00  0.00    +0.033 A 
ATOM     21  C17 UNL     1       9.038   7.604  20.690  0.00  0.00    +0.111 A 
ATOM     22  N3  UNL     1       9.149   6.353  21.208  0.00  0.00    -0.263 NA
ATOM     23  C18 UNL     1       8.967   6.113  22.534  0.00  0.00    +0.111 A 
ATOM     24  C19 UNL     1       8.664   7.166  23.406  0.00  0.00    +0.033 A 
ENDBRANCH  17  19
ENDBRANCH  14  15
ENDBRANCH   7  14
TORSDOF 6
ENDMDL
MODEL 4
REMARK VINA RESULT:    -4.837      7.431      9.695
REMARK INTER + INTRA:          -7.563
REMARK INTER:                  -6.881
REMARK INTRA:                  -0.681
REMARK UNBOUND:                -1.029
REMARK  Name = /home/qwerty/github/datacon2025hack/step_04_hit_selection/docking/ligands/lig_249.pdb
REMARK  9 active torsions:
REMARK  status: ('A' for Active; 'I' for Inactive)
REMARK    1  A    between atoms: C2_2  and  C3_3
REMARK    2  A    between atoms: C3_3  and  C4_4
REMARK    3  A    between atoms: C3_3  and  C5_5
REMARK    4  A    between atoms: C3_3  and  C6_6
REMARK    5  A    between atoms: C6_6  and  C7_7
REMARK    6  A    between atoms: C11_13  and  C12_14
REMARK    7  A    between atoms: C12_14  and  N2_15
REMARK    8  A    between atoms: N2_15  and  C13_16
REMARK    9  A    between atoms: C14_17  and  C15_19
REMARK                            x       y       z     vdW  Elec       q    Type
REMARK                         _______ _______ _______ _____ _____    ______ ____
ROOT
ATOM      1  C7  UNL     1      16.060  -0.680  22.245  0.00  0.00    +0.217 C 
ATOM      2  O1  UNL     1      17.288  -0.840  22.008  0.00  0.00    -0.276 OA
ATOM      3  N1  UNL     1      15.330   0.334  21.522  0.00  0.00    -0.297 N 
ATOM      4  C8  UNL     1      15.874   0.925  20.305  0.00  0.00    +0.108 C 
ATOM      5  C9  UNL     1      15.074   2.194  20.061  0.00  0.00    +0.021 C 
ATOM      6  C10 UNL     1      14.454   2.533  21.410  0.00  0.00    +0.025 C 
ATOM      7  C11 UNL     1      14.309   1.188  22.130  0.00  0.00    +0.093 C 
ENDROOT
BRANCH   1   8
ATOM      8  C6  UNL     1      15.407  -1.571  23.273  0.00  0.00    +0.106 C 
BRANCH   8   9
ATOM      9  C3  UNL     1      16.019  -1.446  24.702  0.00  0.00    -0.009 C 
ATOM     10  C4  UNL     1      16.299   0.036  25.041  0.00  0.00    +0.016 C 
ATOM     11  C5  UNL     1      17.345  -2.232  24.828  0.00  0.00    +0.016 C 
BRANCH   9  13
ATOM     12  C1  UNL     1      14.289  -3.085  25.533  0.00  0.00    +0.004 C 
ATOM     13  C2  UNL     1      15.020  -1.977  25.725  0.00  0.00    -0.028 C 
ENDBRANCH   9  13
ENDBRANCH   8   9
ENDBRANCH   1   8
BRANCH   7  14
ATOM     14  C12 UNL     1      12.900   0.595  21.913  0.00  0.00    +0.130 C 
BRANCH  14  15
ATOM     15  N2  UNL     1      12.069   0.780  23.110  0.00  0.00    -0.299 N 
ATOM     16  C13 UNL     1      12.705   0.850  24.431  0.00  0.00    +0.132 C 
ATOM     17  C14 UNL     1      10.632   0.730  23.011  0.00  0.00    +0.247 C 
ATOM     18  O2  UNL     1      10.093  -0.099  22.229  0.00  0.00    -0.270 OA
BRANCH  17  19
ATOM     19  C15 UNL     1       9.771   1.629  23.814  0.00  0.00    +0.040 A 
ATOM     20  C16 UNL     1       9.499   2.942  23.385  0.00  0.00    +0.033 A 
ATOM     21  C17 UNL     1       8.649   3.753  24.143  0.00  0.00    +0.111 A 
ATOM     22  N3  UNL     1       8.090   3.278  25.286  0.00  0.00    -0.263 NA
ATOM     23  C18 UNL     1       8.330   2.013  25.723  0.00  0.00    +0.111 A 
ATOM     24  C19 UNL     1       9.165   1.160  24.991  0.00  0.00    +0.033 A 
ENDBRANCH  17  19
ENDBRANCH  14  15
ENDBRANCH   7  14
TORSDOF 6
ENDMDL
MODEL 5
REMARK VINA RESULT:    -4.819      8.182     12.316
REMARK INTER + INTRA:          -7.539
REMARK INTER:                  -6.547
REMARK INTRA:                  -0.991
REMARK UNBOUND:                -1.029
REMARK  Name = /home/qwerty/github/datacon2025hack/step_04_hit_selection/docking/ligands/lig_249.pdb
REMARK  9 active torsions:
REMARK  status: ('A' for Active; 'I' for Inactive)
REMARK    1  A    between atoms: C2_2  and  C3_3
REMARK    2  A    between atoms: C3_3  and  C4_4
REMARK    3  A    between atoms: C3_3  and  C5_5
REMARK    4  A    between atoms: C3_3  and  C6_6
REMARK    5  A    between atoms: C6_6  and  C7_7
REMARK    6  A    between atoms: C11_13  and  C12_14
REMARK    7  A    between atoms: C12_14  and  N2_15
REMARK    8  A    between atoms: N2_15  and  C13_16
REMARK    9  A    between atoms: C14_17  and  C15_19
REMARK                            x       y       z     vdW  Elec       q    Type
REMARK                         _______ _______ _______ _____ _____    ______ ____
ROOT
ATOM      1  C7  UNL     1      14.083  12.800  35.802  0.00  0.00    +0.217 C 
ATOM      2  O1  UNL     1      14.868  12.789  36.789  0.00  0.00    -0.276 OA
ATOM      3  N1  UNL     1      12.851  12.051  35.874  0.00  0.00    -0.297 N 
ATOM      4  C8  UNL     1      12.334  11.580  37.153  0.00  0.00    +0.108 C 
ATOM      5  C9  UNL     1      11.298  10.518  36.821  0.00  0.00    +0.021 C 
ATOM      6  C10 UNL     1      11.630  10.076  35.402  0.00  0.00    +0.025 C 
ATOM      7  C11 UNL     1      12.295  11.293  34.752  0.00  0.00    +0.093 C 
ENDROOT
BRANCH   1   8
ATOM      8  C6  UNL     1      14.470  13.611  34.590  0.00  0.00    +0.106 C 
BRANCH   8   9
ATOM      9  C3  UNL     1      15.712  13.059  33.825  0.00  0.00    -0.009 C 
ATOM     10  C4  UNL     1      15.817  11.527  34.003  0.00  0.00    +0.016 C 
ATOM     11  C5  UNL     1      17.026  13.698  34.332  0.00  0.00    +0.016 C 
BRANCH   9  13
ATOM     12  C1  UNL     1      16.592  13.498  31.502  0.00  0.00    +0.004 C 
ATOM     13  C2  UNL     1      15.554  13.346  32.336  0.00  0.00    -0.028 C 
ENDBRANCH   9  13
ENDBRANCH   8   9
ENDBRANCH   1   8
BRANCH   7  14
ATOM     14  C12 UNL     1      11.262  12.140  33.978  0.00  0.00    +0.130 C 
BRANCH  14  15
ATOM     15  N2  UNL     1      11.733  12.416  32.614  0.00  0.00    -0.299 N 
ATOM     16  C13 UNL     1      12.529  11.408  31.904  0.00  0.00    +0.132 C 
ATOM     17  C14 UNL     1      11.556  13.724  32.035  0.00  0.00    +0.247 C 
ATOM     18  O2  UNL     1      11.695  14.746  32.760  0.00  0.00    -0.270 OA
BRANCH  17  19
ATOM     19  C15 UNL     1      11.219  13.896  30.603  0.00  0.00    +0.040 A 
ATOM     20  C16 UNL     1      12.116  14.526  29.721  0.00  0.00    +0.033 A 
ATOM     21  C17 UNL     1      11.788  14.638  28.366  0.00  0.00    +0.111 A 
ATOM     22  N3  UNL     1      10.611  14.141  27.905  0.00  0.00    -0.263 NA
ATOM     23  C18 UNL     1       9.726  13.523  28.732  0.00  0.00    +0.111 A 
ATOM     24  C19 UNL     1      10.017  13.377  30.094  0.00  0.00    +0.033 A 
ENDBRANCH  17  19
ENDBRANCH  14  15
ENDBRANCH   7  14
TORSDOF 6
ENDMDL
MODEL 6
REMARK VINA RESULT:    -4.777      7.427      9.935
REMARK INTER + INTRA:          -7.481
REMARK INTER:                  -6.667
REMARK INTRA:                  -0.814
REMARK UNBOUND:                -1.029
REMARK  Name = /home/qwerty/github/datacon2025hack/step_04_hit_selection/docking/ligands/lig_249.pdb
REMARK  9 active torsions:
REMARK  status: ('A' for Active; 'I' for Inactive)
REMARK    1  A    between atoms: C2_2  and  C3_3
REMARK    2  A    between atoms: C3_3  and  C4_4
REMARK    3  A    between atoms: C3_3  and  C5_5
REMARK    4  A    between atoms: C3_3  and  C6_6
REMARK    5  A    between atoms: C6_6  and  C7_7
REMARK    6  A    between atoms: C11_13  and  C12_14
REMARK    7  A    between atoms: C12_14  and  N2_15
REMARK    8  A    between atoms: N2_15  and  C13_16
REMARK    9  A    between atoms: C14_17  and  C15_19
REMARK                            x       y       z     vdW  Elec       q    Type
REMARK                         _______ _______ _______ _____ _____    ______ ____
ROOT
ATOM      1  C7  UNL     1      16.528  -0.183  23.581  0.00  0.00    +0.217 C 
ATOM      2  O1  UNL     1      17.596  -0.714  23.991  0.00  0.00    -0.276 OA
ATOM      3  N1  UNL     1      16.211  -0.239  22.174  0.00  0.00    -0.297 N 
ATOM      4  C8  UNL     1      16.896  -1.172  21.287  0.00  0.00    +0.108 C 
ATOM      5  C9  UNL     1      16.626  -0.683  19.874  0.00  0.00    +0.021 C 
ATOM      6  C10 UNL     1      16.227   0.778  20.033  0.00  0.00    +0.025 C 
ATOM      7  C11 UNL     1      15.610   0.871  21.432  0.00  0.00    +0.093 C 
ENDROOT
BRANCH   1   8
ATOM      8  C6  UNL     1      15.624   0.480  24.590  0.00  0.00    +0.106 C 
BRANCH   8   9
ATOM      9  C3  UNL     1      14.857  -0.520  25.510  0.00  0.00    -0.009 C 
ATOM     10  C4  UNL     1      13.467   0.045  25.879  0.00  0.00    +0.016 C 
ATOM     11  C5  UNL     1      15.630  -0.801  26.820  0.00  0.00    +0.016 C 
BRANCH   9  13
ATOM     12  C1  UNL     1      14.611  -3.027  25.364  0.00  0.00    +0.004 C 
ATOM     13  C2  UNL     1      14.644  -1.830  24.760  0.00  0.00    -0.028 C 
ENDBRANCH   9  13
ENDBRANCH   8   9
ENDBRANCH   1   8
BRANCH   7  14
ATOM     14  C12 UNL     1      14.075   0.719  21.370  0.00  0.00    +0.130 C 
BRANCH  14  15
ATOM     15  N2  UNL     1      13.413   1.880  21.979  0.00  0.00    -0.299 N 
ATOM     16  C13 UNL     1      14.201   3.071  22.316  0.00  0.00    +0.132 C 
ATOM     17  C14 UNL     1      12.035   1.795  22.394  0.00  0.00    +0.247 C 
ATOM     18  O2  UNL     1      11.609   0.727  22.912  0.00  0.00    -0.270 OA
BRANCH  17  19
ATOM     19  C15 UNL     1      11.107   2.938  22.232  0.00  0.00    +0.040 A 
ATOM     20  C16 UNL     1      10.589   3.613  23.353  0.00  0.00    +0.033 A 
ATOM     21  C17 UNL     1       9.748   4.714  23.168  0.00  0.00    +0.111 A 
ATOM     22  N3  UNL     1       9.432   5.130  21.914  0.00  0.00    -0.263 NA
ATOM     23  C18 UNL     1       9.921   4.501  20.811  0.00  0.00    +0.111 A 
ATOM     24  C19 UNL     1      10.777   3.401  20.948  0.00  0.00    +0.033 A 
ENDBRANCH  17  19
ENDBRANCH  14  15
ENDBRANCH   7  14
TORSDOF 6
ENDMDL
MODEL 7
REMARK VINA RESULT:    -4.775     14.747     16.740
REMARK INTER + INTRA:          -7.479
REMARK INTER:                  -6.473
REMARK INTRA:                  -1.006
REMARK UNBOUND:                -1.029
REMARK  Name = /home/qwerty/github/datacon2025hack/step_04_hit_selection/docking/ligands/lig_249.pdb
REMARK  9 active torsions:
REMARK  status: ('A' for Active; 'I' for Inactive)
REMARK    1  A    between atoms: C2_2  and  C3_3
REMARK    2  A    between atoms: C3_3  and  C4_4
REMARK    3  A    between atoms: C3_3  and  C5_5
REMARK    4  A    between atoms: C3_3  and  C6_6
REMARK    5  A    between atoms: C6_6  and  C7_7
REMARK    6  A    between atoms: C11_13  and  C12_14
REMARK    7  A    between atoms: C12_14  and  N2_15
REMARK    8  A    between atoms: N2_15  and  C13_16
REMARK    9  A    between atoms: C14_17  and  C15_19
REMARK                            x       y       z     vdW  Elec       q    Type
REMARK                         _______ _______ _______ _____ _____    ______ ____
ROOT
ATOM      1  C7  UNL     1      22.291   7.820  34.599  0.00  0.00    +0.217 C 
ATOM      2  O1  UNL     1      22.345   8.738  35.462  0.00  0.00    -0.276 OA
ATOM      3  N1  UNL     1      22.756   8.087  33.259  0.00  0.00    -0.297 N 
ATOM      4  C8  UNL     1      23.590   9.247  32.972  0.00  0.00    +0.108 C 
ATOM      5  C9  UNL     1      23.540   9.438  31.465  0.00  0.00    +0.021 C 
ATOM      6  C10 UNL     1      22.288   8.695  31.016  0.00  0.00    +0.025 C 
ATOM      7  C11 UNL     1      22.092   7.586  32.054  0.00  0.00    +0.093 C 
ENDROOT
BRANCH   1   8
ATOM      8  C6  UNL     1      21.749   6.475  35.017  0.00  0.00    +0.106 C 
BRANCH   8   9
ATOM      9  C3  UNL     1      20.227   6.480  35.355  0.00  0.00    -0.009 C 
ATOM     10  C4  UNL     1      19.585   5.128  34.970  0.00  0.00    +0.016 C 
ATOM     11  C5  UNL     1      19.477   7.605  34.603  0.00  0.00    +0.016 C 
BRANCH   9  13
ATOM     12  C1  UNL     1      18.986   6.208  37.535  0.00  0.00    +0.004 C 
ATOM     13  C2  UNL     1      20.046   6.671  36.857  0.00  0.00    -0.028 C 
ENDBRANCH   9  13
ENDBRANCH   8   9
ENDBRANCH   1   8
BRANCH   7  14
ATOM     14  C12 UNL     1      22.740   6.267  31.581  0.00  0.00    +0.130 C 
BRANCH  14  15
ATOM     15  N2  UNL     1      21.780   5.157  31.662  0.00  0.00    -0.299 N 
ATOM     16  C13 UNL     1      20.367   5.398  31.351  0.00  0.00    +0.132 C 
ATOM     17  C14 UNL     1      22.187   3.883  32.198  0.00  0.00    +0.247 C 
ATOM     18  O2  UNL     1      22.979   3.847  33.179  0.00  0.00    -0.270 OA
BRANCH  17  19
ATOM     19  C15 UNL     1      21.690   2.610  31.627  0.00  0.00    +0.040 A 
ATOM     20  C16 UNL     1      22.153   2.148  30.381  0.00  0.00    +0.033 A 
ATOM     21  C17 UNL     1      21.696   0.923  29.886  0.00  0.00    +0.111 A 
ATOM     22  N3  UNL     1      20.810   0.183  30.602  0.00  0.00    -0.263 NA
ATOM     23  C18 UNL     1      20.348   0.601  31.811  0.00  0.00    +0.111 A 
ATOM     24  C19 UNL     1      20.787   1.816  32.353  0.00  0.00    +0.033 A 
ENDBRANCH  17  19
ENDBRANCH  14  15
ENDBRANCH   7  14
TORSDOF 6
ENDMDL
MODEL 8
REMARK VINA RESULT:    -4.748     14.441     15.798
REMARK INTER + INTRA:          -7.443
REMARK INTER:                  -6.836
REMARK INTRA:                  -0.607
REMARK UNBOUND:                -1.029
REMARK  Name = /home/qwerty/github/datacon2025hack/step_04_hit_selection/docking/ligands/lig_249.pdb
REMARK  9 active torsions:
REMARK  status: ('A' for Active; 'I' for Inactive)
REMARK    1  A    between atoms: C2_2  and  C3_3
REMARK    2  A    between atoms: C3_3  and  C4_4
REMARK    3  A    between atoms: C3_3  and  C5_5
REMARK    4  A    between atoms: C3_3  and  C6_6
REMARK    5  A    between atoms: C6_6  and  C7_7
REMARK    6  A    between atoms: C11_13  and  C12_14
REMARK    7  A    between atoms: C12_14  and  N2_15
REMARK    8  A    between atoms: N2_15  and  C13_16
REMARK    9  A    between atoms: C14_17  and  C15_19
REMARK                            x       y       z     vdW  Elec       q    Type
REMARK                         _______ _______ _______ _____ _____    ______ ____
ROOT
ATOM      1  C7  UNL     1      20.289   1.799  30.253  0.00  0.00    +0.217 C 
ATOM      2  O1  UNL     1      19.699   0.701  30.059  0.00  0.00    -0.276 OA
ATOM      3  N1  UNL     1      20.501   2.253  31.606  0.00  0.00    -0.297 N 
ATOM      4  C8  UNL     1      20.372   1.338  32.733  0.00  0.00    +0.108 C 
ATOM      5  C9  UNL     1      20.252   2.211  33.972  0.00  0.00    +0.021 C 
ATOM      6  C10 UNL     1      19.814   3.573  33.450  0.00  0.00    +0.025 C 
ATOM      7  C11 UNL     1      20.368   3.650  32.024  0.00  0.00    +0.093 C 
ENDROOT
BRANCH   1   8
ATOM      8  C6  UNL     1      20.756   2.583  29.051  0.00  0.00    +0.106 C 
BRANCH   8   9
ATOM      9  C3  UNL     1      21.766   1.816  28.145  0.00  0.00    -0.009 C 
ATOM     10  C4  UNL     1      22.605   2.810  27.310  0.00  0.00    +0.016 C 
ATOM     11  C5  UNL     1      21.046   0.853  27.172  0.00  0.00    +0.016 C 
BRANCH   9  13
ATOM     12  C1  UNL     1      22.939  -0.296  28.876  0.00  0.00    +0.004 C 
ATOM     13  C2  UNL     1      22.726   1.020  29.023  0.00  0.00    -0.028 C 
ENDBRANCH   9  13
ENDBRANCH   8   9
ENDBRANCH   1   8
BRANCH   7  14
ATOM     14  C12 UNL     1      21.737   4.361  32.001  0.00  0.00    +0.130 C 
BRANCH  14  15
ATOM     15  N2  UNL     1      21.633   5.710  32.573  0.00  0.00    -0.299 N 
ATOM     16  C13 UNL     1      20.916   6.757  31.836  0.00  0.00    +0.132 C 
ATOM     17  C14 UNL     1      22.363   6.050  33.768  0.00  0.00    +0.247 C 
ATOM     18  O2  UNL     1      23.526   5.594  33.935  0.00  0.00    -0.270 OA
BRANCH  17  19
ATOM     19  C15 UNL     1      21.778   6.930  34.806  0.00  0.00    +0.040 A 
ATOM     20  C16 UNL     1      20.770   6.460  35.669  0.00  0.00    +0.033 A 
ATOM     21  C17 UNL     1      20.267   7.301  36.666  0.00  0.00    +0.111 A 
ATOM     22  N3  UNL     1      20.747   8.565  36.801  0.00  0.00    -0.263 NA
ATOM     23  C18 UNL     1      21.724   9.046  35.985  0.00  0.00    +0.111 A 
ATOM     24  C19 UNL     1      22.267   8.236  34.981  0.00  0.00    +0.033 A 
ENDBRANCH  17  19
ENDBRANCH  14  15
ENDBRANCH   7  14
TORSDOF 6
ENDMDL
MODEL 9
REMARK VINA RESULT:    -4.692     14.647     16.546
REMARK INTER + INTRA:          -7.366
REMARK INTER:                  -6.797
REMARK INTRA:                  -0.569
REMARK UNBOUND:                -1.029
REMARK  Name = /home/qwerty/github/datacon2025hack/step_04_hit_selection/docking/ligands/lig_249.pdb
REMARK  9 active torsions:
REMARK  status: ('A' for Active; 'I' for Inactive)
REMARK    1  A    between atoms: C2_2  and  C3_3
REMARK    2  A    between atoms: C3_3  and  C4_4
REMARK    3  A    between atoms: C3_3  and  C5_5
REMARK    4  A    between atoms: C3_3  and  C6_6
REMARK    5  A    between atoms: C6_6  and  C7_7
REMARK    6  A    between atoms: C11_13  and  C12_14
REMARK    7  A    between atoms: C12_14  and  N2_15
REMARK    8  A    between atoms: N2_15  and  C13_16
REMARK    9  A    between atoms: C14_17  and  C15_19
REMARK                            x       y       z     vdW  Elec       q    Type
REMARK                         _______ _______ _______ _____ _____    ______ ____
ROOT
ATOM      1  C7  UNL     1      22.786   7.225  35.409  0.00  0.00    +0.217 C 
ATOM      2  O1  UNL     1      23.260   6.133  35.824  0.00  0.00    -0.276 OA
ATOM      3  N1  UNL     1      21.685   7.830  36.119  0.00  0.00    -0.297 N 
ATOM      4  C8  UNL     1      21.343   7.407  37.472  0.00  0.00    +0.108 C 
ATOM      5  C9  UNL     1      19.940   7.931  37.733  0.00  0.00    +0.021 C 
ATOM      6  C10 UNL     1      19.354   8.191  36.351  0.00  0.00    +0.025 C 
ATOM      7  C11 UNL     1      20.562   8.497  35.459  0.00  0.00    +0.093 C 
ENDROOT
BRANCH   1   8
ATOM      8  C6  UNL     1      23.407   7.856  34.186  0.00  0.00    +0.106 C 
BRANCH   8   9
ATOM      9  C3  UNL     1      23.249   7.010  32.886  0.00  0.00    -0.009 C 
ATOM     10  C4  UNL     1      23.609   7.858  31.644  0.00  0.00    +0.016 C 
ATOM     11  C5  UNL     1      21.803   6.488  32.714  0.00  0.00    +0.016 C 
BRANCH   9  13
ATOM     12  C1  UNL     1      25.539   5.962  33.040  0.00  0.00    +0.004 C 
ATOM     13  C2  UNL     1      24.209   5.827  32.936  0.00  0.00    -0.028 C 
ENDBRANCH   9  13
ENDBRANCH   8   9
ENDBRANCH   1   8
BRANCH   7  14
ATOM     14  C12 UNL     1      20.807  10.019  35.366  0.00  0.00    +0.130 C 
BRANCH  14  15
ATOM     15  N2  UNL     1      19.551  10.733  35.100  0.00  0.00    -0.299 N 
ATOM     16  C13 UNL     1      18.792  10.435  33.880  0.00  0.00    +0.132 C 
ATOM     17  C14 UNL     1      19.148  11.831  35.941  0.00  0.00    +0.247 C 
ATOM     18  O2  UNL     1      20.020  12.629  36.379  0.00  0.00    -0.270 OA
BRANCH  17  19
ATOM     19  C15 UNL     1      17.728  12.047  36.301  0.00  0.00    +0.040 A 
ATOM     20  C16 UNL     1      17.040  11.128  37.116  0.00  0.00    +0.033 A 
ATOM     21  C17 UNL     1      15.712  11.380  37.472  0.00  0.00    +0.111 A 
ATOM     22  N3  UNL     1      15.088  12.505  37.034  0.00  0.00    -0.263 NA
ATOM     23  C18 UNL     1      15.727  13.413  36.250  0.00  0.00    +0.111 A 
ATOM     24  C19 UNL     1      17.062  13.209  35.877  0.00  0.00    +0.033 A 
ENDBRANCH  17  19
ENDBRANCH  14  15
ENDBRANCH   7  14
TORSDOF 6
ENDMDL
