MODEL 1
REMARK VINA RESULT:    -6.740      0.000      0.000
REMARK INTER + INTRA:          -8.909
REMARK INTER:                  -8.317
REMARK INTRA:                  -0.592
REMARK UNBOUND:                -0.592
REMARK  Name = /home/qwerty/github/datacon2025hack/step_04_hit_selection/docking/ligands/lig_338.pdb
REMARK  6 active torsions:
REMARK  status: ('A' for Active; 'I' for Inactive)
REMARK    1  A    between atoms: C1_1  and  C2_2
REMARK    2  A    between atoms: C2_2  and  C3_3
REMARK    3  A    between atoms: C2_2  and  C4_4
REMARK    4  A    between atoms: N4_11  and  C8_12
REMARK    5  A    between atoms: N5_21  and  C16_22
REMARK    6  A    between atoms: C16_22  and  C17_23
REMARK                            x       y       z     vdW  Elec       q    Type
REMARK                         _______ _______ _______ _____ _____    ______ ____
ROOT
ATOM      1  C4  UNL     1      19.766   1.498  30.808  0.00  0.00    +0.137 A 
ATOM      2  N1  UNL     1      18.559   1.754  30.262  0.00  0.00    -0.132 NA
ATOM      3  N2  UNL     1      18.770   2.422  29.139  0.00  0.00    -0.113 NA
ATOM      4  C5  UNL     1      20.103   2.554  29.010  0.00  0.00    +0.220 A 
ATOM      5  N3  UNL     1      20.713   3.258  27.916  0.00  0.00    -0.297 N 
ATOM      6  C6  UNL     1      20.168   4.567  27.530  0.00  0.00    +0.127 C 
ATOM      7  C7  UNL     1      20.916   5.157  26.330  0.00  0.00    +0.124 C 
ATOM      8  N4  UNL     1      21.043   4.151  25.266  0.00  0.00    -0.325 N 
ATOM      9  C14 UNL     1      21.361   2.753  25.601  0.00  0.00    +0.124 C 
ATOM     10  C15 UNL     1      21.726   2.603  27.080  0.00  0.00    +0.127 C 
ATOM     11  N5  UNL     1      20.769   1.990  30.044  0.00  0.00    -0.296 N 
ENDROOT
BRANCH   8  12
ATOM     12  C8  UNL     1      20.946   4.541  23.881  0.00  0.00    +0.065 A 
ATOM     13  C9  UNL     1      19.913   4.028  23.076  0.00  0.00    +0.026 A 
ATOM     14  C10 UNL     1      19.810   4.403  21.733  0.00  0.00    +0.002 A 
ATOM     15  C11 UNL     1      20.735   5.291  21.180  0.00  0.00    +0.003 A 
ATOM     16  C12 UNL     1      21.768   5.802  21.968  0.00  0.00    +0.040 A 
ATOM     17  C13 UNL     1      21.878   5.432  23.313  0.00  0.00    +0.144 A 
ATOM     18  F1  UNL     1      22.911   5.917  24.046  0.00  0.00    -0.204 F 
ENDBRANCH   8  12
BRANCH   1  20
ATOM     19  C1  UNL     1      19.949   1.756  33.284  0.00  0.00    +0.015 C 
ATOM     20  C2  UNL     1      19.934   0.763  32.118  0.00  0.00    +0.051 C 
ATOM     21  C3  UNL     1      18.812  -0.264  32.292  0.00  0.00    +0.015 C 
ENDBRANCH   1  20
BRANCH  11  22
ATOM     22  C16 UNL     1      22.204   2.049  30.354  0.00  0.00    +0.157 C 
BRANCH  22  23
ATOM     23  C17 UNL     1      22.907   0.708  30.085  0.00  0.00    +0.138 C 
ATOM     24  C18 UNL     1      24.233   0.918  29.312  0.00  0.00    +0.033 C 
ATOM     25  C19 UNL     1      24.931  -0.423  29.048  0.00  0.00    +0.005 C 
ATOM     26  C20 UNL     1      23.929  -1.579  28.935  0.00  0.00    +0.028 C 
ATOM     27  C21 UNL     1      22.556  -1.059  28.498  0.00  0.00    +0.160 C 
ATOM     28  O1  UNL     1      21.977  -0.150  29.425  0.00  0.00    -0.375 OA
ENDBRANCH  22  23
ENDBRANCH  11  22
TORSDOF 4
ENDMDL
MODEL 2
REMARK VINA RESULT:    -6.474     12.149     14.860
REMARK INTER + INTRA:          -8.580
REMARK INTER:                  -7.687
REMARK INTRA:                  -0.893
REMARK UNBOUND:                -0.592
REMARK  Name = /home/qwerty/github/datacon2025hack/step_04_hit_selection/docking/ligands/lig_338.pdb
REMARK  6 active torsions:
REMARK  status: ('A' for Active; 'I' for Inactive)
REMARK    1  A    between atoms: C1_1  and  C2_2
REMARK    2  A    between atoms: C2_2  and  C3_3
REMARK    3  A    between atoms: C2_2  and  C4_4
REMARK    4  A    between atoms: N4_11  and  C8_12
REMARK    5  A    between atoms: N5_21  and  C16_22
REMARK    6  A    between atoms: C16_22  and  C17_23
REMARK                            x       y       z     vdW  Elec       q    Type
REMARK                         _______ _______ _______ _____ _____    ______ ____
ROOT
ATOM      1  C4  UNL     1      19.786  13.037  21.146  0.00  0.00    +0.137 A 
ATOM      2  N1  UNL     1      19.738  11.987  21.992  0.00  0.00    -0.132 NA
ATOM      3  N2  UNL     1      20.204  12.401  23.160  0.00  0.00    -0.113 NA
ATOM      4  C5  UNL     1      20.519  13.702  23.013  0.00  0.00    +0.220 A 
ATOM      5  N3  UNL     1      21.089  14.488  24.072  0.00  0.00    -0.297 N 
ATOM      6  C6  UNL     1      22.197  13.920  24.853  0.00  0.00    +0.127 C 
ATOM      7  C7  UNL     1      22.658  14.879  25.955  0.00  0.00    +0.124 C 
ATOM      8  N4  UNL     1      21.500  15.378  26.711  0.00  0.00    -0.325 N 
ATOM      9  C14 UNL     1      20.261  15.750  26.010  0.00  0.00    +0.124 C 
ATOM     10  C15 UNL     1      20.456  15.744  24.491  0.00  0.00    +0.127 C 
ATOM     11  N5  UNL     1      20.276  14.142  21.757  0.00  0.00    -0.296 N 
ENDROOT
BRANCH   8  12
ATOM     12  C8  UNL     1      21.599  15.591  28.134  0.00  0.00    +0.065 A 
ATOM     13  C9  UNL     1      21.444  16.885  28.665  0.00  0.00    +0.026 A 
ATOM     14  C10 UNL     1      21.536  17.100  30.043  0.00  0.00    +0.002 A 
ATOM     15  C11 UNL     1      21.784  16.030  30.904  0.00  0.00    +0.003 A 
ATOM     16  C12 UNL     1      21.946  14.742  30.389  0.00  0.00    +0.040 A 
ATOM     17  C13 UNL     1      21.855  14.518  29.011  0.00  0.00    +0.144 A 
ATOM     18  F1  UNL     1      22.050  13.263  28.535  0.00  0.00    -0.204 F 
ENDBRANCH   8  12
BRANCH   1  20
ATOM     19  C1  UNL     1      20.524  12.510  18.821  0.00  0.00    +0.015 C 
ATOM     20  C2  UNL     1      19.350  12.948  19.702  0.00  0.00    +0.051 C 
ATOM     21  C3  UNL     1      18.175  11.975  19.566  0.00  0.00    +0.015 C 
ENDBRANCH   1  20
BRANCH  11  22
ATOM     22  C16 UNL     1      20.620  15.437  21.155  0.00  0.00    +0.157 C 
BRANCH  22  23
ATOM     23  C17 UNL     1      22.071  15.467  20.645  0.00  0.00    +0.138 C 
ATOM     24  C18 UNL     1      22.993  16.224  21.633  0.00  0.00    +0.033 C 
ATOM     25  C19 UNL     1      24.440  16.250  21.120  0.00  0.00    +0.005 C 
ATOM     26  C20 UNL     1      24.507  16.208  19.588  0.00  0.00    +0.028 C 
ATOM     27  C21 UNL     1      23.215  16.763  18.979  0.00  0.00    +0.160 C 
ATOM     28  O1  UNL     1      22.060  16.010  19.325  0.00  0.00    -0.375 OA
ENDBRANCH  22  23
ENDBRANCH  11  22
TORSDOF 4
ENDMDL
MODEL 3
REMARK VINA RESULT:    -6.250      9.183     12.938
REMARK INTER + INTRA:          -8.304
REMARK INTER:                  -7.650
REMARK INTRA:                  -0.655
REMARK UNBOUND:                -0.592
REMARK  Name = /home/qwerty/github/datacon2025hack/step_04_hit_selection/docking/ligands/lig_338.pdb
REMARK  6 active torsions:
REMARK  status: ('A' for Active; 'I' for Inactive)
REMARK    1  A    between atoms: C1_1  and  C2_2
REMARK    2  A    between atoms: C2_2  and  C3_3
REMARK    3  A    between atoms: C2_2  and  C4_4
REMARK    4  A    between atoms: N4_11  and  C8_12
REMARK    5  A    between atoms: N5_21  and  C16_22
REMARK    6  A    between atoms: C16_22  and  C17_23
REMARK                            x       y       z     vdW  Elec       q    Type
REMARK                         _______ _______ _______ _____ _____    ______ ____
ROOT
ATOM      1  C4  UNL     1      12.242   8.057  21.411  0.00  0.00    +0.137 A 
ATOM      2  N1  UNL     1      13.292   8.087  22.257  0.00  0.00    -0.132 NA
ATOM      3  N2  UNL     1      13.732   6.844  22.382  0.00  0.00    -0.113 NA
ATOM      4  C5  UNL     1      12.951   6.076  21.600  0.00  0.00    +0.220 A 
ATOM      5  N3  UNL     1      13.110   4.651  21.502  0.00  0.00    -0.297 N 
ATOM      6  C6  UNL     1      13.282   3.876  22.738  0.00  0.00    +0.127 C 
ATOM      7  C7  UNL     1      13.468   2.384  22.445  0.00  0.00    +0.124 C 
ATOM      8  N4  UNL     1      14.481   2.194  21.397  0.00  0.00    -0.325 N 
ATOM      9  C14 UNL     1      14.516   3.090  20.230  0.00  0.00    +0.124 C 
ATOM     10  C15 UNL     1      13.293   4.010  20.195  0.00  0.00    +0.127 C 
ATOM     11  N5  UNL     1      11.995   6.800  20.974  0.00  0.00    -0.296 N 
ENDROOT
BRANCH   8  12
ATOM     12  C8  UNL     1      15.391   1.077  21.458  0.00  0.00    +0.065 A 
ATOM     13  C9  UNL     1      16.075   0.790  22.653  0.00  0.00    +0.026 A 
ATOM     14  C10 UNL     1      16.957  -0.292  22.723  0.00  0.00    +0.002 A 
ATOM     15  C11 UNL     1      17.167  -1.097  21.601  0.00  0.00    +0.003 A 
ATOM     16  C12 UNL     1      16.499  -0.819  20.407  0.00  0.00    +0.040 A 
ATOM     17  C13 UNL     1      15.613   0.262  20.330  0.00  0.00    +0.144 A 
ATOM     18  F1  UNL     1      15.004   0.529  19.149  0.00  0.00    -0.204 F 
ENDBRANCH   8  12
BRANCH   1  20
ATOM     19  C1  UNL     1      10.586   9.746  22.209  0.00  0.00    +0.015 C 
ATOM     20  C2  UNL     1      11.457   9.292  21.034  0.00  0.00    +0.051 C 
ATOM     21  C3  UNL     1      12.411  10.409  20.600  0.00  0.00    +0.015 C 
ENDBRANCH   1  20
BRANCH  11  22
ATOM     22  C16 UNL     1      10.864   6.323  20.165  0.00  0.00    +0.157 C 
BRANCH  22  23
ATOM     23  C17 UNL     1       9.645   5.970  21.032  0.00  0.00    +0.138 C 
ATOM     24  C18 UNL     1       9.449   4.436  21.122  0.00  0.00    +0.033 C 
ATOM     25  C19 UNL     1       8.232   4.089  21.990  0.00  0.00    +0.005 C 
ATOM     26  C20 UNL     1       7.164   5.190  21.947  0.00  0.00    +0.028 C 
ATOM     27  C21 UNL     1       7.275   5.995  20.648  0.00  0.00    +0.160 C 
ATOM     28  O1  UNL     1       8.517   6.672  20.509  0.00  0.00    -0.375 OA
ENDBRANCH  22  23
ENDBRANCH  11  22
TORSDOF 4
ENDMDL
MODEL 4
REMARK VINA RESULT:    -6.216      5.244      8.099
REMARK INTER + INTRA:          -8.262
REMARK INTER:                  -7.382
REMARK INTRA:                  -0.879
REMARK UNBOUND:                -0.592
REMARK  Name = /home/qwerty/github/datacon2025hack/step_04_hit_selection/docking/ligands/lig_338.pdb
REMARK  6 active torsions:
REMARK  status: ('A' for Active; 'I' for Inactive)
REMARK    1  A    between atoms: C1_1  and  C2_2
REMARK    2  A    between atoms: C2_2  and  C3_3
REMARK    3  A    between atoms: C2_2  and  C4_4
REMARK    4  A    between atoms: N4_11  and  C8_12
REMARK    5  A    between atoms: N5_21  and  C16_22
REMARK    6  A    between atoms: C16_22  and  C17_23
REMARK                            x       y       z     vdW  Elec       q    Type
REMARK                         _______ _______ _______ _____ _____    ______ ____
ROOT
ATOM      1  C4  UNL     1      17.729   5.387  35.722  0.00  0.00    +0.137 A 
ATOM      2  N1  UNL     1      17.021   4.304  35.340  0.00  0.00    -0.132 NA
ATOM      3  N2  UNL     1      17.671   3.745  34.331  0.00  0.00    -0.113 NA
ATOM      4  C5  UNL     1      18.773   4.489  34.119  0.00  0.00    +0.220 A 
ATOM      5  N3  UNL     1      19.714   4.203  33.073  0.00  0.00    -0.297 N 
ATOM      6  C6  UNL     1      19.203   3.901  31.728  0.00  0.00    +0.127 C 
ATOM      7  C7  UNL     1      20.340   3.591  30.750  0.00  0.00    +0.124 C 
ATOM      8  N4  UNL     1      21.269   2.617  31.341  0.00  0.00    -0.325 N 
ATOM      9  C14 UNL     1      21.649   2.722  32.760  0.00  0.00    +0.124 C 
ATOM     10  C15 UNL     1      21.138   4.026  33.379  0.00  0.00    +0.127 C 
ATOM     11  N5  UNL     1      18.846   5.537  34.971  0.00  0.00    -0.296 N 
ENDROOT
BRANCH   8  12
ATOM     12  C8  UNL     1      21.884   1.606  30.518  0.00  0.00    +0.065 A 
ATOM     13  C9  UNL     1      23.215   1.759  30.090  0.00  0.00    +0.026 A 
ATOM     14  C10 UNL     1      23.819   0.782  29.293  0.00  0.00    +0.002 A 
ATOM     15  C11 UNL     1      23.103  -0.355  28.914  0.00  0.00    +0.003 A 
ATOM     16  C12 UNL     1      21.779  -0.515  29.327  0.00  0.00    +0.040 A 
ATOM     17  C13 UNL     1      21.167   0.458  30.125  0.00  0.00    +0.144 A 
ATOM     18  F1  UNL     1      19.869   0.292  30.484  0.00  0.00    -0.204 F 
ENDBRANCH   8  12
BRANCH   1  20
ATOM     19  C1  UNL     1      15.840   6.741  36.630  0.00  0.00    +0.015 C 
ATOM     20  C2  UNL     1      17.291   6.300  36.843  0.00  0.00    +0.051 C 
ATOM     21  C3  UNL     1      17.452   5.592  38.192  0.00  0.00    +0.015 C 
ENDBRANCH   1  20
BRANCH  11  22
ATOM     22  C16 UNL     1      19.798   6.657  34.970  0.00  0.00    +0.157 C 
BRANCH  22  23
ATOM     23  C17 UNL     1      20.988   6.401  35.910  0.00  0.00    +0.138 C 
ATOM     24  C18 UNL     1      20.856   7.225  37.215  0.00  0.00    +0.033 C 
ATOM     25  C19 UNL     1      22.045   6.966  38.149  0.00  0.00    +0.005 C 
ATOM     26  C20 UNL     1      23.317   6.601  37.372  0.00  0.00    +0.028 C 
ATOM     27  C21 UNL     1      23.261   7.174  35.953  0.00  0.00    +0.160 C 
ATOM     28  O1  UNL     1      22.186   6.658  35.178  0.00  0.00    -0.375 OA
ENDBRANCH  22  23
ENDBRANCH  11  22
TORSDOF 4
ENDMDL
MODEL 5
REMARK VINA RESULT:    -6.149     10.668     13.132
REMARK INTER + INTRA:          -8.180
REMARK INTER:                  -7.219
REMARK INTRA:                  -0.961
REMARK UNBOUND:                -0.592
REMARK  Name = /home/qwerty/github/datacon2025hack/step_04_hit_selection/docking/ligands/lig_338.pdb
REMARK  6 active torsions:
REMARK  status: ('A' for Active; 'I' for Inactive)
REMARK    1  A    between atoms: C1_1  and  C2_2
REMARK    2  A    between atoms: C2_2  and  C3_3
REMARK    3  A    between atoms: C2_2  and  C4_4
REMARK    4  A    between atoms: N4_11  and  C8_12
REMARK    5  A    between atoms: N5_21  and  C16_22
REMARK    6  A    between atoms: C16_22  and  C17_23
REMARK                            x       y       z     vdW  Elec       q    Type
REMARK                         _______ _______ _______ _____ _____    ______ ____
ROOT
ATOM      1  C4  UNL     1      20.053   8.237  36.910  0.00  0.00    +0.137 A 
ATOM      2  N1  UNL     1      19.144   7.673  37.731  0.00  0.00    -0.132 NA
ATOM      3  N2  UNL     1      18.075   8.454  37.730  0.00  0.00    -0.113 NA
ATOM      4  C5  UNL     1      18.343   9.478  36.898  0.00  0.00    +0.220 A 
ATOM      5  N3  UNL     1      17.419  10.553  36.665  0.00  0.00    -0.297 N 
ATOM      6  C6  UNL     1      16.754  11.173  37.819  0.00  0.00    +0.127 C 
ATOM      7  C7  UNL     1      15.784  12.275  37.385  0.00  0.00    +0.124 C 
ATOM      8  N4  UNL     1      14.916  11.791  36.301  0.00  0.00    -0.325 N 
ATOM      9  C14 UNL     1      15.473  10.960  35.221  0.00  0.00    +0.124 C 
ATOM     10  C15 UNL     1      17.001  10.893  35.300  0.00  0.00    +0.127 C 
ATOM     11  N5  UNL     1      19.582   9.383  36.363  0.00  0.00    -0.296 N 
ENDROOT
BRANCH   8  12
ATOM     12  C8  UNL     1      13.535  12.199  36.238  0.00  0.00    +0.065 A 
ATOM     13  C9  UNL     1      12.551  11.464  36.923  0.00  0.00    +0.026 A 
ATOM     14  C10 UNL     1      11.210  11.853  36.869  0.00  0.00    +0.002 A 
ATOM     15  C11 UNL     1      10.836  12.978  36.131  0.00  0.00    +0.003 A 
ATOM     16  C12 UNL     1      11.802  13.713  35.441  0.00  0.00    +0.040 A 
ATOM     17  C13 UNL     1      13.148  13.330  35.491  0.00  0.00    +0.144 A 
ATOM     18  F1  UNL     1      14.060  14.042  34.784  0.00  0.00    -0.204 F 
ENDBRANCH   8  12
BRANCH   1  20
ATOM     19  C1  UNL     1      21.971   7.033  37.959  0.00  0.00    +0.015 C 
ATOM     20  C2  UNL     1      21.420   7.641  36.666  0.00  0.00    +0.051 C 
ATOM     21  C3  UNL     1      21.345   6.587  35.558  0.00  0.00    +0.015 C 
ENDBRANCH   1  20
BRANCH  11  22
ATOM     22  C16 UNL     1      20.304  10.362  35.539  0.00  0.00    +0.157 C 
BRANCH  22  23
ATOM     23  C17 UNL     1      20.357   9.943  34.060  0.00  0.00    +0.138 C 
ATOM     24  C18 UNL     1      21.815   9.679  33.607  0.00  0.00    +0.033 C 
ATOM     25  C19 UNL     1      21.861   9.260  32.131  0.00  0.00    +0.005 C 
ATOM     26  C20 UNL     1      20.703   9.863  31.326  0.00  0.00    +0.028 C 
ATOM     27  C21 UNL     1      20.200  11.149  31.990  0.00  0.00    +0.160 C 
ATOM     28  O1  UNL     1      19.682  10.943  33.298  0.00  0.00    -0.375 OA
ENDBRANCH  22  23
ENDBRANCH  11  22
TORSDOF 4
ENDMDL
MODEL 6
REMARK VINA RESULT:    -6.061      8.903     10.637
REMARK INTER + INTRA:          -8.071
REMARK INTER:                  -7.175
REMARK INTRA:                  -0.896
REMARK UNBOUND:                -0.592
REMARK  Name = /home/qwerty/github/datacon2025hack/step_04_hit_selection/docking/ligands/lig_338.pdb
REMARK  6 active torsions:
REMARK  status: ('A' for Active; 'I' for Inactive)
REMARK    1  A    between atoms: C1_1  and  C2_2
REMARK    2  A    between atoms: C2_2  and  C3_3
REMARK    3  A    between atoms: C2_2  and  C4_4
REMARK    4  A    between atoms: N4_11  and  C8_12
REMARK    5  A    between atoms: N5_21  and  C16_22
REMARK    6  A    between atoms: C16_22  and  C17_23
REMARK                            x       y       z     vdW  Elec       q    Type
REMARK                         _______ _______ _______ _____ _____    ______ ____
ROOT
ATOM      1  C4  UNL     1      14.298  -0.169  25.133  0.00  0.00    +0.137 A 
ATOM      2  N1  UNL     1      13.131  -0.233  25.806  0.00  0.00    -0.132 NA
ATOM      3  N2  UNL     1      12.357   0.738  25.344  0.00  0.00    -0.113 NA
ATOM      4  C5  UNL     1      13.060   1.372  24.387  0.00  0.00    +0.220 A 
ATOM      5  N3  UNL     1      12.552   2.511  23.675  0.00  0.00    -0.297 N 
ATOM      6  C6  UNL     1      11.902   3.586  24.437  0.00  0.00    +0.127 C 
ATOM      7  C7  UNL     1      11.394   4.701  23.518  0.00  0.00    +0.124 C 
ATOM      8  N4  UNL     1      10.633   4.129  22.398  0.00  0.00    -0.325 N 
ATOM      9  C14 UNL     1      11.105   2.906  21.729  0.00  0.00    +0.124 C 
ATOM     10  C15 UNL     1      12.505   2.513  22.208  0.00  0.00    +0.127 C 
ATOM     11  N5  UNL     1      14.291   0.835  24.225  0.00  0.00    -0.296 N 
ENDROOT
BRANCH   8  12
ATOM     12  C8  UNL     1       9.467   4.809  21.888  0.00  0.00    +0.065 A 
ATOM     13  C9  UNL     1       9.615   5.953  21.084  0.00  0.00    +0.026 A 
ATOM     14  C10 UNL     1       8.491   6.617  20.583  0.00  0.00    +0.002 A 
ATOM     15  C11 UNL     1       7.210   6.147  20.882  0.00  0.00    +0.003 A 
ATOM     16  C12 UNL     1       7.050   5.017  21.685  0.00  0.00    +0.040 A 
ATOM     17  C13 UNL     1       8.171   4.346  22.189  0.00  0.00    +0.144 A 
ATOM     18  F1  UNL     1       7.986   3.271  22.994  0.00  0.00    -0.204 F 
ENDBRANCH   8  12
BRANCH   1  20
ATOM     19  C1  UNL     1      16.109  -0.779  26.738  0.00  0.00    +0.015 C 
ATOM     20  C2  UNL     1      15.449  -1.112  25.397  0.00  0.00    +0.051 C 
ATOM     21  C3  UNL     1      14.957  -2.562  25.377  0.00  0.00    +0.015 C 
ENDBRANCH   1  20
BRANCH  11  22
ATOM     22  C16 UNL     1      15.406   1.326  23.402  0.00  0.00    +0.157 C 
BRANCH  22  23
ATOM     23  C17 UNL     1      15.560   0.520  22.102  0.00  0.00    +0.138 C 
ATOM     24  C18 UNL     1      16.786  -0.424  22.172  0.00  0.00    +0.033 C 
ATOM     25  C19 UNL     1      16.934  -1.227  20.872  0.00  0.00    +0.005 C 
ATOM     26  C20 UNL     1      16.380  -0.466  19.661  0.00  0.00    +0.028 C 
ATOM     27  C21 UNL     1      16.408   1.044  19.918  0.00  0.00    +0.160 C 
ATOM     28  O1  UNL     1      15.598   1.445  21.015  0.00  0.00    -0.375 OA
ENDBRANCH  22  23
ENDBRANCH  11  22
TORSDOF 4
ENDMDL
MODEL 7
REMARK VINA RESULT:    -6.048      9.440     13.072
REMARK INTER + INTRA:          -8.054
REMARK INTER:                  -7.286
REMARK INTRA:                  -0.768
REMARK UNBOUND:                -0.592
REMARK  Name = /home/qwerty/github/datacon2025hack/step_04_hit_selection/docking/ligands/lig_338.pdb
REMARK  6 active torsions:
REMARK  status: ('A' for Active; 'I' for Inactive)
REMARK    1  A    between atoms: C1_1  and  C2_2
REMARK    2  A    between atoms: C2_2  and  C3_3
REMARK    3  A    between atoms: C2_2  and  C4_4
REMARK    4  A    between atoms: N4_11  and  C8_12
REMARK    5  A    between atoms: N5_21  and  C16_22
REMARK    6  A    between atoms: C16_22  and  C17_23
REMARK                            x       y       z     vdW  Elec       q    Type
REMARK                         _______ _______ _______ _____ _____    ______ ____
ROOT
ATOM      1  C4  UNL     1       8.854   5.659  21.335  0.00  0.00    +0.137 A 
ATOM      2  N1  UNL     1       8.422   4.561  21.988  0.00  0.00    -0.132 NA
ATOM      3  N2  UNL     1       9.456   3.744  22.114  0.00  0.00    -0.113 NA
ATOM      4  C5  UNL     1      10.509   4.361  21.545  0.00  0.00    +0.220 A 
ATOM      5  N3  UNL     1      11.811   3.760  21.461  0.00  0.00    -0.297 N 
ATOM      6  C6  UNL     1      11.914   2.362  21.021  0.00  0.00    +0.127 C 
ATOM      7  C7  UNL     1      13.367   1.877  21.022  0.00  0.00    +0.124 C 
ATOM      8  N4  UNL     1      14.018   2.222  22.294  0.00  0.00    -0.325 N 
ATOM      9  C14 UNL     1      13.774   3.532  22.920  0.00  0.00    +0.124 C 
ATOM     10  C15 UNL     1      12.989   4.459  21.987  0.00  0.00    +0.127 C 
ATOM     11  N5  UNL     1      10.172   5.569  21.037  0.00  0.00    -0.296 N 
ENDROOT
BRANCH   8  12
ATOM     12  C8  UNL     1      14.967   1.318  22.894  0.00  0.00    +0.065 A 
ATOM     13  C9  UNL     1      14.524   0.309  23.768  0.00  0.00    +0.026 A 
ATOM     14  C10 UNL     1      15.437  -0.574  24.352  0.00  0.00    +0.002 A 
ATOM     15  C11 UNL     1      16.800  -0.458  24.072  0.00  0.00    +0.003 A 
ATOM     16  C12 UNL     1      17.254   0.544  23.212  0.00  0.00    +0.040 A 
ATOM     17  C13 UNL     1      16.345   1.431  22.623  0.00  0.00    +0.144 A 
ATOM     18  F1  UNL     1      16.817   2.415  21.818  0.00  0.00    -0.204 F 
ENDBRANCH   8  12
BRANCH   1  20
ATOM     19  C1  UNL     1       6.531   6.312  20.701  0.00  0.00    +0.015 C 
ATOM     20  C2  UNL     1       7.948   6.817  20.987  0.00  0.00    +0.051 C 
ATOM     21  C3  UNL     1       7.942   7.841  22.125  0.00  0.00    +0.015 C 
ENDBRANCH   1  20
BRANCH  11  22
ATOM     22  C16 UNL     1      10.982   6.477  20.213  0.00  0.00    +0.157 C 
BRANCH  22  23
ATOM     23  C17 UNL     1      11.177   7.846  20.887  0.00  0.00    +0.138 C 
ATOM     24  C18 UNL     1      10.975   9.000  19.873  0.00  0.00    +0.033 C 
ATOM     25  C19 UNL     1      11.169  10.363  20.551  0.00  0.00    +0.005 C 
ATOM     26  C20 UNL     1      12.148  10.285  21.730  0.00  0.00    +0.028 C 
ATOM     27  C21 UNL     1      13.110   9.106  21.550  0.00  0.00    +0.160 C 
ATOM     28  O1  UNL     1      12.456   7.844  21.520  0.00  0.00    -0.375 OA
ENDBRANCH  22  23
ENDBRANCH  11  22
TORSDOF 4
ENDMDL
MODEL 8
REMARK VINA RESULT:    -6.037     13.270     15.385
REMARK INTER + INTRA:          -8.041
REMARK INTER:                  -7.349
REMARK INTRA:                  -0.692
REMARK UNBOUND:                -0.592
REMARK  Name = /home/qwerty/github/datacon2025hack/step_04_hit_selection/docking/ligands/lig_338.pdb
REMARK  6 active torsions:
REMARK  status: ('A' for Active; 'I' for Inactive)
REMARK    1  A    between atoms: C1_1  and  C2_2
REMARK    2  A    between atoms: C2_2  and  C3_3
REMARK    3  A    between atoms: C2_2  and  C4_4
REMARK    4  A    between atoms: N4_11  and  C8_12
REMARK    5  A    between atoms: N5_21  and  C16_22
REMARK    6  A    between atoms: C16_22  and  C17_23
REMARK                            x       y       z     vdW  Elec       q    Type
REMARK                         _______ _______ _______ _____ _____    ______ ____
ROOT
ATOM      1  C4  UNL     1       8.660   6.398  23.326  0.00  0.00    +0.137 A 
ATOM      2  N1  UNL     1       9.306   5.794  24.344  0.00  0.00    -0.132 NA
ATOM      3  N2  UNL     1       9.726   6.745  25.163  0.00  0.00    -0.113 NA
ATOM      4  C5  UNL     1       9.319   7.916  24.639  0.00  0.00    +0.220 A 
ATOM      5  N3  UNL     1       9.621   9.185  25.242  0.00  0.00    -0.297 N 
ATOM      6  C6  UNL     1      10.994   9.437  25.702  0.00  0.00    +0.127 C 
ATOM      7  C7  UNL     1      11.126  10.821  26.345  0.00  0.00    +0.124 C 
ATOM      8  N4  UNL     1      10.049  11.033  27.323  0.00  0.00    -0.325 N 
ATOM      9  C14 UNL     1       8.678  10.590  27.022  0.00  0.00    +0.124 C 
ATOM     10  C15 UNL     1       8.546  10.129  25.568  0.00  0.00    +0.127 C 
ATOM     11  N5  UNL     1       8.648   7.744  23.478  0.00  0.00    -0.296 N 
ENDROOT
BRANCH   8  12
ATOM     12  C8  UNL     1      10.307  11.755  28.544  0.00  0.00    +0.065 A 
ATOM     13  C9  UNL     1      10.593  11.054  29.730  0.00  0.00    +0.026 A 
ATOM     14  C10 UNL     1      10.847  11.746  30.918  0.00  0.00    +0.002 A 
ATOM     15  C11 UNL     1      10.817  13.142  30.935  0.00  0.00    +0.003 A 
ATOM     16  C12 UNL     1      10.528  13.849  29.767  0.00  0.00    +0.040 A 
ATOM     17  C13 UNL     1      10.273  13.164  28.573  0.00  0.00    +0.144 A 
ATOM     18  F1  UNL     1       9.962  13.875  27.461  0.00  0.00    -0.204 F 
ENDBRANCH   8  12
BRANCH   1  20
ATOM     19  C1  UNL     1       9.140   5.214  21.182  0.00  0.00    +0.015 C 
ATOM     20  C2  UNL     1       8.051   5.635  22.173  0.00  0.00    +0.051 C 
ATOM     21  C3  UNL     1       7.289   4.414  22.694  0.00  0.00    +0.015 C 
ENDBRANCH   1  20
BRANCH  11  22
ATOM     22  C16 UNL     1       8.178   8.762  22.528  0.00  0.00    +0.157 C 
BRANCH  22  23
ATOM     23  C17 UNL     1       9.153   8.946  21.353  0.00  0.00    +0.138 C 
ATOM     24  C18 UNL     1      10.621   8.985  21.847  0.00  0.00    +0.033 C 
ATOM     25  C19 UNL     1      11.590   9.168  20.670  0.00  0.00    +0.005 C 
ATOM     26  C20 UNL     1      10.948   9.944  19.513  0.00  0.00    +0.028 C 
ATOM     27  C21 UNL     1       9.815  10.837  20.030  0.00  0.00    +0.160 C 
ATOM     28  O1  UNL     1       8.751  10.108  20.628  0.00  0.00    -0.375 OA
ENDBRANCH  22  23
ENDBRANCH  11  22
TORSDOF 4
ENDMDL
MODEL 9
REMARK VINA RESULT:    -6.008      9.539     12.057
REMARK INTER + INTRA:          -8.005
REMARK INTER:                  -7.059
REMARK INTRA:                  -0.946
REMARK UNBOUND:                -0.592
REMARK  Name = /home/qwerty/github/datacon2025hack/step_04_hit_selection/docking/ligands/lig_338.pdb
REMARK  6 active torsions:
REMARK  status: ('A' for Active; 'I' for Inactive)
REMARK    1  A    between atoms: C1_1  and  C2_2
REMARK    2  A    between atoms: C2_2  and  C3_3
REMARK    3  A    between atoms: C2_2  and  C4_4
REMARK    4  A    between atoms: N4_11  and  C8_12
REMARK    5  A    between atoms: N5_21  and  C16_22
REMARK    6  A    between atoms: C16_22  and  C17_23
REMARK                            x       y       z     vdW  Elec       q    Type
REMARK                         _______ _______ _______ _____ _____    ______ ____
ROOT
ATOM      1  C4  UNL     1      14.432   2.271  20.917  0.00  0.00    +0.137 A 
ATOM      2  N1  UNL     1      14.900   3.273  20.145  0.00  0.00    -0.132 NA
ATOM      3  N2  UNL     1      13.978   4.223  20.132  0.00  0.00    -0.113 NA
ATOM      4  C5  UNL     1      12.965   3.791  20.906  0.00  0.00    +0.220 A 
ATOM      5  N3  UNL     1      11.761   4.549  21.106  0.00  0.00    -0.297 N 
ATOM      6  C6  UNL     1      11.108   5.155  19.937  0.00  0.00    +0.127 C 
ATOM      7  C7  UNL     1       9.861   5.950  20.338  0.00  0.00    +0.124 C 
ATOM      8  N4  UNL     1      10.168   6.844  21.464  0.00  0.00    -0.325 N 
ATOM      9  C14 UNL     1      11.019   6.377  22.571  0.00  0.00    +0.124 C 
ATOM     10  C15 UNL     1      11.303   4.876  22.461  0.00  0.00    +0.127 C 
ATOM     11  N5  UNL     1      13.208   2.562  21.417  0.00  0.00    -0.296 N 
ENDROOT
BRANCH   8  12
ATOM     12  C8  UNL     1       9.568   8.153  21.537  0.00  0.00    +0.065 A 
ATOM     13  C9  UNL     1       8.587   8.424  22.508  0.00  0.00    +0.026 A 
ATOM     14  C10 UNL     1       8.001   9.691  22.588  0.00  0.00    +0.002 A 
ATOM     15  C11 UNL     1       8.387  10.698  21.700  0.00  0.00    +0.003 A 
ATOM     16  C12 UNL     1       9.355  10.439  20.728  0.00  0.00    +0.040 A 
ATOM     17  C13 UNL     1       9.946   9.174  20.642  0.00  0.00    +0.144 A 
ATOM     18  F1  UNL     1      10.859   8.940  19.667  0.00  0.00    -0.204 F 
ENDBRANCH   8  12
BRANCH   1  20
ATOM     19  C1  UNL     1      15.807   0.483  19.848  0.00  0.00    +0.015 C 
ATOM     20  C2  UNL     1      15.202   0.994  21.159  0.00  0.00    +0.051 C 
ATOM     21  C3  UNL     1      16.294   1.228  22.207  0.00  0.00    +0.015 C 
ENDBRANCH   1  20
BRANCH  11  22
ATOM     22  C16 UNL     1      12.303   1.687  22.174  0.00  0.00    +0.157 C 
BRANCH  22  23
ATOM     23  C17 UNL     1      12.658   1.647  23.670  0.00  0.00    +0.138 C 
ATOM     24  C18 UNL     1      13.188   0.251  24.080  0.00  0.00    +0.033 C 
ATOM     25  C19 UNL     1      13.543   0.217  25.573  0.00  0.00    +0.005 C 
ATOM     26  C20 UNL     1      12.686   1.194  26.389  0.00  0.00    +0.028 C 
ATOM     27  C21 UNL     1      11.356   1.463  25.678  0.00  0.00    +0.160 C 
ATOM     28  O1  UNL     1      11.511   2.074  24.404  0.00  0.00    -0.375 OA
ENDBRANCH  22  23
ENDBRANCH  11  22
TORSDOF 4
ENDMDL
