REMARK  Name = /home/qwerty/github/datacon2025hack/step_04_hit_selection/docking/ligands/lig_374.pdb
REMARK  2 active torsions:
REMARK  status: ('A' for Active; 'I' for Inactive)
REMARK    1  A    between atoms: C1_2  and  C11_16
REMARK    2  A    between atoms: C3_6  and  C4_7
REMARK                            x       y       z     vdW  Elec       q    Type
REMARK                         _______ _______ _______ _____ _____    ______ ____
ROOT
ATOM      1  O1  UNL     1       1.560  -2.494   0.837  0.00  0.00    -0.270 OA
ATOM      2  C1  UNL     1       1.715  -1.285   0.514  0.00  0.00    +0.250 C 
ATOM      3  N1  UNL     1       0.566  -0.447   0.300  0.00  0.00    -0.261 N 
ATOM      4  C2  UNL     1      -0.751  -0.942   0.020  0.00  0.00    +0.165 A 
ATOM      5  N2  UNL     1      -1.835  -0.139  -0.005  0.00  0.00    -0.225 NA
ATOM      6  C3  UNL     1      -2.973  -0.814  -0.335  0.00  0.00    +0.080 A 
ATOM      7  C10 UNL     1      -2.782  -2.177  -0.590  0.00  0.00    +0.076 A 
ATOM      8  S1  UNL     1      -1.148  -2.524  -0.392  0.00  0.00    -0.060 S 
ATOM      9  H1  UNL     1       0.675   0.587   0.396  0.00  0.00    +0.157 HD
ENDROOT
BRANCH   2  10
ATOM     10  C11 UNL     1       3.088  -0.736   0.402  0.00  0.00    +0.041 A 
ATOM     11  C12 UNL     1       4.175  -1.406   1.028  0.00  0.00    +0.017 A 
ATOM     12  C13 UNL     1       5.485  -0.902   0.926  0.00  0.00    +0.050 A 
ATOM     13  C14 UNL     1       5.678   0.261   0.190  0.00  0.00    +0.166 A 
ATOM     14  C15 UNL     1       4.651   0.904  -0.418  0.00  0.00    +0.167 A 
ATOM     15  C16 UNL     1       3.340   0.442  -0.343  0.00  0.00    +0.062 A 
ATOM     16  O2  UNL     1       5.132   2.018  -1.080  0.00  0.00    -0.453 OA
ATOM     17  C17 UNL     1       6.550   2.079  -0.870  0.00  0.00    +0.466 C 
ATOM     18  O3  UNL     1       6.856   0.939  -0.055  0.00  0.00    -0.453 OA
ENDBRANCH   2  10
BRANCH   6  19
ATOM     19  C4  UNL     1      -4.285  -0.120  -0.423  0.00  0.00    +0.004 A 
ATOM     20  C5  UNL     1      -4.333   1.288  -0.430  0.00  0.00    +0.010 A 
ATOM     21  C6  UNL     1      -5.558   1.957  -0.511  0.00  0.00    +0.003 A 
ATOM     22  C7  UNL     1      -6.749   1.234  -0.581  0.00  0.00    +0.038 A 
ATOM     23  C8  UNL     1      -6.719  -0.162  -0.569  0.00  0.00    +0.124 A 
ATOM     24  F1  UNL     1      -7.878  -0.863  -0.629  0.00  0.00    -0.205 F 
ATOM     25  C9  UNL     1      -5.497  -0.838  -0.489  0.00  0.00    +0.048 A 
ENDBRANCH   6  19
TORSDOF 2
