MODEL 1
REMARK VINA RESULT:    -7.873      0.000      0.000
REMARK INTER + INTRA:         -11.188
REMARK INTER:                 -10.174
REMARK INTRA:                  -1.013
REMARK UNBOUND:                -1.013
REMARK  Name = /home/qwerty/github/datacon2025hack/step_04_hit_selection/docking/ligands/lig_557.pdb
REMARK  6 active torsions:
REMARK  status: ('A' for Active; 'I' for Inactive)
REMARK    1  A    between atoms: C1_1  and  N1_2
REMARK    2  A    between atoms: C3_4  and  N2_5
REMARK    3  A    between atoms: C4_6  and  C5_8
REMARK    4  A    between atoms: C8_11  and  C9_12
REMARK    5  A    between atoms: C12_17  and  C13_18
REMARK    6  A    between atoms: C16_21  and  C17_22
REMARK                            x       y       z     vdW  Elec       q    Type
REMARK                         _______ _______ _______ _____ _____    ______ ____
ROOT
ATOM      1  C9  UNL     1      16.517  13.053  35.304  0.00  0.00    +0.077 A 
ATOM      2  C10 UNL     1      16.287  13.878  36.417  0.00  0.00    +0.071 A 
ATOM      3  C11 UNL     1      15.142  14.678  36.437  0.00  0.00    +0.121 A 
ATOM      4  N3  UNL     1      14.871  15.529  37.550  0.00  0.00    -0.343 N 
ATOM      5  N4  UNL     1      14.275  14.639  35.393  0.00  0.00    -0.213 NA
ATOM      6  C12 UNL     1      14.493  13.832  34.320  0.00  0.00    +0.162 A 
ATOM      7  N5  UNL     1      15.607  13.051  34.291  0.00  0.00    -0.227 NA
ATOM      8  H9  UNL     1      15.524  15.573  38.364  0.00  0.00    +0.144 HD
ATOM      9  H10 UNL     1      14.013  16.123  37.562  0.00  0.00    +0.144 HD
ENDROOT
BRANCH   1  13
ATOM     10  C5  UNL     1      19.961  10.469  35.001  0.00  0.00    +0.037 A 
ATOM     11  C6  UNL     1      19.956  11.541  35.911  0.00  0.00    +0.014 A 
ATOM     12  C7  UNL     1      18.846  12.384  36.012  0.00  0.00    +0.011 A 
ATOM     13  C8  UNL     1      17.708  12.169  35.214  0.00  0.00    +0.001 A 
ATOM     14  C25 UNL     1      17.717  11.101  34.300  0.00  0.00    +0.011 A 
ATOM     15  C26 UNL     1      18.827  10.258  34.200  0.00  0.00    +0.014 A 
BRANCH  10  17
ATOM     16  N2  UNL     1      21.622   9.134  33.617  0.00  0.00    -0.279 N 
ATOM     17  C4  UNL     1      21.129   9.560  34.897  0.00  0.00    +0.248 C 
ATOM     18  O1  UNL     1      21.670   9.129  35.952  0.00  0.00    -0.270 OA
ATOM     19  H5  UNL     1      20.970   9.143  32.800  0.00  0.00    +0.155 HD
BRANCH  16  23
ATOM     20  C1  UNL     1      25.445   6.017  33.314  0.00  0.00    +0.172 C 
ATOM     21  N1  UNL     1      24.639   7.229  33.273  0.00  0.00    -0.273 N 
ATOM     22  C2  UNL     1      23.360   7.333  33.679  0.00  0.00    +0.131 A 
ATOM     23  C3  UNL     1      22.942   8.615  33.403  0.00  0.00    +0.072 A 
ATOM     24  C27 UNL     1      24.017   9.241  32.794  0.00  0.00    +0.157 A 
ATOM     25  N6  UNL     1      25.041   8.366  32.724  0.00  0.00    -0.178 NA
ENDBRANCH  16  23
ENDBRANCH  10  17
ENDBRANCH   1  13
BRANCH   6  26
ATOM     26  C13 UNL     1      13.526  13.799  33.195  0.00  0.00    +0.019 A 
ATOM     27  C14 UNL     1      13.893  13.251  31.951  0.00  0.00    +0.012 A 
ATOM     28  C15 UNL     1      12.981  13.216  30.893  0.00  0.00    +0.009 A 
ATOM     29  C16 UNL     1      11.681  13.727  31.052  0.00  0.00    -0.018 A 
ATOM     30  C23 UNL     1      11.315  14.277  32.293  0.00  0.00    +0.009 A 
ATOM     31  C24 UNL     1      12.227  14.311  33.352  0.00  0.00    +0.012 A 
BRANCH  29  32
ATOM     32  C17 UNL     1      10.711  13.686  29.928  0.00  0.00    -0.018 A 
ATOM     33  C18 UNL     1       9.353  13.398  30.165  0.00  0.00    +0.008 A 
ATOM     34  C19 UNL     1       8.442  13.361  29.103  0.00  0.00    +0.001 A 
ATOM     35  C20 UNL     1       8.875  13.609  27.799  0.00  0.00    +0.000 A 
ATOM     36  C21 UNL     1      10.219  13.895  27.552  0.00  0.00    +0.001 A 
ATOM     37  C22 UNL     1      11.134  13.935  28.608  0.00  0.00    +0.008 A 
ENDBRANCH  29  32
ENDBRANCH   6  26
TORSDOF 5
ENDMDL
MODEL 2
REMARK VINA RESULT:    -7.842      4.317     11.831
REMARK INTER + INTRA:         -11.148
REMARK INTER:                 -10.091
REMARK INTRA:                  -1.058
REMARK UNBOUND:                -1.013
REMARK  Name = /home/qwerty/github/datacon2025hack/step_04_hit_selection/docking/ligands/lig_557.pdb
REMARK  6 active torsions:
REMARK  status: ('A' for Active; 'I' for Inactive)
REMARK    1  A    between atoms: C1_1  and  N1_2
REMARK    2  A    between atoms: C3_4  and  N2_5
REMARK    3  A    between atoms: C4_6  and  C5_8
REMARK    4  A    between atoms: C8_11  and  C9_12
REMARK    5  A    between atoms: C12_17  and  C13_18
REMARK    6  A    between atoms: C16_21  and  C17_22
REMARK                            x       y       z     vdW  Elec       q    Type
REMARK                         _______ _______ _______ _____ _____    ______ ____
ROOT
ATOM      1  C9  UNL     1      20.360   7.878  36.105  0.00  0.00    +0.077 A 
ATOM      2  C10 UNL     1      21.413   7.887  37.034  0.00  0.00    +0.071 A 
ATOM      3  C11 UNL     1      22.492   7.021  36.836  0.00  0.00    +0.121 A 
ATOM      4  N3  UNL     1      23.583   6.999  37.757  0.00  0.00    -0.343 N 
ATOM      5  N4  UNL     1      22.507   6.200  35.755  0.00  0.00    -0.213 NA
ATOM      6  C12 UNL     1      21.491   6.201  34.850  0.00  0.00    +0.162 A 
ATOM      7  N5  UNL     1      20.435   7.039  35.036  0.00  0.00    -0.227 NA
ATOM      8  H9  UNL     1      23.592   7.623  38.594  0.00  0.00    +0.144 HD
ATOM      9  H10 UNL     1      24.387   6.352  37.603  0.00  0.00    +0.144 HD
ENDROOT
BRANCH   1  13
ATOM     10  C5  UNL     1      16.957  10.496  36.553  0.00  0.00    +0.037 A 
ATOM     11  C6  UNL     1      17.389  10.107  35.273  0.00  0.00    +0.014 A 
ATOM     12  C7  UNL     1      18.492   9.263  35.120  0.00  0.00    +0.011 A 
ATOM     13  C8  UNL     1      19.184   8.776  36.244  0.00  0.00    +0.001 A 
ATOM     14  C25 UNL     1      18.755   9.171  37.523  0.00  0.00    +0.011 A 
ATOM     15  C26 UNL     1      17.651  10.015  37.676  0.00  0.00    +0.014 A 
BRANCH  10  17
ATOM     16  N2  UNL     1      14.618  11.234  35.892  0.00  0.00    -0.279 N 
ATOM     17  C4  UNL     1      15.778  11.380  36.725  0.00  0.00    +0.248 C 
ATOM     18  O1  UNL     1      15.815  12.294  37.595  0.00  0.00    -0.270 OA
ATOM     19  H5  UNL     1      14.727  10.790  34.952  0.00  0.00    +0.155 HD
BRANCH  16  23
ATOM     20  C1  UNL     1      10.452  13.893  35.837  0.00  0.00    +0.172 C 
ATOM     21  N1  UNL     1      11.472  12.923  36.211  0.00  0.00    -0.273 N 
ATOM     22  C2  UNL     1      12.696  12.822  35.661  0.00  0.00    +0.131 A 
ATOM     23  C3  UNL     1      13.319  11.738  36.236  0.00  0.00    +0.072 A 
ATOM     24  C27 UNL     1      12.400  11.197  37.118  0.00  0.00    +0.157 A 
ATOM     25  N6  UNL     1      11.276  11.941  37.078  0.00  0.00    -0.178 NA
ENDBRANCH  16  23
ENDBRANCH  10  17
ENDBRANCH   1  13
BRANCH   6  26
ATOM     26  C13 UNL     1      21.533   5.300  33.671  0.00  0.00    +0.019 A 
ATOM     27  C14 UNL     1      21.413   5.820  32.369  0.00  0.00    +0.012 A 
ATOM     28  C15 UNL     1      21.458   4.973  31.259  0.00  0.00    +0.009 A 
ATOM     29  C16 UNL     1      21.625   3.587  31.423  0.00  0.00    -0.018 A 
ATOM     30  C23 UNL     1      21.743   3.067  32.723  0.00  0.00    +0.009 A 
ATOM     31  C24 UNL     1      21.699   3.914  33.834  0.00  0.00    +0.012 A 
BRANCH  29  32
ATOM     32  C17 UNL     1      21.677   2.687  30.242  0.00  0.00    -0.018 A 
ATOM     33  C18 UNL     1      21.760   1.291  30.408  0.00  0.00    +0.008 A 
ATOM     34  C19 UNL     1      21.808   0.447  29.294  0.00  0.00    +0.001 A 
ATOM     35  C20 UNL     1      21.776   0.985  28.005  0.00  0.00    +0.000 A 
ATOM     36  C21 UNL     1      21.696   2.368  27.828  0.00  0.00    +0.001 A 
ATOM     37  C22 UNL     1      21.645   3.216  28.937  0.00  0.00    +0.008 A 
ENDBRANCH  29  32
ENDBRANCH   6  26
TORSDOF 5
ENDMDL
MODEL 3
REMARK VINA RESULT:    -7.764     11.743     16.327
REMARK INTER + INTRA:         -11.047
REMARK INTER:                 -10.076
REMARK INTRA:                  -0.971
REMARK UNBOUND:                -1.013
REMARK  Name = /home/qwerty/github/datacon2025hack/step_04_hit_selection/docking/ligands/lig_557.pdb
REMARK  6 active torsions:
REMARK  status: ('A' for Active; 'I' for Inactive)
REMARK    1  A    between atoms: C1_1  and  N1_2
REMARK    2  A    between atoms: C3_4  and  N2_5
REMARK    3  A    between atoms: C4_6  and  C5_8
REMARK    4  A    between atoms: C8_11  and  C9_12
REMARK    5  A    between atoms: C12_17  and  C13_18
REMARK    6  A    between atoms: C16_21  and  C17_22
REMARK                            x       y       z     vdW  Elec       q    Type
REMARK                         _______ _______ _______ _____ _____    ______ ____
ROOT
ATOM      1  C9  UNL     1       8.923   6.189  22.440  0.00  0.00    +0.077 A 
ATOM      2  C10 UNL     1       7.805   5.984  21.616  0.00  0.00    +0.071 A 
ATOM      3  C11 UNL     1       7.822   4.919  20.711  0.00  0.00    +0.121 A 
ATOM      4  N3  UNL     1       6.706   4.675  19.856  0.00  0.00    -0.343 N 
ATOM      5  N4  UNL     1       8.907   4.104  20.651  0.00  0.00    -0.213 NA
ATOM      6  C12 UNL     1       9.985   4.298  21.458  0.00  0.00    +0.162 A 
ATOM      7  N5  UNL     1       9.978   5.334  22.340  0.00  0.00    -0.227 NA
ATOM      8  H9  UNL     1       5.861   5.289  19.887  0.00  0.00    +0.144 HD
ATOM      9  H10 UNL     1       6.723   3.876  19.184  0.00  0.00    +0.144 HD
ENDROOT
BRANCH   1  13
ATOM     10  C5  UNL     1       9.079   9.369  25.355  0.00  0.00    +0.037 A 
ATOM     11  C6  UNL     1       9.268   9.648  23.990  0.00  0.00    +0.014 A 
ATOM     12  C7  UNL     1       9.222   8.623  23.041  0.00  0.00    +0.011 A 
ATOM     13  C8  UNL     1       8.975   7.295  23.432  0.00  0.00    +0.001 A 
ATOM     14  C25 UNL     1       8.793   7.017  24.798  0.00  0.00    +0.011 A 
ATOM     15  C26 UNL     1       8.838   8.042  25.746  0.00  0.00    +0.014 A 
BRANCH  10  17
ATOM     16  N2  UNL     1      10.257  10.639  27.213  0.00  0.00    -0.279 N 
ATOM     17  C4  UNL     1       9.111  10.452  26.368  0.00  0.00    +0.248 C 
ATOM     18  O1  UNL     1       8.101  11.194  26.509  0.00  0.00    -0.270 OA
ATOM     19  H5  UNL     1      10.891   9.827  27.387  0.00  0.00    +0.155 HD
BRANCH  16  23
ATOM     20  C1  UNL     1      11.947  15.173  28.221  0.00  0.00    +0.172 C 
ATOM     21  N1  UNL     1      11.302  13.875  28.351  0.00  0.00    -0.273 N 
ATOM     22  C2  UNL     1      11.341  12.885  27.439  0.00  0.00    +0.131 A 
ATOM     23  C3  UNL     1      10.547  11.862  27.906  0.00  0.00    +0.072 A 
ATOM     24  C27 UNL     1      10.023  12.307  29.107  0.00  0.00    +0.157 A 
ATOM     25  N6  UNL     1      10.499  13.545  29.352  0.00  0.00    -0.178 NA
ENDBRANCH  16  23
ENDBRANCH  10  17
ENDBRANCH   1  13
BRANCH   6  26
ATOM     26  C13 UNL     1      11.155   3.389  21.380  0.00  0.00    +0.019 A 
ATOM     27  C14 UNL     1      11.226   2.242  22.192  0.00  0.00    +0.012 A 
ATOM     28  C15 UNL     1      12.325   1.383  22.115  0.00  0.00    +0.009 A 
ATOM     29  C16 UNL     1      13.380   1.649  21.226  0.00  0.00    -0.018 A 
ATOM     30  C23 UNL     1      13.311   2.796  20.416  0.00  0.00    +0.009 A 
ATOM     31  C24 UNL     1      12.211   3.655  20.491  0.00  0.00    +0.012 A 
BRANCH  29  32
ATOM     32  C17 UNL     1      14.547   0.734  21.141  0.00  0.00    -0.018 A 
ATOM     33  C18 UNL     1      15.339   0.687  19.978  0.00  0.00    +0.008 A 
ATOM     34  C19 UNL     1      16.437  -0.175  19.903  0.00  0.00    +0.001 A 
ATOM     35  C20 UNL     1      16.756  -1.000  20.984  0.00  0.00    +0.000 A 
ATOM     36  C21 UNL     1      15.977  -0.964  22.143  0.00  0.00    +0.001 A 
ATOM     37  C22 UNL     1      14.879  -0.103  22.225  0.00  0.00    +0.008 A 
ENDBRANCH  29  32
ENDBRANCH   6  26
TORSDOF 5
ENDMDL
MODEL 4
REMARK VINA RESULT:    -7.632     10.286     14.225
REMARK INTER + INTRA:         -10.877
REMARK INTER:                  -9.824
REMARK INTRA:                  -1.052
REMARK UNBOUND:                -1.013
REMARK  Name = /home/qwerty/github/datacon2025hack/step_04_hit_selection/docking/ligands/lig_557.pdb
REMARK  6 active torsions:
REMARK  status: ('A' for Active; 'I' for Inactive)
REMARK    1  A    between atoms: C1_1  and  N1_2
REMARK    2  A    between atoms: C3_4  and  N2_5
REMARK    3  A    between atoms: C4_6  and  C5_8
REMARK    4  A    between atoms: C8_11  and  C9_12
REMARK    5  A    between atoms: C12_17  and  C13_18
REMARK    6  A    between atoms: C16_21  and  C17_22
REMARK                            x       y       z     vdW  Elec       q    Type
REMARK                         _______ _______ _______ _____ _____    ______ ____
ROOT
ATOM      1  C9  UNL     1      21.799   2.635  27.780  0.00  0.00    +0.077 A 
ATOM      2  C10 UNL     1      21.805   1.232  27.833  0.00  0.00    +0.071 A 
ATOM      3  C11 UNL     1      21.814   0.605  29.082  0.00  0.00    +0.121 A 
ATOM      4  N3  UNL     1      21.821  -0.819  29.179  0.00  0.00    -0.343 N 
ATOM      5  N4  UNL     1      21.810   1.358  30.213  0.00  0.00    -0.213 NA
ATOM      6  C12 UNL     1      21.793   2.717  30.159  0.00  0.00    +0.162 A 
ATOM      7  N5  UNL     1      21.786   3.336  28.947  0.00  0.00    -0.227 NA
ATOM      8  H9  UNL     1      21.823  -1.416  28.322  0.00  0.00    +0.144 HD
ATOM      9  H10 UNL     1      21.825  -1.281  30.115  0.00  0.00    +0.144 HD
ENDROOT
BRANCH   1  13
ATOM     10  C5  UNL     1      21.786   4.794  24.043  0.00  0.00    +0.037 A 
ATOM     11  C6  UNL     1      20.928   3.696  24.230  0.00  0.00    +0.014 A 
ATOM     12  C7  UNL     1      20.929   2.990  25.436  0.00  0.00    +0.011 A 
ATOM     13  C8  UNL     1      21.779   3.372  26.490  0.00  0.00    +0.001 A 
ATOM     14  C25 UNL     1      22.641   4.466  26.298  0.00  0.00    +0.011 A 
ATOM     15  C26 UNL     1      22.639   5.173  25.092  0.00  0.00    +0.014 A 
BRANCH  10  17
ATOM     16  N2  UNL     1      22.497   6.798  22.652  0.00  0.00    -0.279 N 
ATOM     17  C4  UNL     1      21.781   5.559  22.771  0.00  0.00    +0.248 C 
ATOM     18  O1  UNL     1      21.107   5.129  21.795  0.00  0.00    -0.270 OA
ATOM     19  H5  UNL     1      22.702   7.346  23.519  0.00  0.00    +0.155 HD
BRANCH  16  23
ATOM     20  C1  UNL     1      24.944   7.686  18.451  0.00  0.00    +0.172 C 
ATOM     21  N1  UNL     1      23.976   7.772  19.535  0.00  0.00    -0.273 N 
ATOM     22  C2  UNL     1      24.014   7.062  20.678  0.00  0.00    +0.131 A 
ATOM     23  C3  UNL     1      22.885   7.379  21.398  0.00  0.00    +0.072 A 
ATOM     24  C27 UNL     1      22.176   8.276  20.618  0.00  0.00    +0.157 A 
ATOM     25  N6  UNL     1      22.867   8.495  19.480  0.00  0.00    -0.178 NA
ENDBRANCH  16  23
ENDBRANCH  10  17
ENDBRANCH   1  13
BRANCH   6  26
ATOM     26  C13 UNL     1      21.779   3.518  31.409  0.00  0.00    +0.019 A 
ATOM     27  C14 UNL     1      21.763   4.924  31.358  0.00  0.00    +0.012 A 
ATOM     28  C15 UNL     1      21.744   5.677  32.534  0.00  0.00    +0.009 A 
ATOM     29  C16 UNL     1      21.741   5.045  33.789  0.00  0.00    -0.018 A 
ATOM     30  C23 UNL     1      21.759   3.640  33.841  0.00  0.00    +0.009 A 
ATOM     31  C24 UNL     1      21.777   2.886  32.665  0.00  0.00    +0.012 A 
BRANCH  29  32
ATOM     32  C17 UNL     1      21.718   5.846  35.040  0.00  0.00    -0.018 A 
ATOM     33  C18 UNL     1      20.497   6.289  35.585  0.00  0.00    +0.008 A 
ATOM     34  C19 UNL     1      20.479   7.042  36.763  0.00  0.00    +0.001 A 
ATOM     35  C20 UNL     1      21.676   7.364  37.407  0.00  0.00    +0.000 A 
ATOM     36  C21 UNL     1      22.893   6.932  36.876  0.00  0.00    +0.001 A 
ATOM     37  C22 UNL     1      22.917   6.177  35.700  0.00  0.00    +0.008 A 
ENDBRANCH  29  32
ENDBRANCH   6  26
TORSDOF 5
ENDMDL
MODEL 5
REMARK VINA RESULT:    -7.566     12.436     18.058
REMARK INTER + INTRA:         -10.791
REMARK INTER:                  -9.760
REMARK INTRA:                  -1.031
REMARK UNBOUND:                -1.013
REMARK  Name = /home/qwerty/github/datacon2025hack/step_04_hit_selection/docking/ligands/lig_557.pdb
REMARK  6 active torsions:
REMARK  status: ('A' for Active; 'I' for Inactive)
REMARK    1  A    between atoms: C1_1  and  N1_2
REMARK    2  A    between atoms: C3_4  and  N2_5
REMARK    3  A    between atoms: C4_6  and  C5_8
REMARK    4  A    between atoms: C8_11  and  C9_12
REMARK    5  A    between atoms: C12_17  and  C13_18
REMARK    6  A    between atoms: C16_21  and  C17_22
REMARK                            x       y       z     vdW  Elec       q    Type
REMARK                         _______ _______ _______ _____ _____    ______ ____
ROOT
ATOM      1  C9  UNL     1      14.314   2.558  20.909  0.00  0.00    +0.077 A 
ATOM      2  C10 UNL     1      14.339   1.557  19.924  0.00  0.00    +0.071 A 
ATOM      3  C11 UNL     1      15.391   0.638  19.926  0.00  0.00    +0.121 A 
ATOM      4  N3  UNL     1      15.454  -0.395  18.943  0.00  0.00    -0.343 N 
ATOM      5  N4  UNL     1      16.357   0.722  20.876  0.00  0.00    -0.213 NA
ATOM      6  C12 UNL     1      16.326   1.686  21.835  0.00  0.00    +0.162 A 
ATOM      7  N5  UNL     1      15.306   2.588  21.840  0.00  0.00    -0.227 NA
ATOM      8  H9  UNL     1      14.719  -0.479  18.204  0.00  0.00    +0.144 HD
ATOM      9  H10 UNL     1      16.240  -1.081  18.951  0.00  0.00    +0.144 HD
ENDROOT
BRANCH   1  13
ATOM     10  C5  UNL     1      11.155   5.490  21.150  0.00  0.00    +0.037 A 
ATOM     11  C6  UNL     1      11.721   5.159  19.907  0.00  0.00    +0.014 A 
ATOM     12  C7  UNL     1      12.746   4.213  19.821  0.00  0.00    +0.011 A 
ATOM     13  C8  UNL     1      13.223   3.566  20.976  0.00  0.00    +0.001 A 
ATOM     14  C25 UNL     1      12.661   3.904  22.219  0.00  0.00    +0.011 A 
ATOM     15  C26 UNL     1      11.635   4.849  22.304  0.00  0.00    +0.014 A 
BRANCH  10  17
ATOM     16  N2  UNL     1      10.225   7.699  21.992  0.00  0.00    -0.279 N 
ATOM     17  C4  UNL     1      10.056   6.482  21.249  0.00  0.00    +0.248 C 
ATOM     18  O1  UNL     1       8.948   6.231  20.701  0.00  0.00    -0.270 OA
ATOM     19  H5  UNL     1      10.942   7.729  22.752  0.00  0.00    +0.155 HD
BRANCH  16  23
ATOM     20  C1  UNL     1       7.031  11.371  22.859  0.00  0.00    +0.172 C 
ATOM     21  N1  UNL     1       7.986  10.492  22.199  0.00  0.00    -0.273 N 
ATOM     22  C2  UNL     1       8.487   9.352  22.711  0.00  0.00    +0.131 A 
ATOM     23  C3  UNL     1       9.407   8.865  21.811  0.00  0.00    +0.072 A 
ATOM     24  C27 UNL     1       9.443   9.779  20.772  0.00  0.00    +0.157 A 
ATOM     25  N6  UNL     1       8.565  10.768  21.039  0.00  0.00    -0.178 NA
ENDBRANCH  16  23
ENDBRANCH  10  17
ENDBRANCH   1  13
BRANCH   6  26
ATOM     26  C13 UNL     1      17.389   1.753  22.869  0.00  0.00    +0.019 A 
ATOM     27  C14 UNL     1      17.692   0.629  23.659  0.00  0.00    +0.012 A 
ATOM     28  C15 UNL     1      18.696   0.690  24.628  0.00  0.00    +0.009 A 
ATOM     29  C16 UNL     1      19.422   1.877  24.832  0.00  0.00    -0.018 A 
ATOM     30  C23 UNL     1      19.118   3.001  24.045  0.00  0.00    +0.009 A 
ATOM     31  C24 UNL     1      18.114   2.940  23.074  0.00  0.00    +0.012 A 
BRANCH  29  32
ATOM     32  C17 UNL     1      20.492   1.941  25.859  0.00  0.00    -0.018 A 
ATOM     33  C18 UNL     1      21.492   2.930  25.792  0.00  0.00    +0.008 A 
ATOM     34  C19 UNL     1      22.498   2.987  26.762  0.00  0.00    +0.001 A 
ATOM     35  C20 UNL     1      22.518   2.060  27.807  0.00  0.00    +0.000 A 
ATOM     36  C21 UNL     1      21.532   1.074  27.884  0.00  0.00    +0.001 A 
ATOM     37  C22 UNL     1      20.523   1.013  26.918  0.00  0.00    +0.008 A 
ENDBRANCH  29  32
ENDBRANCH   6  26
TORSDOF 5
ENDMDL
MODEL 6
REMARK VINA RESULT:    -7.499     10.915     14.265
REMARK INTER + INTRA:         -10.704
REMARK INTER:                  -9.693
REMARK INTRA:                  -1.011
REMARK UNBOUND:                -1.013
REMARK  Name = /home/qwerty/github/datacon2025hack/step_04_hit_selection/docking/ligands/lig_557.pdb
REMARK  6 active torsions:
REMARK  status: ('A' for Active; 'I' for Inactive)
REMARK    1  A    between atoms: C1_1  and  N1_2
REMARK    2  A    between atoms: C3_4  and  N2_5
REMARK    3  A    between atoms: C4_6  and  C5_8
REMARK    4  A    between atoms: C8_11  and  C9_12
REMARK    5  A    between atoms: C12_17  and  C13_18
REMARK    6  A    between atoms: C16_21  and  C17_22
REMARK                            x       y       z     vdW  Elec       q    Type
REMARK                         _______ _______ _______ _____ _____    ______ ____
ROOT
ATOM      1  C9  UNL     1      21.622   1.792  28.117  0.00  0.00    +0.077 A 
ATOM      2  C10 UNL     1      22.268   0.555  27.962  0.00  0.00    +0.071 A 
ATOM      3  C11 UNL     1      22.231  -0.361  29.016  0.00  0.00    +0.121 A 
ATOM      4  N3  UNL     1      22.874  -1.629  28.899  0.00  0.00    -0.343 N 
ATOM      5  N4  UNL     1      21.570  -0.044  30.160  0.00  0.00    -0.213 NA
ATOM      6  C12 UNL     1      20.936   1.151  30.304  0.00  0.00    +0.162 A 
ATOM      7  N5  UNL     1      20.969   2.050  29.283  0.00  0.00    -0.227 NA
ATOM      8  H9  UNL     1      23.386  -1.893  28.028  0.00  0.00    +0.144 HD
ATOM      9  H10 UNL     1      22.841  -2.311  29.689  0.00  0.00    +0.144 HD
ENDROOT
BRANCH   1  13
ATOM     10  C5  UNL     1      21.551   4.775  24.998  0.00  0.00    +0.037 A 
ATOM     11  C6  UNL     1      22.738   4.079  25.286  0.00  0.00    +0.014 A 
ATOM     12  C7  UNL     1      22.769   3.114  26.297  0.00  0.00    +0.011 A 
ATOM     13  C8  UNL     1      21.612   2.813  27.037  0.00  0.00    +0.001 A 
ATOM     14  C25 UNL     1      20.428   3.515  26.752  0.00  0.00    +0.011 A 
ATOM     15  C26 UNL     1      20.396   4.479  25.740  0.00  0.00    +0.014 A 
BRANCH  10  17
ATOM     16  N2  UNL     1      22.550   5.873  22.935  0.00  0.00    -0.279 N 
ATOM     17  C4  UNL     1      21.504   5.790  23.917  0.00  0.00    +0.248 C 
ATOM     18  O1  UNL     1      20.548   6.613  23.884  0.00  0.00    -0.270 OA
ATOM     19  H5  UNL     1      23.496   5.500  23.177  0.00  0.00    +0.155 HD
BRANCH  16  23
ATOM     20  C1  UNL     1      23.014   9.106  19.227  0.00  0.00    +0.172 C 
ATOM     21  N1  UNL     1      22.605   7.954  20.017  0.00  0.00    -0.273 N 
ATOM     22  C2  UNL     1      22.903   7.746  21.313  0.00  0.00    +0.131 A 
ATOM     23  C3  UNL     1      22.399   6.514  21.660  0.00  0.00    +0.072 A 
ATOM     24  C27 UNL     1      21.824   6.001  20.510  0.00  0.00    +0.157 A 
ATOM     25  N6  UNL     1      21.969   6.904  19.518  0.00  0.00    -0.178 NA
ENDBRANCH  16  23
ENDBRANCH  10  17
ENDBRANCH   1  13
BRANCH   6  26
ATOM     26  C13 UNL     1      20.213   1.471  31.560  0.00  0.00    +0.019 A 
ATOM     27  C14 UNL     1      20.905   1.972  32.678  0.00  0.00    +0.012 A 
ATOM     28  C15 UNL     1      20.223   2.279  33.858  0.00  0.00    +0.009 A 
ATOM     29  C16 UNL     1      18.834   2.091  33.951  0.00  0.00    -0.018 A 
ATOM     30  C23 UNL     1      18.141   1.588  32.836  0.00  0.00    +0.009 A 
ATOM     31  C24 UNL     1      18.822   1.283  31.654  0.00  0.00    +0.012 A 
BRANCH  29  32
ATOM     32  C17 UNL     1      18.108   2.420  35.204  0.00  0.00    -0.018 A 
ATOM     33  C18 UNL     1      17.790   3.755  35.519  0.00  0.00    +0.008 A 
ATOM     34  C19 UNL     1      17.106   4.060  36.700  0.00  0.00    +0.001 A 
ATOM     35  C20 UNL     1      16.735   3.040  37.579  0.00  0.00    +0.000 A 
ATOM     36  C21 UNL     1      17.046   1.713  37.279  0.00  0.00    +0.001 A 
ATOM     37  C22 UNL     1      17.728   1.401  36.099  0.00  0.00    +0.008 A 
ENDBRANCH  29  32
ENDBRANCH   6  26
TORSDOF 5
ENDMDL
MODEL 7
REMARK VINA RESULT:    -7.472     11.671     13.859
REMARK INTER + INTRA:         -10.669
REMARK INTER:                  -9.640
REMARK INTRA:                  -1.030
REMARK UNBOUND:                -1.013
REMARK  Name = /home/qwerty/github/datacon2025hack/step_04_hit_selection/docking/ligands/lig_557.pdb
REMARK  6 active torsions:
REMARK  status: ('A' for Active; 'I' for Inactive)
REMARK    1  A    between atoms: C1_1  and  N1_2
REMARK    2  A    between atoms: C3_4  and  N2_5
REMARK    3  A    between atoms: C4_6  and  C5_8
REMARK    4  A    between atoms: C8_11  and  C9_12
REMARK    5  A    between atoms: C12_17  and  C13_18
REMARK    6  A    between atoms: C16_21  and  C17_22
REMARK                            x       y       z     vdW  Elec       q    Type
REMARK                         _______ _______ _______ _____ _____    ______ ____
ROOT
ATOM      1  C9  UNL     1      21.452   1.489  29.853  0.00  0.00    +0.077 A 
ATOM      2  C10 UNL     1      22.715   0.902  30.035  0.00  0.00    +0.071 A 
ATOM      3  C11 UNL     1      23.675   1.045  29.030  0.00  0.00    +0.121 A 
ATOM      4  N3  UNL     1      24.970   0.463  29.176  0.00  0.00    -0.343 N 
ATOM      5  N4  UNL     1      23.376   1.749  27.908  0.00  0.00    -0.213 NA
ATOM      6  C12 UNL     1      22.156   2.326  27.738  0.00  0.00    +0.162 A 
ATOM      7  N5  UNL     1      21.213   2.190  28.711  0.00  0.00    -0.227 NA
ATOM      8  H9  UNL     1      25.222  -0.081  30.032  0.00  0.00    +0.144 HD
ATOM      9  H10 UNL     1      25.685   0.576  28.424  0.00  0.00    +0.144 HD
ENDROOT
BRANCH   1  13
ATOM     10  C5  UNL     1      18.373   1.159  32.859  0.00  0.00    +0.037 A 
ATOM     11  C6  UNL     1      18.450   2.304  32.046  0.00  0.00    +0.014 A 
ATOM     12  C7  UNL     1      19.447   2.419  31.073  0.00  0.00    +0.011 A 
ATOM     13  C8  UNL     1      20.383   1.387  30.881  0.00  0.00    +0.001 A 
ATOM     14  C25 UNL     1      20.308   0.247  31.699  0.00  0.00    +0.011 A 
ATOM     15  C26 UNL     1      19.311   0.131  32.671  0.00  0.00    +0.014 A 
BRANCH  10  17
ATOM     16  N2  UNL     1      17.320  -0.071  34.817  0.00  0.00    -0.279 N 
ATOM     17  C4  UNL     1      17.309   1.022  33.885  0.00  0.00    +0.248 C 
ATOM     18  O1  UNL     1      16.365   1.858  33.910  0.00  0.00    -0.270 OA
ATOM     19  H5  UNL     1      17.827  -0.947  34.559  0.00  0.00    +0.155 HD
BRANCH  16  23
ATOM     20  C1  UNL     1      14.342  -1.428  38.521  0.00  0.00    +0.172 C 
ATOM     21  N1  UNL     1      15.277  -0.670  37.702  0.00  0.00    -0.273 N 
ATOM     22  C2  UNL     1      15.657  -0.986  36.449  0.00  0.00    +0.131 A 
ATOM     23  C3  UNL     1      16.603  -0.065  36.061  0.00  0.00    +0.072 A 
ATOM     24  C27 UNL     1      16.780   0.778  37.144  0.00  0.00    +0.157 A 
ATOM     25  N6  UNL     1      15.958   0.380  38.137  0.00  0.00    -0.178 NA
ENDBRANCH  16  23
ENDBRANCH  10  17
ENDBRANCH   1  13
BRANCH   6  26
ATOM     26  C13 UNL     1      21.855   3.099  26.507  0.00  0.00    +0.019 A 
ATOM     27  C14 UNL     1      20.854   2.667  25.617  0.00  0.00    +0.012 A 
ATOM     28  C15 UNL     1      20.567   3.398  24.462  0.00  0.00    +0.009 A 
ATOM     29  C16 UNL     1      21.273   4.576  24.166  0.00  0.00    -0.018 A 
ATOM     30  C23 UNL     1      22.275   5.007  25.053  0.00  0.00    +0.009 A 
ATOM     31  C24 UNL     1      22.562   4.278  26.211  0.00  0.00    +0.012 A 
BRANCH  29  32
ATOM     32  C17 UNL     1      20.966   5.355  22.940  0.00  0.00    -0.018 A 
ATOM     33  C18 UNL     1      20.137   4.815  21.937  0.00  0.00    +0.008 A 
ATOM     34  C19 UNL     1      19.850   5.552  20.783  0.00  0.00    +0.001 A 
ATOM     35  C20 UNL     1      20.385   6.831  20.617  0.00  0.00    +0.000 A 
ATOM     36  C21 UNL     1      21.209   7.377  21.603  0.00  0.00    +0.001 A 
ATOM     37  C22 UNL     1      21.499   6.646  22.759  0.00  0.00    +0.008 A 
ENDBRANCH  29  32
ENDBRANCH   6  26
TORSDOF 5
ENDMDL
MODEL 8
REMARK VINA RESULT:    -7.402      8.520     12.421
REMARK INTER + INTRA:         -10.579
REMARK INTER:                  -9.942
REMARK INTRA:                  -0.637
REMARK UNBOUND:                -1.013
REMARK  Name = /home/qwerty/github/datacon2025hack/step_04_hit_selection/docking/ligands/lig_557.pdb
REMARK  6 active torsions:
REMARK  status: ('A' for Active; 'I' for Inactive)
REMARK    1  A    between atoms: C1_1  and  N1_2
REMARK    2  A    between atoms: C3_4  and  N2_5
REMARK    3  A    between atoms: C4_6  and  C5_8
REMARK    4  A    between atoms: C8_11  and  C9_12
REMARK    5  A    between atoms: C12_17  and  C13_18
REMARK    6  A    between atoms: C16_21  and  C17_22
REMARK                            x       y       z     vdW  Elec       q    Type
REMARK                         _______ _______ _______ _____ _____    ______ ____
ROOT
ATOM      1  C9  UNL     1      19.327  15.508  29.543  0.00  0.00    +0.077 A 
ATOM      2  C10 UNL     1      20.170  15.581  30.664  0.00  0.00    +0.071 A 
ATOM      3  C11 UNL     1      21.545  15.728  30.463  0.00  0.00    +0.121 A 
ATOM      4  N3  UNL     1      22.436  15.806  31.575  0.00  0.00    -0.343 N 
ATOM      5  N4  UNL     1      22.036  15.806  29.200  0.00  0.00    -0.213 NA
ATOM      6  C12 UNL     1      21.217  15.746  28.116  0.00  0.00    +0.162 A 
ATOM      7  N5  UNL     1      19.877  15.600  28.302  0.00  0.00    -0.227 NA
ATOM      8  H9  UNL     1      22.079  15.750  32.555  0.00  0.00    +0.144 HD
ATOM      9  H10 UNL     1      23.462  15.920  31.420  0.00  0.00    +0.144 HD
ENDROOT
BRANCH   1  13
ATOM     10  C5  UNL     1      15.044  15.110  29.899  0.00  0.00    +0.037 A 
ATOM     11  C6  UNL     1      15.893  14.109  30.402  0.00  0.00    +0.014 A 
ATOM     12  C7  UNL     1      17.281  14.230  30.288  0.00  0.00    +0.011 A 
ATOM     13  C8  UNL     1      17.854  15.360  29.677  0.00  0.00    +0.001 A 
ATOM     14  C25 UNL     1      17.003  16.356  29.168  0.00  0.00    +0.011 A 
ATOM     15  C26 UNL     1      15.616  16.236  29.284  0.00  0.00    +0.014 A 
BRANCH  10  17
ATOM     16  N2  UNL     1      12.750  14.682  28.893  0.00  0.00    -0.279 N 
ATOM     17  C4  UNL     1      13.570  14.998  30.029  0.00  0.00    +0.248 C 
ATOM     18  O1  UNL     1      13.031  15.220  31.148  0.00  0.00    -0.270 OA
ATOM     19  H5  UNL     1      13.113  14.895  27.937  0.00  0.00    +0.155 HD
BRANCH  16  23
ATOM     20  C1  UNL     1       8.244  13.063  27.667  0.00  0.00    +0.172 C 
ATOM     21  N1  UNL     1       9.415  13.446  28.443  0.00  0.00    -0.273 N 
ATOM     22  C2  UNL     1      10.520  14.039  27.954  0.00  0.00    +0.131 A 
ATOM     23  C3  UNL     1      11.417  14.161  28.991  0.00  0.00    +0.072 A 
ATOM     24  C27 UNL     1      10.803  13.589  30.092  0.00  0.00    +0.157 A 
ATOM     25  N6  UNL     1       9.579  13.155  29.726  0.00  0.00    -0.178 NA
ENDBRANCH  16  23
ENDBRANCH  10  17
ENDBRANCH   1  13
BRANCH   6  26
ATOM     26  C13 UNL     1      21.776  15.843  26.744  0.00  0.00    +0.019 A 
ATOM     27  C14 UNL     1      23.092  15.420  26.476  0.00  0.00    +0.012 A 
ATOM     28  C15 UNL     1      23.616  15.506  25.184  0.00  0.00    +0.009 A 
ATOM     29  C16 UNL     1      22.840  16.016  24.129  0.00  0.00    -0.018 A 
ATOM     30  C23 UNL     1      21.527  16.440  24.397  0.00  0.00    +0.009 A 
ATOM     31  C24 UNL     1      21.001  16.353  25.689  0.00  0.00    +0.012 A 
BRANCH  29  32
ATOM     32  C17 UNL     1      23.397  16.103  22.755  0.00  0.00    -0.018 A 
ATOM     33  C18 UNL     1      22.544  16.242  21.644  0.00  0.00    +0.008 A 
ATOM     34  C19 UNL     1      23.073  16.325  20.351  0.00  0.00    +0.001 A 
ATOM     35  C20 UNL     1      24.454  16.269  20.154  0.00  0.00    +0.000 A 
ATOM     36  C21 UNL     1      25.310  16.129  21.248  0.00  0.00    +0.001 A 
ATOM     37  C22 UNL     1      24.788  16.048  22.542  0.00  0.00    +0.008 A 
ENDBRANCH  29  32
ENDBRANCH   6  26
TORSDOF 5
ENDMDL
MODEL 9
REMARK VINA RESULT:    -7.378     12.364     17.859
REMARK INTER + INTRA:         -10.549
REMARK INTER:                  -9.472
REMARK INTRA:                  -1.076
REMARK UNBOUND:                -1.013
REMARK  Name = /home/qwerty/github/datacon2025hack/step_04_hit_selection/docking/ligands/lig_557.pdb
REMARK  6 active torsions:
REMARK  status: ('A' for Active; 'I' for Inactive)
REMARK    1  A    between atoms: C1_1  and  N1_2
REMARK    2  A    between atoms: C3_4  and  N2_5
REMARK    3  A    between atoms: C4_6  and  C5_8
REMARK    4  A    between atoms: C8_11  and  C9_12
REMARK    5  A    between atoms: C12_17  and  C13_18
REMARK    6  A    between atoms: C16_21  and  C17_22
REMARK                            x       y       z     vdW  Elec       q    Type
REMARK                         _______ _______ _______ _____ _____    ______ ____
ROOT
ATOM      1  C9  UNL     1      15.153   1.632  21.753  0.00  0.00    +0.077 A 
ATOM      2  C10 UNL     1      15.313   0.556  20.865  0.00  0.00    +0.071 A 
ATOM      3  C11 UNL     1      16.295  -0.401  21.137  0.00  0.00    +0.121 A 
ATOM      4  N3  UNL     1      16.489  -1.510  20.259  0.00  0.00    -0.343 N 
ATOM      5  N4  UNL     1      17.064  -0.279  22.249  0.00  0.00    -0.213 NA
ATOM      6  C12 UNL     1      16.901   0.758  23.114  0.00  0.00    +0.162 A 
ATOM      7  N5  UNL     1      15.949   1.696  22.856  0.00  0.00    -0.227 NA
ATOM      8  H9  UNL     1      15.907  -1.623  19.399  0.00  0.00    +0.144 HD
ATOM      9  H10 UNL     1      17.221  -2.223  20.469  0.00  0.00    +0.144 HD
ENDROOT
BRANCH   1  13
ATOM     10  C5  UNL     1      12.199   4.718  21.140  0.00  0.00    +0.037 A 
ATOM     11  C6  UNL     1      12.098   3.494  20.456  0.00  0.00    +0.014 A 
ATOM     12  C7  UNL     1      13.052   2.491  20.647  0.00  0.00    +0.011 A 
ATOM     13  C8  UNL     1      14.126   2.683  21.536  0.00  0.00    +0.001 A 
ATOM     14  C25 UNL     1      14.229   3.911  22.213  0.00  0.00    +0.011 A 
ATOM     15  C26 UNL     1      13.274   4.913  22.023  0.00  0.00    +0.014 A 
BRANCH  10  17
ATOM     16  N2  UNL     1      11.342   7.071  21.569  0.00  0.00    -0.279 N 
ATOM     17  C4  UNL     1      11.182   5.783  20.955  0.00  0.00    +0.248 C 
ATOM     18  O1  UNL     1      10.147   5.535  20.278  0.00  0.00    -0.270 OA
ATOM     19  H5  UNL     1      11.944   7.151  22.420  0.00  0.00    +0.155 HD
BRANCH  16  23
ATOM     20  C1  UNL     1       8.188  10.873  21.395  0.00  0.00    +0.172 C 
ATOM     21  N1  UNL     1       9.253   9.939  21.056  0.00  0.00    -0.273 N 
ATOM     22  C2  UNL     1       9.543   8.805  21.721  0.00  0.00    +0.131 A 
ATOM     23  C3  UNL     1      10.658   8.254  21.131  0.00  0.00    +0.072 A 
ATOM     24  C27 UNL     1      11.021   9.126  20.120  0.00  0.00    +0.157 A 
ATOM     25  N6  UNL     1      10.145  10.152  20.100  0.00  0.00    -0.178 NA
ENDBRANCH  16  23
ENDBRANCH  10  17
ENDBRANCH   1  13
BRANCH   6  26
ATOM     26  C13 UNL     1      17.748   0.865  24.328  0.00  0.00    +0.019 A 
ATOM     27  C14 UNL     1      19.151   0.828  24.228  0.00  0.00    +0.012 A 
ATOM     28  C15 UNL     1      19.948   0.934  25.370  0.00  0.00    +0.009 A 
ATOM     29  C16 UNL     1      19.364   1.079  26.639  0.00  0.00    -0.018 A 
ATOM     30  C23 UNL     1      17.962   1.113  26.741  0.00  0.00    +0.009 A 
ATOM     31  C24 UNL     1      17.164   1.009  25.599  0.00  0.00    +0.012 A 
BRANCH  29  32
ATOM     32  C17 UNL     1      20.212   1.196  27.853  0.00  0.00    -0.018 A 
ATOM     33  C18 UNL     1      21.612   1.081  27.763  0.00  0.00    +0.008 A 
ATOM     34  C19 UNL     1      22.407   1.192  28.909  0.00  0.00    +0.001 A 
ATOM     35  C20 UNL     1      21.815   1.416  30.153  0.00  0.00    +0.000 A 
ATOM     36  C21 UNL     1      20.427   1.530  30.256  0.00  0.00    +0.001 A 
ATOM     37  C22 UNL     1      19.627   1.422  29.115  0.00  0.00    +0.008 A 
ENDBRANCH  29  32
ENDBRANCH   6  26
TORSDOF 5
ENDMDL
