MODEL 1
REMARK VINA RESULT:    -6.359      0.000      0.000
REMARK INTER + INTRA:          -8.021
REMARK INTER:                  -7.289
REMARK INTRA:                  -0.732
REMARK UNBOUND:                -0.732
REMARK  Name = /home/qwerty/github/datacon2025hack/step_04_hit_selection/docking/ligands/lig_669.pdb
REMARK  5 active torsions:
REMARK  status: ('A' for Active; 'I' for Inactive)
REMARK    1  A    between atoms: C1_1  and  C2_2
REMARK    2  A    between atoms: C5_5  and  C6_6
REMARK    3  A    between atoms: C12_15  and  C13_17
REMARK    4  A    between atoms: C15_20  and  O3_21
REMARK    5  A    between atoms: N4_22  and  C16_23
REMARK                            x       y       z     vdW  Elec       q    Type
REMARK                         _______ _______ _______ _____ _____    ______ ____
ROOT
ATOM      1  C6  UNL     1      20.900   9.071  19.215  0.00  0.00    +0.282 C 
ATOM      2  O1  UNL     1      20.189   8.412  18.409  0.00  0.00    -0.267 OA
ATOM      3  N1  UNL     1      20.580  10.454  19.472  0.00  0.00    -0.293 N 
ATOM      4  C7  UNL     1      19.166  10.857  19.475  0.00  0.00    +0.108 C 
ATOM      5  C8  UNL     1      18.998  12.315  19.906  0.00  0.00    +0.024 C 
ATOM      6  C9  UNL     1      19.921  13.219  19.071  0.00  0.00    +0.014 C 
ATOM      7  C10 UNL     1      19.895  14.672  19.570  0.00  0.00    +0.024 C 
ATOM      8  C11 UNL     1      21.230  14.914  20.260  0.00  0.00    +0.109 C 
ATOM      9  N2  UNL     1      22.106  13.835  19.832  0.00  0.00    -0.291 N 
ATOM     10  C12 UNL     1      23.542  13.919  19.882  0.00  0.00    +0.265 C 
ATOM     11  O2  UNL     1      24.232  13.254  19.063  0.00  0.00    -0.268 OA
ATOM     12  C17 UNL     1      21.399  12.777  19.122  0.00  0.00    +0.097 C 
ATOM     13  C18 UNL     1      21.627  11.423  19.828  0.00  0.00    +0.131 C 
ENDROOT
BRANCH   1  18
ATOM     14  C1  UNL     1      25.350   7.125  19.990  0.00  0.00    +0.086 C 
ATOM     15  C2  UNL     1      23.941   7.545  20.240  0.00  0.00    +0.103 A 
ATOM     16  C3  UNL     1      23.253   7.393  21.427  0.00  0.00    +0.045 A 
ATOM     17  C4  UNL     1      22.006   7.941  21.208  0.00  0.00    +0.055 A 
ATOM     18  C5  UNL     1      22.017   8.393  19.900  0.00  0.00    +0.190 A 
ATOM     19  O4  UNL     1      23.186   8.149  19.353  0.00  0.00    -0.455 OA
ENDBRANCH   1  18
BRANCH  10  20
ATOM     20  C13 UNL     1      24.231  14.754  20.888  0.00  0.00    +0.126 A 
ATOM     21  C14 UNL     1      24.835  15.972  20.647  0.00  0.00    +0.147 A 
ATOM     22  N3  UNL     1      25.264  16.501  21.810  0.00  0.00    -0.203 NA
ATOM     23  C15 UNL     1      24.909  15.588  22.737  0.00  0.00    +0.296 A 
ATOM     24  N4  UNL     1      24.290  14.507  22.213  0.00  0.00    -0.293 N 
ATOM     25  C16 UNL     1      23.747  13.357  22.938  0.00  0.00    +0.154 C 
BRANCH  23  26
ATOM     26  O3  UNL     1      25.151  15.775  24.097  0.00  0.00    -0.480 OA
ATOM     27  H16 UNL     1      24.460  15.553  24.801  0.00  0.00    +0.295 HD
ENDBRANCH  23  26
ENDBRANCH  10  20
TORSDOF 3
ENDMDL
MODEL 2
REMARK VINA RESULT:    -6.254     13.599     15.666
REMARK INTER + INTRA:          -7.900
REMARK INTER:                  -7.348
REMARK INTRA:                  -0.552
REMARK UNBOUND:                -0.732
REMARK  Name = /home/qwerty/github/datacon2025hack/step_04_hit_selection/docking/ligands/lig_669.pdb
REMARK  5 active torsions:
REMARK  status: ('A' for Active; 'I' for Inactive)
REMARK    1  A    between atoms: C1_1  and  C2_2
REMARK    2  A    between atoms: C5_5  and  C6_6
REMARK    3  A    between atoms: C12_15  and  C13_17
REMARK    4  A    between atoms: C15_20  and  O3_21
REMARK    5  A    between atoms: N4_22  and  C16_23
REMARK                            x       y       z     vdW  Elec       q    Type
REMARK                         _______ _______ _______ _____ _____    ______ ____
ROOT
ATOM      1  C6  UNL     1      23.577   7.507  32.927  0.00  0.00    +0.282 C 
ATOM      2  O1  UNL     1      24.286   6.531  32.561  0.00  0.00    -0.267 OA
ATOM      3  N1  UNL     1      22.945   7.478  34.223  0.00  0.00    -0.293 N 
ATOM      4  C7  UNL     1      23.654   6.823  35.332  0.00  0.00    +0.108 C 
ATOM      5  C8  UNL     1      22.915   7.009  36.659  0.00  0.00    +0.024 C 
ATOM      6  C9  UNL     1      21.443   6.591  36.503  0.00  0.00    +0.014 C 
ATOM      7  C10 UNL     1      20.629   6.901  37.769  0.00  0.00    +0.024 C 
ATOM      8  C11 UNL     1      19.734   8.085  37.426  0.00  0.00    +0.109 C 
ATOM      9  N2  UNL     1      19.732   8.180  35.975  0.00  0.00    -0.291 N 
ATOM     10  C12 UNL     1      18.697   8.850  35.231  0.00  0.00    +0.265 C 
ATOM     11  O2  UNL     1      18.438   8.479  34.055  0.00  0.00    -0.268 OA
ATOM     12  C17 UNL     1      20.731   7.325  35.347  0.00  0.00    +0.097 C 
ATOM     13  C18 UNL     1      21.672   8.173  34.465  0.00  0.00    +0.131 C 
ENDROOT
BRANCH   1  18
ATOM     14  C1  UNL     1      21.509  10.917  30.046  0.00  0.00    +0.086 C 
ATOM     15  C2  UNL     1      22.557  10.146  30.775  0.00  0.00    +0.103 A 
ATOM     16  C3  UNL     1      23.905  10.444  30.801  0.00  0.00    +0.045 A 
ATOM     17  C4  UNL     1      24.482   9.487  31.610  0.00  0.00    +0.055 A 
ATOM     18  C5  UNL     1      23.446   8.670  32.027  0.00  0.00    +0.190 A 
ATOM     19  O4  UNL     1      22.311   9.093  31.518  0.00  0.00    -0.455 OA
ENDBRANCH   1  18
BRANCH  10  20
ATOM     20  C13 UNL     1      17.941   9.981  35.810  0.00  0.00    +0.126 A 
ATOM     21  C14 UNL     1      16.648   9.924  36.291  0.00  0.00    +0.147 A 
ATOM     22  N3  UNL     1      16.320  11.109  36.843  0.00  0.00    -0.203 NA
ATOM     23  C15 UNL     1      17.426  11.863  36.685  0.00  0.00    +0.296 A 
ATOM     24  N4  UNL     1      18.428  11.217  36.050  0.00  0.00    -0.293 N 
ATOM     25  C16 UNL     1      19.766  11.728  35.751  0.00  0.00    +0.154 C 
BRANCH  23  26
ATOM     26  O3  UNL     1      17.507  13.172  37.156  0.00  0.00    -0.480 OA
ATOM     27  H16 UNL     1      18.394  13.633  37.313  0.00  0.00    +0.295 HD
ENDBRANCH  23  26
ENDBRANCH  10  20
TORSDOF 3
ENDMDL
MODEL 3
REMARK VINA RESULT:    -6.220      1.383      2.080
REMARK INTER + INTRA:          -7.861
REMARK INTER:                  -7.228
REMARK INTRA:                  -0.633
REMARK UNBOUND:                -0.732
REMARK  Name = /home/qwerty/github/datacon2025hack/step_04_hit_selection/docking/ligands/lig_669.pdb
REMARK  5 active torsions:
REMARK  status: ('A' for Active; 'I' for Inactive)
REMARK    1  A    between atoms: C1_1  and  C2_2
REMARK    2  A    between atoms: C5_5  and  C6_6
REMARK    3  A    between atoms: C12_15  and  C13_17
REMARK    4  A    between atoms: C15_20  and  O3_21
REMARK    5  A    between atoms: N4_22  and  C16_23
REMARK                            x       y       z     vdW  Elec       q    Type
REMARK                         _______ _______ _______ _____ _____    ______ ____
ROOT
ATOM      1  C6  UNL     1      20.529   8.267  19.680  0.00  0.00    +0.282 C 
ATOM      2  O1  UNL     1      20.051   7.596  18.725  0.00  0.00    -0.267 OA
ATOM      3  N1  UNL     1      20.260   9.681  19.755  0.00  0.00    -0.293 N 
ATOM      4  C7  UNL     1      18.952  10.171  19.295  0.00  0.00    +0.108 C 
ATOM      5  C8  UNL     1      18.779  11.664  19.580  0.00  0.00    +0.024 C 
ATOM      6  C9  UNL     1      19.985  12.447  19.033  0.00  0.00    +0.014 C 
ATOM      7  C10 UNL     1      19.924  13.930  19.427  0.00  0.00    +0.024 C 
ATOM      8  C11 UNL     1      20.996  14.138  20.488  0.00  0.00    +0.109 C 
ATOM      9  N2  UNL     1      21.870  12.979  20.409  0.00  0.00    -0.291 N 
ATOM     10  C12 UNL     1      23.223  12.976  20.903  0.00  0.00    +0.265 C 
ATOM     11  O2  UNL     1      24.076  12.212  20.375  0.00  0.00    -0.268 OA
ATOM     12  C17 UNL     1      21.333  11.918  19.566  0.00  0.00    +0.097 C 
ATOM     13  C18 UNL     1      21.221  10.607  20.374  0.00  0.00    +0.131 C 
ENDROOT
BRANCH   1  18
ATOM     14  C1  UNL     1      21.609   5.781  23.785  0.00  0.00    +0.086 C 
ATOM     15  C2  UNL     1      21.795   6.500  22.491  0.00  0.00    +0.103 A 
ATOM     16  C3  UNL     1      22.994   6.666  21.827  0.00  0.00    +0.045 A 
ATOM     17  C4  UNL     1      22.688   7.362  20.676  0.00  0.00    +0.055 A 
ATOM     18  C5  UNL     1      21.321   7.572  20.713  0.00  0.00    +0.190 A 
ATOM     19  O4  UNL     1      20.817   7.040  21.803  0.00  0.00    -0.455 OA
ENDBRANCH   1  18
BRANCH  10  20
ATOM     20  C13 UNL     1      23.632  13.837  22.032  0.00  0.00    +0.126 A 
ATOM     21  C14 UNL     1      23.500  13.526  23.371  0.00  0.00    +0.147 A 
ATOM     22  N3  UNL     1      24.077  14.490  24.117  0.00  0.00    -0.203 NA
ATOM     23  C15 UNL     1      24.549  15.369  23.210  0.00  0.00    +0.296 A 
ATOM     24  N4  UNL     1      24.287  15.013  21.933  0.00  0.00    -0.293 N 
ATOM     25  C16 UNL     1      24.687  15.718  20.714  0.00  0.00    +0.154 C 
BRANCH  23  26
ATOM     26  O3  UNL     1      25.251  16.514  23.579  0.00  0.00    -0.480 OA
ATOM     27  H16 UNL     1      24.913  17.145  24.294  0.00  0.00    +0.295 HD
ENDBRANCH  23  26
ENDBRANCH  10  20
TORSDOF 3
ENDMDL
MODEL 4
REMARK VINA RESULT:    -6.078      9.802     12.710
REMARK INTER + INTRA:          -7.698
REMARK INTER:                  -7.021
REMARK INTRA:                  -0.677
REMARK UNBOUND:                -0.732
REMARK  Name = /home/qwerty/github/datacon2025hack/step_04_hit_selection/docking/ligands/lig_669.pdb
REMARK  5 active torsions:
REMARK  status: ('A' for Active; 'I' for Inactive)
REMARK    1  A    between atoms: C1_1  and  C2_2
REMARK    2  A    between atoms: C5_5  and  C6_6
REMARK    3  A    between atoms: C12_15  and  C13_17
REMARK    4  A    between atoms: C15_20  and  O3_21
REMARK    5  A    between atoms: N4_22  and  C16_23
REMARK                            x       y       z     vdW  Elec       q    Type
REMARK                         _______ _______ _______ _____ _____    ______ ____
ROOT
ATOM      1  C6  UNL     1      14.931   1.489  21.376  0.00  0.00    +0.282 C 
ATOM      2  O1  UNL     1      13.776   1.066  21.098  0.00  0.00    -0.267 OA
ATOM      3  N1  UNL     1      15.838   0.640  22.108  0.00  0.00    -0.293 N 
ATOM      4  C7  UNL     1      15.788  -0.810  21.868  0.00  0.00    +0.108 C 
ATOM      5  C8  UNL     1      16.908  -1.541  22.612  0.00  0.00    +0.024 C 
ATOM      6  C9  UNL     1      16.904  -1.137  24.096  0.00  0.00    +0.014 C 
ATOM      7  C10 UNL     1      18.103  -1.733  24.849  0.00  0.00    +0.024 C 
ATOM      8  C11 UNL     1      19.055  -0.578  25.127  0.00  0.00    +0.109 C 
ATOM      9  N2  UNL     1      18.283   0.637  24.921  0.00  0.00    -0.291 N 
ATOM     10  C12 UNL     1      18.647   1.909  25.492  0.00  0.00    +0.265 C 
ATOM     11  O2  UNL     1      17.750   2.757  25.743  0.00  0.00    -0.268 OA
ATOM     12  C17 UNL     1      16.988   0.391  24.301  0.00  0.00    +0.097 C 
ATOM     13  C18 UNL     1      16.862   1.209  22.998  0.00  0.00    +0.131 C 
ENDROOT
BRANCH   1  18
ATOM     14  C1  UNL     1      15.360   6.386  21.192  0.00  0.00    +0.086 C 
ATOM     15  C2  UNL     1      15.517   4.950  20.820  0.00  0.00    +0.103 A 
ATOM     16  C3  UNL     1      16.260   4.468  19.761  0.00  0.00    +0.045 A 
ATOM     17  C4  UNL     1      16.139   3.095  19.816  0.00  0.00    +0.055 A 
ATOM     18  C5  UNL     1      15.332   2.830  20.908  0.00  0.00    +0.190 A 
ATOM     19  O4  UNL     1      14.983   3.955  21.489  0.00  0.00    -0.455 OA
ENDBRANCH   1  18
BRANCH  10  20
ATOM     20  C13 UNL     1      20.057   2.251  25.772  0.00  0.00    +0.126 A 
ATOM     21  C14 UNL     1      20.735   1.978  26.944  0.00  0.00    +0.147 A 
ATOM     22  N3  UNL     1      22.029   2.330  26.810  0.00  0.00    -0.203 NA
ATOM     23  C15 UNL     1      22.109   2.813  25.553  0.00  0.00    +0.296 A 
ATOM     24  N4  UNL     1      20.929   2.792  24.896  0.00  0.00    -0.293 N 
ATOM     25  C16 UNL     1      20.674   3.206  23.515  0.00  0.00    +0.154 C 
BRANCH  23  26
ATOM     26  O3  UNL     1      23.308   3.264  25.005  0.00  0.00    -0.480 OA
ATOM     27  H16 UNL     1      23.341   4.018  24.331  0.00  0.00    +0.295 HD
ENDBRANCH  23  26
ENDBRANCH  10  20
TORSDOF 3
ENDMDL
MODEL 5
REMARK VINA RESULT:    -6.067     12.375     14.012
REMARK INTER + INTRA:          -7.686
REMARK INTER:                  -7.015
REMARK INTRA:                  -0.671
REMARK UNBOUND:                -0.732
REMARK  Name = /home/qwerty/github/datacon2025hack/step_04_hit_selection/docking/ligands/lig_669.pdb
REMARK  5 active torsions:
REMARK  status: ('A' for Active; 'I' for Inactive)
REMARK    1  A    between atoms: C1_1  and  C2_2
REMARK    2  A    between atoms: C5_5  and  C6_6
REMARK    3  A    between atoms: C12_15  and  C13_17
REMARK    4  A    between atoms: C15_20  and  O3_21
REMARK    5  A    between atoms: N4_22  and  C16_23
REMARK                            x       y       z     vdW  Elec       q    Type
REMARK                         _______ _______ _______ _____ _____    ______ ____
ROOT
ATOM      1  C6  UNL     1      19.837   1.422  31.024  0.00  0.00    +0.282 C 
ATOM      2  O1  UNL     1      18.859   0.635  30.907  0.00  0.00    -0.267 OA
ATOM      3  N1  UNL     1      19.854   2.374  32.106  0.00  0.00    -0.293 N 
ATOM      4  C7  UNL     1      19.264   1.981  33.394  0.00  0.00    +0.108 C 
ATOM      5  C8  UNL     1      19.496   3.047  34.467  0.00  0.00    +0.024 C 
ATOM      6  C9  UNL     1      19.043   4.422  33.948  0.00  0.00    +0.014 C 
ATOM      7  C10 UNL     1      19.394   5.545  34.936  0.00  0.00    +0.024 C 
ATOM      8  C11 UNL     1      20.544   6.324  34.312  0.00  0.00    +0.109 C 
ATOM      9  N2  UNL     1      20.574   5.942  32.909  0.00  0.00    -0.291 N 
ATOM     10  C12 UNL     1      21.190   6.747  31.886  0.00  0.00    +0.265 C 
ATOM     11  O2  UNL     1      20.761   6.682  30.702  0.00  0.00    -0.268 OA
ATOM     12  C17 UNL     1      19.711   4.807  32.610  0.00  0.00    +0.097 C 
ATOM     13  C18 UNL     1      20.535   3.671  31.968  0.00  0.00    +0.131 C 
ENDROOT
BRANCH   1  18
ATOM     14  C1  UNL     1      24.375   0.675  29.277  0.00  0.00    +0.086 C 
ATOM     15  C2  UNL     1      22.919   0.999  29.305  0.00  0.00    +0.103 A 
ATOM     16  C3  UNL     1      22.136   1.289  28.205  0.00  0.00    +0.045 A 
ATOM     17  C4  UNL     1      20.865   1.496  28.698  0.00  0.00    +0.055 A 
ATOM     18  C5  UNL     1      20.955   1.316  30.066  0.00  0.00    +0.190 A 
ATOM     19  O4  UNL     1      22.191   1.014  30.396  0.00  0.00    -0.455 OA
ENDBRANCH   1  18
BRANCH  10  20
ATOM     20  C13 UNL     1      22.331   7.636  32.188  0.00  0.00    +0.126 A 
ATOM     21  C14 UNL     1      22.302   9.016  32.173  0.00  0.00    +0.147 A 
ATOM     22  N3  UNL     1      23.485   9.497  32.605  0.00  0.00    -0.203 NA
ATOM     23  C15 UNL     1      24.210   8.392  32.874  0.00  0.00    +0.296 A 
ATOM     24  N4  UNL     1      23.547   7.242  32.621  0.00  0.00    -0.293 N 
ATOM     25  C16 UNL     1      24.025   5.876  32.834  0.00  0.00    +0.154 C 
BRANCH  23  26
ATOM     26  O3  UNL     1      25.507   8.458  33.379  0.00  0.00    -0.480 OA
ATOM     27  H16 UNL     1      25.805   9.199  34.000  0.00  0.00    +0.295 HD
ENDBRANCH  23  26
ENDBRANCH  10  20
TORSDOF 3
ENDMDL
MODEL 6
REMARK VINA RESULT:    -6.038     12.638     15.881
REMARK INTER + INTRA:          -7.652
REMARK INTER:                  -7.077
REMARK INTRA:                  -0.575
REMARK UNBOUND:                -0.732
REMARK  Name = /home/qwerty/github/datacon2025hack/step_04_hit_selection/docking/ligands/lig_669.pdb
REMARK  5 active torsions:
REMARK  status: ('A' for Active; 'I' for Inactive)
REMARK    1  A    between atoms: C1_1  and  C2_2
REMARK    2  A    between atoms: C5_5  and  C6_6
REMARK    3  A    between atoms: C12_15  and  C13_17
REMARK    4  A    between atoms: C15_20  and  O3_21
REMARK    5  A    between atoms: N4_22  and  C16_23
REMARK                            x       y       z     vdW  Elec       q    Type
REMARK                         _______ _______ _______ _____ _____    ______ ____
ROOT
ATOM      1  C6  UNL     1       8.615   9.736  29.151  0.00  0.00    +0.282 C 
ATOM      2  O1  UNL     1       8.704   9.307  30.333  0.00  0.00    -0.267 OA
ATOM      3  N1  UNL     1       8.381   8.805  28.076  0.00  0.00    -0.293 N 
ATOM      4  C7  UNL     1       7.533   7.632  28.338  0.00  0.00    +0.108 C 
ATOM      5  C8  UNL     1       7.270   6.832  27.060  0.00  0.00    +0.024 C 
ATOM      6  C9  UNL     1       8.600   6.517  26.355  0.00  0.00    +0.014 C 
ATOM      7  C10 UNL     1       8.375   5.844  24.993  0.00  0.00    +0.024 C 
ATOM      8  C11 UNL     1       8.720   6.884  23.936  0.00  0.00    +0.109 C 
ATOM      9  N2  UNL     1       9.473   7.921  24.623  0.00  0.00    -0.291 N 
ATOM     10  C12 UNL     1      10.353   8.837  23.946  0.00  0.00    +0.265 C 
ATOM     11  O2  UNL     1      11.337   9.326  24.563  0.00  0.00    -0.268 OA
ATOM     12  C17 UNL     1       9.443   7.779  26.073  0.00  0.00    +0.097 C 
ATOM     13  C18 UNL     1       8.886   9.065  26.719  0.00  0.00    +0.131 C 
ENDROOT
BRANCH   1  18
ATOM     14  C1  UNL     1       7.637  14.202  27.335  0.00  0.00    +0.086 C 
ATOM     15  C2  UNL     1       8.301  13.124  28.123  0.00  0.00    +0.103 A 
ATOM     16  C3  UNL     1       9.342  13.300  29.012  0.00  0.00    +0.045 A 
ATOM     17  C4  UNL     1       9.613  12.047  29.521  0.00  0.00    +0.055 A 
ATOM     18  C5  UNL     1       8.716  11.189  28.910  0.00  0.00    +0.190 A 
ATOM     19  O4  UNL     1       7.943  11.862  28.088  0.00  0.00    -0.455 OA
ENDBRANCH   1  18
BRANCH  10  20
ATOM     20  C13 UNL     1      10.117   9.235  22.542  0.00  0.00    +0.126 A 
ATOM     21  C14 UNL     1       9.194  10.168  22.113  0.00  0.00    +0.147 A 
ATOM     22  N3  UNL     1       9.329  10.360  20.786  0.00  0.00    -0.203 NA
ATOM     23  C15 UNL     1      10.336   9.534  20.436  0.00  0.00    +0.296 A 
ATOM     24  N4  UNL     1      10.832   8.825  21.473  0.00  0.00    -0.293 N 
ATOM     25  C16 UNL     1      11.944   7.874  21.448  0.00  0.00    +0.154 C 
BRANCH  23  26
ATOM     26  O3  UNL     1      10.811   9.454  19.128  0.00  0.00    -0.480 OA
ATOM     27  H16 UNL     1      11.100  10.273  18.610  0.00  0.00    +0.295 HD
ENDBRANCH  23  26
ENDBRANCH  10  20
TORSDOF 3
ENDMDL
MODEL 7
REMARK VINA RESULT:    -5.961     12.711     14.974
REMARK INTER + INTRA:          -7.564
REMARK INTER:                  -6.977
REMARK INTRA:                  -0.587
REMARK UNBOUND:                -0.732
REMARK  Name = /home/qwerty/github/datacon2025hack/step_04_hit_selection/docking/ligands/lig_669.pdb
REMARK  5 active torsions:
REMARK  status: ('A' for Active; 'I' for Inactive)
REMARK    1  A    between atoms: C1_1  and  C2_2
REMARK    2  A    between atoms: C5_5  and  C6_6
REMARK    3  A    between atoms: C12_15  and  C13_17
REMARK    4  A    between atoms: C15_20  and  O3_21
REMARK    5  A    between atoms: N4_22  and  C16_23
REMARK                            x       y       z     vdW  Elec       q    Type
REMARK                         _______ _______ _______ _____ _____    ______ ____
ROOT
ATOM      1  C6  UNL     1      16.451  -1.344  23.765  0.00  0.00    +0.282 C 
ATOM      2  O1  UNL     1      17.636  -1.763  23.866  0.00  0.00    -0.267 OA
ATOM      3  N1  UNL     1      16.097  -0.481  22.666  0.00  0.00    -0.293 N 
ATOM      4  C7  UNL     1      16.755  -0.694  21.368  0.00  0.00    +0.108 C 
ATOM      5  C8  UNL     1      16.161   0.206  20.282  0.00  0.00    +0.024 C 
ATOM      6  C9  UNL     1      16.148   1.668  20.761  0.00  0.00    +0.014 C 
ATOM      7  C10 UNL     1      15.425   2.585  19.764  0.00  0.00    +0.024 C 
ATOM      8  C11 UNL     1      14.098   2.961  20.408  0.00  0.00    +0.109 C 
ATOM      9  N2  UNL     1      14.227   2.630  21.818  0.00  0.00    -0.291 N 
ATOM     10  C12 UNL     1      13.404   3.216  22.844  0.00  0.00    +0.265 C 
ATOM     11  O2  UNL     1      13.857   3.329  24.015  0.00  0.00    -0.268 OA
ATOM     12  C17 UNL     1      15.422   1.849  22.112  0.00  0.00    +0.097 C 
ATOM     13  C18 UNL     1      15.031   0.524  22.800  0.00  0.00    +0.131 C 
ENDROOT
BRANCH   1  18
ATOM     14  C1  UNL     1      13.155  -1.141  27.411  0.00  0.00    +0.086 C 
ATOM     15  C2  UNL     1      14.028  -1.703  26.340  0.00  0.00    +0.103 A 
ATOM     16  C3  UNL     1      14.062  -3.023  25.938  0.00  0.00    +0.045 A 
ATOM     17  C4  UNL     1      14.985  -3.077  24.914  0.00  0.00    +0.055 A 
ATOM     18  C5  UNL     1      15.452  -1.784  24.758  0.00  0.00    +0.190 A 
ATOM     19  O4  UNL     1      14.856  -0.987  25.617  0.00  0.00    -0.455 OA
ENDBRANCH   1  18
BRANCH  10  20
ATOM     20  C13 UNL     1      12.028   3.673  22.560  0.00  0.00    +0.126 A 
ATOM     21  C14 UNL     1      11.650   4.974  22.296  0.00  0.00    +0.147 A 
ATOM     22  N3  UNL     1      10.341   5.007  21.974  0.00  0.00    -0.203 NA
ATOM     23  C15 UNL     1       9.951   3.719  22.052  0.00  0.00    +0.296 A 
ATOM     24  N4  UNL     1      10.946   2.880  22.417  0.00  0.00    -0.293 N 
ATOM     25  C16 UNL     1      10.873   1.425  22.559  0.00  0.00    +0.154 C 
BRANCH  23  26
ATOM     26  O3  UNL     1       8.649   3.317  21.760  0.00  0.00    -0.480 OA
ATOM     27  H16 UNL     1       8.112   3.737  21.013  0.00  0.00    +0.295 HD
ENDBRANCH  23  26
ENDBRANCH  10  20
TORSDOF 3
ENDMDL
MODEL 8
REMARK VINA RESULT:    -5.948     14.519     17.241
REMARK INTER + INTRA:          -7.549
REMARK INTER:                  -6.963
REMARK INTRA:                  -0.586
REMARK UNBOUND:                -0.732
REMARK  Name = /home/qwerty/github/datacon2025hack/step_04_hit_selection/docking/ligands/lig_669.pdb
REMARK  5 active torsions:
REMARK  status: ('A' for Active; 'I' for Inactive)
REMARK    1  A    between atoms: C1_1  and  C2_2
REMARK    2  A    between atoms: C5_5  and  C6_6
REMARK    3  A    between atoms: C12_15  and  C13_17
REMARK    4  A    between atoms: C15_20  and  O3_21
REMARK    5  A    between atoms: N4_22  and  C16_23
REMARK                            x       y       z     vdW  Elec       q    Type
REMARK                         _______ _______ _______ _____ _____    ______ ____
ROOT
ATOM      1  C6  UNL     1      20.319   8.026  36.461  0.00  0.00    +0.282 C 
ATOM      2  O1  UNL     1      20.503   9.244  36.730  0.00  0.00    -0.267 OA
ATOM      3  N1  UNL     1      21.321   7.307  35.715  0.00  0.00    -0.293 N 
ATOM      4  C7  UNL     1      22.735   7.651  35.929  0.00  0.00    +0.108 C 
ATOM      5  C8  UNL     1      23.665   6.700  35.174  0.00  0.00    +0.024 C 
ATOM      6  C9  UNL     1      23.243   6.613  33.697  0.00  0.00    +0.014 C 
ATOM      7  C10 UNL     1      24.057   5.557  32.935  0.00  0.00    +0.024 C 
ATOM      8  C11 UNL     1      23.115   4.388  32.680  0.00  0.00    +0.109 C 
ATOM      9  N2  UNL     1      21.772   4.898  32.906  0.00  0.00    -0.291 N 
ATOM     10  C12 UNL     1      20.592   4.281  32.359  0.00  0.00    +0.265 C 
ATOM     11  O2  UNL     1      19.575   4.986  32.121  0.00  0.00    -0.268 OA
ATOM     12  C17 UNL     1      21.761   6.220  33.520  0.00  0.00    +0.097 C 
ATOM     13  C18 UNL     1      20.957   6.184  34.837  0.00  0.00    +0.131 C 
ENDROOT
BRANCH   1  18
ATOM     14  C1  UNL     1      15.563   6.862  36.941  0.00  0.00    +0.086 C 
ATOM     15  C2  UNL     1      17.037   6.859  37.169  0.00  0.00    +0.103 A 
ATOM     16  C3  UNL     1      17.716   6.034  38.044  0.00  0.00    +0.045 A 
ATOM     17  C4  UNL     1      19.048   6.361  37.906  0.00  0.00    +0.055 A 
ATOM     18  C5  UNL     1      19.095   7.364  36.954  0.00  0.00    +0.190 A 
ATOM     19  O4  UNL     1      17.882   7.633  36.528  0.00  0.00    -0.455 OA
ENDBRANCH   1  18
BRANCH  10  20
ATOM     20  C13 UNL     1      20.538   2.829  32.087  0.00  0.00    +0.126 A 
ATOM     21  C14 UNL     1      21.028   2.203  30.958  0.00  0.00    +0.147 A 
ATOM     22  N3  UNL     1      20.909   0.867  31.096  0.00  0.00    -0.203 NA
ATOM     23  C15 UNL     1      20.345   0.711  32.311  0.00  0.00    +0.296 A 
ATOM     24  N4  UNL     1      20.094   1.881  32.938  0.00  0.00    -0.293 N 
ATOM     25  C16 UNL     1      19.526   2.068  34.274  0.00  0.00    +0.154 C 
BRANCH  23  26
ATOM     26  O3  UNL     1      20.077  -0.546  32.850  0.00  0.00    -0.480 OA
ATOM     27  H16 UNL     1      19.132  -0.874  33.003  0.00  0.00    +0.295 HD
ENDBRANCH  23  26
ENDBRANCH  10  20
TORSDOF 3
ENDMDL
MODEL 9
REMARK VINA RESULT:    -5.834     10.967     14.442
REMARK INTER + INTRA:          -7.419
REMARK INTER:                  -6.828
REMARK INTRA:                  -0.591
REMARK UNBOUND:                -0.732
REMARK  Name = /home/qwerty/github/datacon2025hack/step_04_hit_selection/docking/ligands/lig_669.pdb
REMARK  5 active torsions:
REMARK  status: ('A' for Active; 'I' for Inactive)
REMARK    1  A    between atoms: C1_1  and  C2_2
REMARK    2  A    between atoms: C5_5  and  C6_6
REMARK    3  A    between atoms: C12_15  and  C13_17
REMARK    4  A    between atoms: C15_20  and  O3_21
REMARK    5  A    between atoms: N4_22  and  C16_23
REMARK                            x       y       z     vdW  Elec       q    Type
REMARK                         _______ _______ _______ _____ _____    ______ ____
ROOT
ATOM      1  C6  UNL     1       8.927   8.120  21.955  0.00  0.00    +0.282 C 
ATOM      2  O1  UNL     1       7.958   8.705  22.511  0.00  0.00    -0.267 OA
ATOM      3  N1  UNL     1       8.974   6.679  21.948  0.00  0.00    -0.293 N 
ATOM      4  C7  UNL     1       7.708   5.937  21.847  0.00  0.00    +0.108 C 
ATOM      5  C8  UNL     1       7.948   4.433  21.706  0.00  0.00    +0.024 C 
ATOM      6  C9  UNL     1       8.889   3.944  22.820  0.00  0.00    +0.014 C 
ATOM      7  C10 UNL     1       9.275   2.470  22.631  0.00  0.00    +0.024 C 
ATOM      8  C11 UNL     1      10.731   2.459  22.182  0.00  0.00    +0.109 C 
ATOM      9  N2  UNL     1      11.255   3.781  22.488  0.00  0.00    -0.291 N 
ATOM     10  C12 UNL     1      12.660   4.055  22.641  0.00  0.00    +0.265 C 
ATOM     11  O2  UNL     1      13.031   5.000  23.388  0.00  0.00    -0.268 OA
ATOM     12  C17 UNL     1      10.217   4.730  22.870  0.00  0.00    +0.097 C 
ATOM     13  C18 UNL     1      10.257   5.959  21.937  0.00  0.00    +0.131 C 
ENDROOT
BRANCH   1  18
ATOM     14  C1  UNL     1      13.319  10.113  20.989  0.00  0.00    +0.086 C 
ATOM     15  C2  UNL     1      11.865   9.802  20.874  0.00  0.00    +0.103 A 
ATOM     16  C3  UNL     1      11.014  10.277  19.896  0.00  0.00    +0.045 A 
ATOM     17  C4  UNL     1       9.784   9.716  20.169  0.00  0.00    +0.055 A 
ATOM     18  C5  UNL     1       9.967   8.933  21.295  0.00  0.00    +0.190 A 
ATOM     19  O4  UNL     1      11.219   8.999  21.687  0.00  0.00    -0.455 OA
ENDBRANCH   1  18
BRANCH  10  20
ATOM     20  C13 UNL     1      13.682   3.264  21.924  0.00  0.00    +0.126 A 
ATOM     21  C14 UNL     1      14.461   2.266  22.475  0.00  0.00    +0.147 A 
ATOM     22  N3  UNL     1      15.201   1.687  21.510  0.00  0.00    -0.203 NA
ATOM     23  C15 UNL     1      14.854   2.349  20.387  0.00  0.00    +0.296 A 
ATOM     24  N4  UNL     1      13.943   3.323  20.601  0.00  0.00    -0.293 N 
ATOM     25  C16 UNL     1      13.329   4.200  19.603  0.00  0.00    +0.154 C 
BRANCH  23  26
ATOM     26  O3  UNL     1      15.385   2.028  19.140  0.00  0.00    -0.480 OA
ATOM     27  H16 UNL     1      14.852   1.526  18.442  0.00  0.00    +0.295 HD
ENDBRANCH  23  26
ENDBRANCH  10  20
TORSDOF 3
ENDMDL
