REMARK  Name = /home/qwerty/github/datacon2025hack/step_04_hit_selection/docking/ligands/lig_109.pdb
REMARK  5 active torsions:
REMARK  status: ('A' for Active; 'I' for Inactive)
REMARK    1  A    between atoms: C1_1  and  C2_2
REMARK    2  A    between atoms: C2_2  and  N1_3
REMARK    3  A    between atoms: C2_2  and  C12_15
REMARK    4  A    between atoms: C3_4  and  C4_6
REMARK    5  A    between atoms: C15_18  and  N2_19
REMARK                            x       y       z     vdW  Elec       q    Type
REMARK                         _______ _______ _______ _____ _____    ______ ____
ROOT
ATOM      1  C1  UNL     1       1.632  -3.028  -2.278  0.00  0.00    +0.033 C 
ATOM      2  C2  UNL     1       1.221  -1.552  -2.237  0.00  0.00    +0.100 C 
ENDROOT
BRANCH   2   3
ATOM      3  C12 UNL     1       2.285  -0.733  -1.540  0.00  0.00    -0.027 A 
ATOM      4  C13 UNL     1       3.154   0.078  -2.286  0.00  0.00    +0.007 A 
ATOM      5  C14 UNL     1       4.148   0.827  -1.650  0.00  0.00    +0.028 A 
ATOM      6  C15 UNL     1       4.298   0.777  -0.250  0.00  0.00    +0.067 A 
ATOM      7  C18 UNL     1       3.435  -0.049   0.491  0.00  0.00    +0.028 A 
ATOM      8  C19 UNL     1       2.442  -0.797  -0.145  0.00  0.00    +0.007 A 
BRANCH   6   9
ATOM      9  N2  UNL     1       5.318   1.543   0.424  0.00  0.00    -0.220 N 
ATOM     10  C16 UNL     1       6.132   2.486  -0.092  0.00  0.00    +0.225 A 
ATOM     11  N3  UNL     1       6.955   2.991   0.847  0.00  0.00    -0.222 NA
ATOM     12  C17 UNL     1       6.595   2.305   1.952  0.00  0.00    +0.245 A 
ATOM     13  N4  UNL     1       5.604   1.426   1.710  0.00  0.00    -0.154 NA
ENDBRANCH   6   9
ENDBRANCH   2   3
BRANCH   2  14
ATOM     14  N1  UNL     1      -0.072  -1.393  -1.562  0.00  0.00    -0.304 N 
ATOM     15  C3  UNL     1      -0.795  -0.151  -1.597  0.00  0.00    +0.251 C 
ATOM     16  O1  UNL     1      -0.379   0.795  -2.320  0.00  0.00    -0.270 OA
ATOM     17  H5  UNL     1      -0.479  -2.208  -1.052  0.00  0.00    +0.150 HD
BRANCH  15  18
ATOM     18  C4  UNL     1      -2.022   0.045  -0.803  0.00  0.00    +0.074 A 
ATOM     19  C5  UNL     1      -2.564  -0.832   0.138  0.00  0.00    +0.024 A 
ATOM     20  C6  UNL     1      -3.741  -0.348   0.724  0.00  0.00    -0.036 A 
ATOM     21  C7  UNL     1      -4.098   0.919   0.282  0.00  0.00    -0.006 A 
ATOM     22  S1  UNL     1      -2.997   1.422  -0.881  0.00  0.00    -0.088 S 
ATOM     23  C8  UNL     1      -5.351   1.633   0.687  0.00  0.00    +0.043 C 
ATOM     24  C9  UNL     1      -5.913   1.048   1.994  0.00  0.00    +0.005 C 
ATOM     25  C10 UNL     1      -5.924  -0.491   1.959  0.00  0.00    +0.005 C 
ATOM     26  C11 UNL     1      -4.501  -1.059   1.808  0.00  0.00    +0.036 C 
ENDBRANCH  15  18
ENDBRANCH   2  14
TORSDOF 4
