MODEL 1
REMARK VINA RESULT:    -5.818      0.000      0.000
REMARK INTER + INTRA:          -7.739
REMARK INTER:                  -7.859
REMARK INTRA:                   0.120
REMARK UNBOUND:                 0.120
REMARK  Name = /home/qwerty/github/datacon2025hack/step_04_hit_selection/docking/ligands/lig_641.pdb
REMARK  8 active torsions:
REMARK  status: ('A' for Active; 'I' for Inactive)
REMARK    1  A    between atoms: C1_1  and  C2_2
REMARK    2  A    between atoms: C2_2  and  C3_3
REMARK    3  A    between atoms: C2_2  and  C14_20
REMARK    4  A    between atoms: C3_3  and  C4_4
REMARK    5  A    between atoms: N1_6  and  C5_7
REMARK    6  A    between atoms: C7_9  and  N2_10
REMARK    7  A    between atoms: N2_10  and  C8_11
REMARK    8  A    between atoms: C9_12  and  C10_14
REMARK                            x       y       z     vdW  Elec       q    Type
REMARK                         _______ _______ _______ _____ _____    ______ ____
ROOT
ATOM      1  C5  UNL     1      21.918   3.172  32.761  0.00  0.00    +0.076 C 
ATOM      2  C6  UNL     1      20.738   4.109  33.032  0.00  0.00    +0.045 C 
ATOM      3  C7  UNL     1      21.681   5.307  32.952  0.00  0.00    +0.080 C 
ATOM      4  C13 UNL     1      22.855   4.374  32.646  0.00  0.00    +0.045 C 
ENDROOT
BRANCH   1   7
ATOM      5  C4  UNL     1      21.104   1.185  31.427  0.00  0.00    +0.214 C 
ATOM      6  O1  UNL     1      20.586   0.685  32.463  0.00  0.00    -0.276 OA
ATOM      7  N1  UNL     1      21.799   2.437  31.500  0.00  0.00    -0.312 N 
ATOM      8  H7  UNL     1      22.176   2.849  30.616  0.00  0.00    +0.149 HD
BRANCH   5   9
ATOM      9  C3  UNL     1      20.951   0.478  30.112  0.00  0.00    +0.106 C 
BRANCH   9  11
ATOM     10  C1  UNL     1      22.710  -0.927  28.916  0.00  0.00    +0.016 C 
ATOM     11  C2  UNL     1      22.263   0.488  29.302  0.00  0.00    +0.061 C 
BRANCH  11  12
ATOM     12  C14 UNL     1      22.084   1.316  28.060  0.00  0.00    +0.108 A 
ATOM     13  C15 UNL     1      21.079   1.165  27.125  0.00  0.00    +0.045 A 
ATOM     14  C16 UNL     1      21.313   2.131  26.171  0.00  0.00    +0.041 A 
ATOM     15  C17 UNL     1      22.442   2.811  26.581  0.00  0.00    +0.195 A 
ATOM     16  O4  UNL     1      22.879   2.302  27.711  0.00  0.00    -0.468 OA
ENDBRANCH  11  12
ENDBRANCH   9  11
ENDBRANCH   5   9
ENDBRANCH   1   7
BRANCH   3  17
ATOM     17  N2  UNL     1      21.806   6.042  34.227  0.00  0.00    -0.296 N 
ATOM     18  C8  UNL     1      23.037   5.933  35.012  0.00  0.00    +0.132 C 
ATOM     19  C9  UNL     1      20.778   6.925  34.711  0.00  0.00    +0.268 C 
ATOM     20  O2  UNL     1      20.556   8.014  34.119  0.00  0.00    -0.268 OA
BRANCH  19  21
ATOM     21  C10 UNL     1      19.981   6.571  35.896  0.00  0.00    +0.163 A 
ATOM     22  C11 UNL     1      20.114   7.098  37.161  0.00  0.00    +0.230 A 
ATOM     23  O3  UNL     1      19.235   6.501  37.926  0.00  0.00    -0.450 OA
ATOM     24  C12 UNL     1      18.585   5.637  37.179  0.00  0.00    +0.308 A 
ATOM     25  N3  UNL     1      19.014   5.634  35.899  0.00  0.00    -0.212 NA
ENDBRANCH  19  21
ENDBRANCH   3  17
TORSDOF 6
ENDMDL
MODEL 2
REMARK VINA RESULT:    -5.813      2.109      9.313
REMARK INTER + INTRA:          -7.732
REMARK INTER:                  -8.098
REMARK INTRA:                   0.366
REMARK UNBOUND:                 0.120
REMARK  Name = /home/qwerty/github/datacon2025hack/step_04_hit_selection/docking/ligands/lig_641.pdb
REMARK  8 active torsions:
REMARK  status: ('A' for Active; 'I' for Inactive)
REMARK    1  A    between atoms: C1_1  and  C2_2
REMARK    2  A    between atoms: C2_2  and  C3_3
REMARK    3  A    between atoms: C2_2  and  C14_20
REMARK    4  A    between atoms: C3_3  and  C4_4
REMARK    5  A    between atoms: N1_6  and  C5_7
REMARK    6  A    between atoms: C7_9  and  N2_10
REMARK    7  A    between atoms: N2_10  and  C8_11
REMARK    8  A    between atoms: C9_12  and  C10_14
REMARK                            x       y       z     vdW  Elec       q    Type
REMARK                         _______ _______ _______ _____ _____    ______ ____
ROOT
ATOM      1  C5  UNL     1      20.901   4.262  32.746  0.00  0.00    +0.076 C 
ATOM      2  C6  UNL     1      21.707   2.996  33.047  0.00  0.00    +0.045 C 
ATOM      3  C7  UNL     1      22.224   2.995  31.610  0.00  0.00    +0.080 C 
ATOM      4  C13 UNL     1      21.446   4.280  31.319  0.00  0.00    +0.045 C 
ENDROOT
BRANCH   1   7
ATOM      5  C4  UNL     1      20.648   5.830  34.714  0.00  0.00    +0.214 C 
ATOM      6  O1  UNL     1      19.637   5.189  35.112  0.00  0.00    -0.276 OA
ATOM      7  N1  UNL     1      21.337   5.426  33.523  0.00  0.00    -0.312 N 
ATOM      8  H7  UNL     1      22.198   5.949  33.244  0.00  0.00    +0.149 HD
BRANCH   5   9
ATOM      9  C3  UNL     1      21.146   6.995  35.519  0.00  0.00    +0.106 C 
BRANCH   9  11
ATOM     10  C1  UNL     1      21.876   6.981  37.961  0.00  0.00    +0.016 C 
ATOM     11  C2  UNL     1      20.692   6.910  36.988  0.00  0.00    +0.061 C 
BRANCH  11  12
ATOM     12  C14 UNL     1      19.728   8.026  37.286  0.00  0.00    +0.108 A 
ATOM     13  C15 UNL     1      18.492   7.887  37.886  0.00  0.00    +0.045 A 
ATOM     14  C16 UNL     1      17.970   9.161  37.955  0.00  0.00    +0.041 A 
ATOM     15  C17 UNL     1      18.916   9.995  37.394  0.00  0.00    +0.195 A 
ATOM     16  O4  UNL     1      19.953   9.288  37.005  0.00  0.00    -0.468 OA
ENDBRANCH  11  12
ENDBRANCH   9  11
ENDBRANCH   5   9
ENDBRANCH   1   7
BRANCH   3  17
ATOM     17  N2  UNL     1      21.777   1.824  30.827  0.00  0.00    -0.296 N 
ATOM     18  C8  UNL     1      20.759   0.928  31.377  0.00  0.00    +0.132 C 
ATOM     19  C9  UNL     1      22.262   1.556  29.499  0.00  0.00    +0.268 C 
ATOM     20  O2  UNL     1      21.926   2.306  28.545  0.00  0.00    -0.268 OA
BRANCH  19  21
ATOM     21  C10 UNL     1      23.144   0.407  29.240  0.00  0.00    +0.163 A 
ATOM     22  C11 UNL     1      22.752  -0.872  28.915  0.00  0.00    +0.230 A 
ATOM     23  O3  UNL     1      23.838  -1.592  28.791  0.00  0.00    -0.450 OA
ATOM     24  C12 UNL     1      24.863  -0.805  29.032  0.00  0.00    +0.308 A 
ATOM     25  N3  UNL     1      24.488   0.458  29.324  0.00  0.00    -0.212 NA
ENDBRANCH  19  21
ENDBRANCH   3  17
TORSDOF 6
ENDMDL
MODEL 3
REMARK VINA RESULT:    -5.811     12.774     14.419
REMARK INTER + INTRA:          -7.729
REMARK INTER:                  -7.701
REMARK INTRA:                  -0.028
REMARK UNBOUND:                 0.120
REMARK  Name = /home/qwerty/github/datacon2025hack/step_04_hit_selection/docking/ligands/lig_641.pdb
REMARK  8 active torsions:
REMARK  status: ('A' for Active; 'I' for Inactive)
REMARK    1  A    between atoms: C1_1  and  C2_2
REMARK    2  A    between atoms: C2_2  and  C3_3
REMARK    3  A    between atoms: C2_2  and  C14_20
REMARK    4  A    between atoms: C3_3  and  C4_4
REMARK    5  A    between atoms: N1_6  and  C5_7
REMARK    6  A    between atoms: C7_9  and  N2_10
REMARK    7  A    between atoms: N2_10  and  C8_11
REMARK    8  A    between atoms: C9_12  and  C10_14
REMARK                            x       y       z     vdW  Elec       q    Type
REMARK                         _______ _______ _______ _____ _____    ______ ____
ROOT
ATOM      1  C5  UNL     1      11.801  13.460  31.217  0.00  0.00    +0.076 C 
ATOM      2  C6  UNL     1      11.373  12.249  32.051  0.00  0.00    +0.045 C 
ATOM      3  C7  UNL     1      11.302  13.138  33.290  0.00  0.00    +0.080 C 
ATOM      4  C13 UNL     1      11.696  14.356  32.451  0.00  0.00    +0.045 C 
ENDROOT
BRANCH   1   7
ATOM      5  C4  UNL     1      11.010  13.422  28.816  0.00  0.00    +0.214 C 
ATOM      6  O1  UNL     1      12.023  12.749  28.479  0.00  0.00    -0.276 OA
ATOM      7  N1  UNL     1      10.831  13.823  30.181  0.00  0.00    -0.312 N 
ATOM      8  H7  UNL     1       9.959  14.340  30.438  0.00  0.00    +0.149 HD
BRANCH   5   9
ATOM      9  C3  UNL     1       9.975  13.764  27.784  0.00  0.00    +0.106 C 
BRANCH   9  11
ATOM     10  C1  UNL     1       7.509  14.319  27.454  0.00  0.00    +0.016 C 
ATOM     11  C2  UNL     1       8.545  13.611  28.337  0.00  0.00    +0.061 C 
BRANCH  11  12
ATOM     12  C14 UNL     1       8.199  12.152  28.449  0.00  0.00    +0.108 A 
ATOM     13  C15 UNL     1       7.843  11.492  29.609  0.00  0.00    +0.045 A 
ATOM     14  C16 UNL     1       7.617  10.185  29.237  0.00  0.00    +0.041 A 
ATOM     15  C17 UNL     1       7.847  10.127  27.877  0.00  0.00    +0.195 A 
ATOM     16  O4  UNL     1       8.192  11.316  27.436  0.00  0.00    -0.468 OA
ENDBRANCH  11  12
ENDBRANCH   9  11
ENDBRANCH   5   9
ENDBRANCH   1   7
BRANCH   3  17
ATOM     17  N2  UNL     1      12.286  12.774  34.330  0.00  0.00    -0.296 N 
ATOM     18  C8  UNL     1      11.848  12.045  35.522  0.00  0.00    +0.132 C 
ATOM     19  C9  UNL     1      13.691  13.055  34.193  0.00  0.00    +0.268 C 
ATOM     20  O2  UNL     1      14.376  12.428  33.344  0.00  0.00    -0.268 OA
BRANCH  19  21
ATOM     21  C10 UNL     1      14.340  14.067  35.041  0.00  0.00    +0.163 A 
ATOM     22  C11 UNL     1      15.671  14.113  35.390  0.00  0.00    +0.230 A 
ATOM     23  O3  UNL     1      15.833  15.152  36.170  0.00  0.00    -0.450 OA
ATOM     24  C12 UNL     1      14.660  15.727  36.309  0.00  0.00    +0.308 A 
ATOM     25  N3  UNL     1      13.686  15.088  35.628  0.00  0.00    -0.212 NA
ENDBRANCH  19  21
ENDBRANCH   3  17
TORSDOF 6
ENDMDL
MODEL 4
REMARK VINA RESULT:    -5.808      1.649      1.841
REMARK INTER + INTRA:          -7.725
REMARK INTER:                  -7.841
REMARK INTRA:                   0.116
REMARK UNBOUND:                 0.120
REMARK  Name = /home/qwerty/github/datacon2025hack/step_04_hit_selection/docking/ligands/lig_641.pdb
REMARK  8 active torsions:
REMARK  status: ('A' for Active; 'I' for Inactive)
REMARK    1  A    between atoms: C1_1  and  C2_2
REMARK    2  A    between atoms: C2_2  and  C3_3
REMARK    3  A    between atoms: C2_2  and  C14_20
REMARK    4  A    between atoms: C3_3  and  C4_4
REMARK    5  A    between atoms: N1_6  and  C5_7
REMARK    6  A    between atoms: C7_9  and  N2_10
REMARK    7  A    between atoms: N2_10  and  C8_11
REMARK    8  A    between atoms: C9_12  and  C10_14
REMARK                            x       y       z     vdW  Elec       q    Type
REMARK                         _______ _______ _______ _____ _____    ______ ____
ROOT
ATOM      1  C5  UNL     1      21.473   3.567  32.158  0.00  0.00    +0.076 C 
ATOM      2  C6  UNL     1      22.076   4.785  31.453  0.00  0.00    +0.045 C 
ATOM      3  C7  UNL     1      22.989   5.017  32.655  0.00  0.00    +0.080 C 
ATOM      4  C13 UNL     1      22.412   3.779  33.345  0.00  0.00    +0.045 C 
ENDROOT
BRANCH   1   7
ATOM      5  C4  UNL     1      20.671   1.538  30.881  0.00  0.00    +0.214 C 
ATOM      6  O1  UNL     1      19.478   1.937  30.970  0.00  0.00    -0.276 OA
ATOM      7  N1  UNL     1      21.734   2.305  31.461  0.00  0.00    -0.312 N 
ATOM      8  H7  UNL     1      22.717   1.973  31.330  0.00  0.00    +0.149 HD
BRANCH   5   9
ATOM      9  C3  UNL     1      20.972   0.275  30.127  0.00  0.00    +0.106 C 
BRANCH   9  11
ATOM     10  C1  UNL     1      22.809  -0.989  28.893  0.00  0.00    +0.016 C 
ATOM     11  C2  UNL     1      22.284   0.386  29.327  0.00  0.00    +0.061 C 
BRANCH  11  12
ATOM     12  C14 UNL     1      22.066   1.247  28.114  0.00  0.00    +0.108 A 
ATOM     13  C15 UNL     1      21.042   1.109  27.198  0.00  0.00    +0.045 A 
ATOM     14  C16 UNL     1      21.240   2.106  26.268  0.00  0.00    +0.041 A 
ATOM     15  C17 UNL     1      22.370   2.789  26.673  0.00  0.00    +0.195 A 
ATOM     16  O4  UNL     1      22.839   2.253  27.776  0.00  0.00    -0.468 OA
ENDBRANCH  11  12
ENDBRANCH   9  11
ENDBRANCH   5   9
ENDBRANCH   1   7
BRANCH   3  17
ATOM     17  N2  UNL     1      22.719   6.287  33.361  0.00  0.00    -0.296 N 
ATOM     18  C8  UNL     1      23.437   7.501  32.972  0.00  0.00    +0.132 C 
ATOM     19  C9  UNL     1      21.718   6.398  34.389  0.00  0.00    +0.268 C 
ATOM     20  O2  UNL     1      20.498   6.320  34.089  0.00  0.00    -0.268 OA
BRANCH  19  21
ATOM     21  C10 UNL     1      22.105   6.609  35.793  0.00  0.00    +0.163 A 
ATOM     22  C11 UNL     1      23.342   6.368  36.348  0.00  0.00    +0.230 A 
ATOM     23  O3  UNL     1      23.261   6.663  37.621  0.00  0.00    -0.450 OA
ATOM     24  C12 UNL     1      22.032   7.063  37.856  0.00  0.00    +0.308 A 
ATOM     25  N3  UNL     1      21.261   7.045  36.748  0.00  0.00    -0.212 NA
ENDBRANCH  19  21
ENDBRANCH   3  17
TORSDOF 6
ENDMDL
MODEL 5
REMARK VINA RESULT:    -5.778      5.649     10.918
REMARK INTER + INTRA:          -7.685
REMARK INTER:                  -7.792
REMARK INTRA:                   0.107
REMARK UNBOUND:                 0.120
REMARK  Name = /home/qwerty/github/datacon2025hack/step_04_hit_selection/docking/ligands/lig_641.pdb
REMARK  8 active torsions:
REMARK  status: ('A' for Active; 'I' for Inactive)
REMARK    1  A    between atoms: C1_1  and  C2_2
REMARK    2  A    between atoms: C2_2  and  C3_3
REMARK    3  A    between atoms: C2_2  and  C14_20
REMARK    4  A    between atoms: C3_3  and  C4_4
REMARK    5  A    between atoms: N1_6  and  C5_7
REMARK    6  A    between atoms: C7_9  and  N2_10
REMARK    7  A    between atoms: N2_10  and  C8_11
REMARK    8  A    between atoms: C9_12  and  C10_14
REMARK                            x       y       z     vdW  Elec       q    Type
REMARK                         _______ _______ _______ _____ _____    ______ ____
ROOT
ATOM      1  C5  UNL     1      18.520   0.867  25.917  0.00  0.00    +0.076 C 
ATOM      2  C6  UNL     1      17.127   0.538  26.462  0.00  0.00    +0.045 C 
ATOM      3  C7  UNL     1      17.082  -0.701  25.570  0.00  0.00    +0.080 C 
ATOM      4  C13 UNL     1      18.488  -0.391  25.052  0.00  0.00    +0.045 C 
ENDROOT
BRANCH   1   7
ATOM      5  C4  UNL     1      20.842   1.446  26.736  0.00  0.00    +0.214 C 
ATOM      6  O1  UNL     1      21.083   2.057  25.659  0.00  0.00    -0.276 OA
ATOM      7  N1  UNL     1      19.570   0.814  26.938  0.00  0.00    -0.312 N 
ATOM      8  H7  UNL     1      19.382   0.356  27.859  0.00  0.00    +0.149 HD
BRANCH   5   9
ATOM      9  C3  UNL     1      21.881   1.420  27.819  0.00  0.00    +0.106 C 
BRANCH   9  11
ATOM     10  C1  UNL     1      22.797  -0.701  28.895  0.00  0.00    +0.016 C 
ATOM     11  C2  UNL     1      21.624   0.285  28.829  0.00  0.00    +0.061 C 
BRANCH  11  12
ATOM     12  C14 UNL     1      21.380   0.868  30.194  0.00  0.00    +0.108 A 
ATOM     13  C15 UNL     1      21.883   2.066  30.663  0.00  0.00    +0.045 A 
ATOM     14  C16 UNL     1      21.403   2.191  31.948  0.00  0.00    +0.041 A 
ATOM     15  C17 UNL     1      20.640   1.066  32.184  0.00  0.00    +0.195 A 
ATOM     16  O4  UNL     1      20.646   0.296  31.120  0.00  0.00    -0.468 OA
ENDBRANCH  11  12
ENDBRANCH   9  11
ENDBRANCH   5   9
ENDBRANCH   1   7
BRANCH   3  17
ATOM     17  N2  UNL     1      16.027  -0.641  24.537  0.00  0.00    -0.296 N 
ATOM     18  C8  UNL     1      14.878  -1.544  24.619  0.00  0.00    +0.132 C 
ATOM     19  C9  UNL     1      16.049   0.323  23.470  0.00  0.00    +0.268 C 
ATOM     20  O2  UNL     1      15.854   1.542  23.720  0.00  0.00    -0.268 OA
BRANCH  19  21
ATOM     21  C10 UNL     1      16.291  -0.099  22.081  0.00  0.00    +0.163 A 
ATOM     22  C11 UNL     1      16.991  -1.211  21.672  0.00  0.00    +0.230 A 
ATOM     23  O3  UNL     1      16.994  -1.210  20.363  0.00  0.00    -0.450 OA
ATOM     24  C12 UNL     1      16.334  -0.145  19.969  0.00  0.00    +0.308 A 
ATOM     25  N3  UNL     1      15.874   0.592  21.002  0.00  0.00    -0.212 NA
ENDBRANCH  19  21
ENDBRANCH   3  17
TORSDOF 6
ENDMDL
MODEL 6
REMARK VINA RESULT:    -5.680     12.136     14.364
REMARK INTER + INTRA:          -7.553
REMARK INTER:                  -7.523
REMARK INTRA:                  -0.030
REMARK UNBOUND:                 0.120
REMARK  Name = /home/qwerty/github/datacon2025hack/step_04_hit_selection/docking/ligands/lig_641.pdb
REMARK  8 active torsions:
REMARK  status: ('A' for Active; 'I' for Inactive)
REMARK    1  A    between atoms: C1_1  and  C2_2
REMARK    2  A    between atoms: C2_2  and  C3_3
REMARK    3  A    between atoms: C2_2  and  C14_20
REMARK    4  A    between atoms: C3_3  and  C4_4
REMARK    5  A    between atoms: N1_6  and  C5_7
REMARK    6  A    between atoms: C7_9  and  N2_10
REMARK    7  A    between atoms: N2_10  and  C8_11
REMARK    8  A    between atoms: C9_12  and  C10_14
REMARK                            x       y       z     vdW  Elec       q    Type
REMARK                         _______ _______ _______ _____ _____    ______ ____
ROOT
ATOM      1  C5  UNL     1      11.881  13.842  31.313  0.00  0.00    +0.076 C 
ATOM      2  C6  UNL     1      11.194  12.945  32.347  0.00  0.00    +0.045 C 
ATOM      3  C7  UNL     1      11.337  14.052  33.389  0.00  0.00    +0.080 C 
ATOM      4  C13 UNL     1      11.992  14.962  32.347  0.00  0.00    +0.045 C 
ENDROOT
BRANCH   1   7
ATOM      5  C4  UNL     1      10.991  13.434  28.982  0.00  0.00    +0.214 C 
ATOM      6  O1  UNL     1      11.737  12.423  28.860  0.00  0.00    -0.276 OA
ATOM      7  N1  UNL     1      11.012  14.205  30.191  0.00  0.00    -0.312 N 
ATOM      8  H7  UNL     1      10.349  15.008  30.280  0.00  0.00    +0.149 HD
BRANCH   5   9
ATOM      9  C3  UNL     1      10.054  13.798  27.867  0.00  0.00    +0.106 C 
BRANCH   9  11
ATOM     10  C1  UNL     1       7.627  14.296  27.269  0.00  0.00    +0.016 C 
ATOM     11  C2  UNL     1       8.580  13.669  28.296  0.00  0.00    +0.061 C 
BRANCH  11  12
ATOM     12  C14 UNL     1       8.232  12.219  28.486  0.00  0.00    +0.108 A 
ATOM     13  C15 UNL     1       8.249  11.248  27.504  0.00  0.00    +0.045 A 
ATOM     14  C16 UNL     1       7.864  10.082  28.129  0.00  0.00    +0.041 A 
ATOM     15  C17 UNL     1       7.635  10.412  29.450  0.00  0.00    +0.195 A 
ATOM     16  O4  UNL     1       7.863  11.693  29.631  0.00  0.00    -0.468 OA
ENDBRANCH  11  12
ENDBRANCH   9  11
ENDBRANCH   5   9
ENDBRANCH   1   7
BRANCH   3  17
ATOM     17  N2  UNL     1      12.219  13.686  34.516  0.00  0.00    -0.296 N 
ATOM     18  C8  UNL     1      13.526  14.331  34.655  0.00  0.00    +0.132 C 
ATOM     19  C9  UNL     1      11.819  12.754  35.536  0.00  0.00    +0.268 C 
ATOM     20  O2  UNL     1      10.920  13.071  36.359  0.00  0.00    -0.268 OA
BRANCH  19  21
ATOM     21  C10 UNL     1      12.453  11.429  35.632  0.00  0.00    +0.163 A 
ATOM     22  C11 UNL     1      13.512  11.084  36.441  0.00  0.00    +0.230 A 
ATOM     23  O3  UNL     1      13.784   9.825  36.210  0.00  0.00    -0.450 OA
ATOM     24  C12 UNL     1      12.939   9.401  35.296  0.00  0.00    +0.308 A 
ATOM     25  N3  UNL     1      12.085  10.365  34.894  0.00  0.00    -0.212 NA
ENDBRANCH  19  21
ENDBRANCH   3  17
TORSDOF 6
ENDMDL
MODEL 7
REMARK VINA RESULT:    -5.606     14.599     17.184
REMARK INTER + INTRA:          -7.453
REMARK INTER:                  -7.603
REMARK INTRA:                   0.150
REMARK UNBOUND:                 0.120
REMARK  Name = /home/qwerty/github/datacon2025hack/step_04_hit_selection/docking/ligands/lig_641.pdb
REMARK  8 active torsions:
REMARK  status: ('A' for Active; 'I' for Inactive)
REMARK    1  A    between atoms: C1_1  and  C2_2
REMARK    2  A    between atoms: C2_2  and  C3_3
REMARK    3  A    between atoms: C2_2  and  C14_20
REMARK    4  A    between atoms: C3_3  and  C4_4
REMARK    5  A    between atoms: N1_6  and  C5_7
REMARK    6  A    between atoms: C7_9  and  N2_10
REMARK    7  A    between atoms: N2_10  and  C8_11
REMARK    8  A    between atoms: C9_12  and  C10_14
REMARK                            x       y       z     vdW  Elec       q    Type
REMARK                         _______ _______ _______ _____ _____    ______ ____
ROOT
ATOM      1  C5  UNL     1       8.457   9.454  26.038  0.00  0.00    +0.076 C 
ATOM      2  C6  UNL     1       9.696   8.998  25.262  0.00  0.00    +0.045 C 
ATOM      3  C7  UNL     1       9.098   9.580  23.983  0.00  0.00    +0.080 C 
ATOM      4  C13 UNL     1       7.876  10.066  24.764  0.00  0.00    +0.045 C 
ENDROOT
BRANCH   1   7
ATOM      5  C4  UNL     1       8.010  10.523  28.285  0.00  0.00    +0.214 C 
ATOM      6  O1  UNL     1       7.078   9.702  28.505  0.00  0.00    -0.276 OA
ATOM      7  N1  UNL     1       8.749  10.464  27.058  0.00  0.00    -0.312 N 
ATOM      8  H7  UNL     1       9.546  11.127  26.924  0.00  0.00    +0.149 HD
BRANCH   5   9
ATOM      9  C3  UNL     1       8.364  11.535  29.335  0.00  0.00    +0.106 C 
BRANCH   9  11
ATOM     10  C1  UNL     1       7.351  13.854  29.643  0.00  0.00    +0.016 C 
ATOM     11  C2  UNL     1       8.277  12.975  28.793  0.00  0.00    +0.061 C 
BRANCH  11  12
ATOM     12  C14 UNL     1       9.651  13.584  28.751  0.00  0.00    +0.108 A 
ATOM     13  C15 UNL     1      10.556  13.609  29.793  0.00  0.00    +0.045 A 
ATOM     14  C16 UNL     1      11.667  14.261  29.304  0.00  0.00    +0.041 A 
ATOM     15  C17 UNL     1      11.372  14.593  27.997  0.00  0.00    +0.195 A 
ATOM     16  O4  UNL     1      10.163  14.176  27.697  0.00  0.00    -0.468 OA
ENDBRANCH  11  12
ENDBRANCH   9  11
ENDBRANCH   5   9
ENDBRANCH   1   7
BRANCH   3  17
ATOM     17  N2  UNL     1       8.798   8.558  22.959  0.00  0.00    -0.296 N 
ATOM     18  C8  UNL     1       7.909   8.887  21.843  0.00  0.00    +0.132 C 
ATOM     19  C9  UNL     1       9.400   7.251  22.976  0.00  0.00    +0.268 C 
ATOM     20  O2  UNL     1      10.627   7.122  22.726  0.00  0.00    -0.268 OA
BRANCH  19  21
ATOM     21  C10 UNL     1       8.594   6.058  23.277  0.00  0.00    +0.163 A 
ATOM     22  C11 UNL     1       8.339   5.533  24.524  0.00  0.00    +0.230 A 
ATOM     23  O3  UNL     1       7.606   4.462  24.354  0.00  0.00    -0.450 OA
ATOM     24  C12 UNL     1       7.414   4.317  23.062  0.00  0.00    +0.308 A 
ATOM     25  N3  UNL     1       8.014   5.286  22.338  0.00  0.00    -0.212 NA
ENDBRANCH  19  21
ENDBRANCH   3  17
TORSDOF 6
ENDMDL
MODEL 8
REMARK VINA RESULT:    -5.417      2.789      8.244
REMARK INTER + INTRA:          -7.198
REMARK INTER:                  -7.312
REMARK INTRA:                   0.114
REMARK UNBOUND:                 0.120
REMARK  Name = /home/qwerty/github/datacon2025hack/step_04_hit_selection/docking/ligands/lig_641.pdb
REMARK  8 active torsions:
REMARK  status: ('A' for Active; 'I' for Inactive)
REMARK    1  A    between atoms: C1_1  and  C2_2
REMARK    2  A    between atoms: C2_2  and  C3_3
REMARK    3  A    between atoms: C2_2  and  C14_20
REMARK    4  A    between atoms: C3_3  and  C4_4
REMARK    5  A    between atoms: N1_6  and  C5_7
REMARK    6  A    between atoms: C7_9  and  N2_10
REMARK    7  A    between atoms: N2_10  and  C8_11
REMARK    8  A    between atoms: C9_12  and  C10_14
REMARK                            x       y       z     vdW  Elec       q    Type
REMARK                         _______ _______ _______ _____ _____    ______ ____
ROOT
ATOM      1  C5  UNL     1      21.168   4.010  32.805  0.00  0.00    +0.076 C 
ATOM      2  C6  UNL     1      22.140   3.596  31.697  0.00  0.00    +0.045 C 
ATOM      3  C7  UNL     1      20.964   3.078  30.872  0.00  0.00    +0.080 C 
ATOM      4  C13 UNL     1      19.989   3.523  31.964  0.00  0.00    +0.045 C 
ENDROOT
BRANCH   1   7
ATOM      5  C4  UNL     1      21.909   6.073  34.067  0.00  0.00    +0.214 C 
ATOM      6  O1  UNL     1      22.643   5.369  34.813  0.00  0.00    -0.276 OA
ATOM      7  N1  UNL     1      21.129   5.457  33.033  0.00  0.00    -0.312 N 
ATOM      8  H7  UNL     1      20.567   6.072  32.401  0.00  0.00    +0.149 HD
BRANCH   5   9
ATOM      9  C3  UNL     1      21.891   7.563  34.244  0.00  0.00    +0.106 C 
BRANCH   9  11
ATOM     10  C1  UNL     1      20.646   9.426  33.029  0.00  0.00    +0.016 C 
ATOM     11  C2  UNL     1      21.676   8.295  32.906  0.00  0.00    +0.061 C 
BRANCH  11  12
ATOM     12  C14 UNL     1      22.984   8.857  32.420  0.00  0.00    +0.108 A 
ATOM     13  C15 UNL     1      23.228   9.361  31.158  0.00  0.00    +0.045 A 
ATOM     14  C16 UNL     1      24.548   9.758  31.167  0.00  0.00    +0.041 A 
ATOM     15  C17 UNL     1      25.026   9.472  32.430  0.00  0.00    +0.195 A 
ATOM     16  O4  UNL     1      24.070   8.935  33.154  0.00  0.00    -0.468 OA
ENDBRANCH  11  12
ENDBRANCH   9  11
ENDBRANCH   5   9
ENDBRANCH   1   7
BRANCH   3  17
ATOM     17  N2  UNL     1      21.002   1.618  30.651  0.00  0.00    -0.296 N 
ATOM     18  C8  UNL     1      20.617   0.709  31.732  0.00  0.00    +0.132 C 
ATOM     19  C9  UNL     1      21.346   1.040  29.378  0.00  0.00    +0.268 C 
ATOM     20  O2  UNL     1      20.558   1.155  28.403  0.00  0.00    -0.268 OA
BRANCH  19  21
ATOM     21  C10 UNL     1      22.611   0.310  29.203  0.00  0.00    +0.163 A 
ATOM     22  C11 UNL     1      22.753  -1.019  28.872  0.00  0.00    +0.230 A 
ATOM     23  O3  UNL     1      24.035  -1.278  28.839  0.00  0.00    -0.450 OA
ATOM     24  C12 UNL     1      24.669  -0.167  29.142  0.00  0.00    +0.308 A 
ATOM     25  N3  UNL     1      23.827   0.860  29.384  0.00  0.00    -0.212 NA
ENDBRANCH  19  21
ENDBRANCH   3  17
TORSDOF 6
ENDMDL
MODEL 9
REMARK VINA RESULT:    -5.407     11.962     15.440
REMARK INTER + INTRA:          -7.184
REMARK INTER:                  -7.288
REMARK INTRA:                   0.104
REMARK UNBOUND:                 0.120
REMARK  Name = /home/qwerty/github/datacon2025hack/step_04_hit_selection/docking/ligands/lig_641.pdb
REMARK  8 active torsions:
REMARK  status: ('A' for Active; 'I' for Inactive)
REMARK    1  A    between atoms: C1_1  and  C2_2
REMARK    2  A    between atoms: C2_2  and  C3_3
REMARK    3  A    between atoms: C2_2  and  C14_20
REMARK    4  A    between atoms: C3_3  and  C4_4
REMARK    5  A    between atoms: N1_6  and  C5_7
REMARK    6  A    between atoms: C7_9  and  N2_10
REMARK    7  A    between atoms: N2_10  and  C8_11
REMARK    8  A    between atoms: C9_12  and  C10_14
REMARK                            x       y       z     vdW  Elec       q    Type
REMARK                         _______ _______ _______ _____ _____    ______ ____
ROOT
ATOM      1  C5  UNL     1      11.915  14.483  32.293  0.00  0.00    +0.076 C 
ATOM      2  C6  UNL     1      11.771  13.156  31.543  0.00  0.00    +0.045 C 
ATOM      3  C7  UNL     1      12.544  13.748  30.367  0.00  0.00    +0.080 C 
ATOM      4  C13 UNL     1      12.719  15.062  31.130  0.00  0.00    +0.045 C 
ENDROOT
BRANCH   1   7
ATOM      5  C4  UNL     1      12.091  14.151  34.794  0.00  0.00    +0.214 C 
ATOM      6  O1  UNL     1      10.837  14.053  34.882  0.00  0.00    -0.276 OA
ATOM      7  N1  UNL     1      12.710  14.374  33.519  0.00  0.00    -0.312 N 
ATOM      8  H7  UNL     1      13.754  14.404  33.471  0.00  0.00    +0.149 HD
BRANCH   5   9
ATOM      9  C3  UNL     1      12.932  13.992  36.026  0.00  0.00    +0.106 C 
BRANCH   9  11
ATOM     10  C1  UNL     1      14.667  15.804  36.475  0.00  0.00    +0.016 C 
ATOM     11  C2  UNL     1      14.382  14.460  35.793  0.00  0.00    +0.061 C 
BRANCH  11  12
ATOM     12  C14 UNL     1      15.339  13.421  36.309  0.00  0.00    +0.108 A 
ATOM     13  C15 UNL     1      15.023  12.387  37.169  0.00  0.00    +0.045 A 
ATOM     14  C16 UNL     1      16.199  11.696  37.364  0.00  0.00    +0.041 A 
ATOM     15  C17 UNL     1      17.157  12.348  36.613  0.00  0.00    +0.195 A 
ATOM     16  O4  UNL     1      16.613  13.372  35.996  0.00  0.00    -0.468 OA
ENDBRANCH  11  12
ENDBRANCH   9  11
ENDBRANCH   5   9
ENDBRANCH   1   7
BRANCH   3  17
ATOM     17  N2  UNL     1      11.739  13.863  29.134  0.00  0.00    -0.296 N 
ATOM     18  C8  UNL     1      12.052  14.907  28.156  0.00  0.00    +0.132 C 
ATOM     19  C9  UNL     1      10.681  12.941  28.817  0.00  0.00    +0.268 C 
ATOM     20  O2  UNL     1      10.956  11.751  28.510  0.00  0.00    -0.268 OA
BRANCH  19  21
ATOM     21  C10 UNL     1       9.275  13.374  28.841  0.00  0.00    +0.163 A 
ATOM     22  C11 UNL     1       8.515  13.758  27.759  0.00  0.00    +0.230 A 
ATOM     23  O3  UNL     1       7.332  14.089  28.211  0.00  0.00    -0.450 OA
ATOM     24  C12 UNL     1       7.349  13.927  29.515  0.00  0.00    +0.308 A 
ATOM     25  N3  UNL     1       8.542  13.486  29.966  0.00  0.00    -0.212 NA
ENDBRANCH  19  21
ENDBRANCH   3  17
TORSDOF 6
ENDMDL
