REMARK  Name = /home/qwerty/github/datacon2025hack/step_04_hit_selection/docking/ligands/lig_421.pdb
REMARK  7 active torsions:
REMARK  status: ('A' for Active; 'I' for Inactive)
REMARK    1  A    between atoms: C1_1  and  C2_2
REMARK    2  A    between atoms: C4_4  and  C5_5
REMARK    3  A    between atoms: C7_7  and  N1_8
REMARK    4  A    between atoms: C10_12  and  S1_13
REMARK    5  A    between atoms: S1_13  and  C11_14
REMARK    6  A    between atoms: C11_14  and  C12_15
REMARK    7  A    between atoms: C16_21  and  C17_22
REMARK                            x       y       z     vdW  Elec       q    Type
REMARK                         _______ _______ _______ _____ _____    ______ ____
ROOT
ATOM      1  C12 UNL     1       0.535   1.754  -0.239  0.00  0.00    +0.226 C 
ATOM      2  O1  UNL     1      -0.147   2.327  -1.135  0.00  0.00    -0.275 OA
ATOM      3  N3  UNL     1       1.292   0.564  -0.560  0.00  0.00    -0.300 N 
ATOM      4  C13 UNL     1       0.950  -0.231  -1.748  0.00  0.00    +0.108 C 
ATOM      5  C14 UNL     1       2.182  -0.412  -2.646  0.00  0.00    +0.020 C 
ATOM      6  C15 UNL     1       3.494  -0.661  -1.856  0.00  0.00    +0.013 C 
ATOM      7  C16 UNL     1       3.238  -0.999  -0.374  0.00  0.00    +0.055 C 
ATOM      8  C21 UNL     1       2.428   0.137   0.285  0.00  0.00    +0.117 C 
ENDROOT
BRANCH   7   9
ATOM      9  C17 UNL     1       4.545  -1.240   0.352  0.00  0.00    +0.053 A 
ATOM     10  C18 UNL     1       4.834  -2.496   0.911  0.00  0.00    +0.041 A 
ATOM     11  C19 UNL     1       6.070  -2.684   1.533  0.00  0.00    +0.089 A 
ATOM     12  N4  UNL     1       6.964  -1.656   1.600  0.00  0.00    -0.313 N 
ATOM     13  C20 UNL     1       6.669  -0.438   1.059  0.00  0.00    +0.346 A 
ATOM     14  O2  UNL     1       7.505   0.506   1.124  0.00  0.00    -0.245 OA
ATOM     15  N5  UNL     1       5.471  -0.242   0.442  0.00  0.00    -0.198 NA
ATOM     16  H22 UNL     1       7.888  -1.811   2.069  0.00  0.00    +0.170 HD
ENDBRANCH   7   9
BRANCH   1  17
ATOM     17  C11 UNL     1       0.488   2.315   1.156  0.00  0.00    +0.173 C 
BRANCH  17  18
ATOM     18  S1  UNL     1      -0.961   1.664   2.073  0.00  0.00    -0.078 S 
BRANCH  18  23
ATOM     19  N1  UNL     1      -3.174   2.324   0.463  0.00  0.00    -0.295 N 
ATOM     20  C8  UNL     1      -3.836   3.452   0.133  0.00  0.00    +0.113 A 
ATOM     21  C9  UNL     1      -3.206   4.520   0.724  0.00  0.00    +0.131 A 
ATOM     22  N2  UNL     1      -2.156   4.078   1.442  0.00  0.00    -0.230 NA
ATOM     23  C10 UNL     1      -2.155   2.740   1.254  0.00  0.00    +0.174 A 
BRANCH  19  30
ATOM     24  C1  UNL     1      -2.214  -2.393  -0.877  0.00  0.00    +0.044 C 
ATOM     25  C2  UNL     1      -3.188  -1.332  -0.457  0.00  0.00    -0.048 A 
ATOM     26  C3  UNL     1      -4.563  -1.610  -0.391  0.00  0.00    +0.006 A 
ATOM     27  C4  UNL     1      -5.473  -0.603  -0.037  0.00  0.00    -0.048 A 
ATOM     28  C5  UNL     1      -6.950  -0.879  -0.030  0.00  0.00    +0.044 C 
ATOM     29  C6  UNL     1      -5.002   0.689   0.239  0.00  0.00    +0.029 A 
ATOM     30  C7  UNL     1      -3.627   0.981   0.194  0.00  0.00    +0.049 A 
ATOM     31  C22 UNL     1      -2.726  -0.040  -0.160  0.00  0.00    +0.029 A 
ENDBRANCH  19  30
ENDBRANCH  18  23
ENDBRANCH  17  18
ENDBRANCH   1  17
TORSDOF 5
