REMARK  Name = /home/qwerty/github/datacon2025hack/step_04_hit_selection/docking/ligands/lig_759.pdb
REMARK  6 active torsions:
REMARK  status: ('A' for Active; 'I' for Inactive)
REMARK    1  A    between atoms: C1_2  and  O2_3
REMARK    2  A    between atoms: C1_2  and  C2_4
REMARK    3  A    between atoms: C4_6  and  S1_7
REMARK    4  A    between atoms: S1_7  and  N1_10
REMARK    5  A    between atoms: N1_10  and  C5_11
REMARK    6  A    between atoms: C13_20  and  N2_21
REMARK                            x       y       z     vdW  Elec       q    Type
REMARK                         _______ _______ _______ _____ _____    ______ ____
ROOT
ATOM      1  C2  UNL     1      -0.954  -0.078  -0.693  0.00  0.00    +0.082 A 
ATOM      2  C3  UNL     1       0.116   0.308  -1.522  0.00  0.00    +0.045 A 
ATOM      3  C4  UNL     1       0.757   1.540  -1.343  0.00  0.00    +0.109 A 
ATOM      4  C11 UNL     1       0.317   2.411  -0.343  0.00  0.00    +0.030 A 
ATOM      5  C12 UNL     1      -0.740   2.046   0.489  0.00  0.00    +0.026 A 
ATOM      6  C13 UNL     1      -1.377   0.805   0.332  0.00  0.00    +0.044 A 
ENDROOT
BRANCH   6   7
ATOM      7  N2  UNL     1      -2.417   0.437   1.250  0.00  0.00    -0.325 N 
ATOM      8  C14 UNL     1      -3.647   1.228   1.295  0.00  0.00    +0.133 C 
ATOM      9  C15 UNL     1      -4.773   0.393   1.910  0.00  0.00    +0.178 C 
ATOM     10  O5  UNL     1      -4.373  -0.148   3.156  0.00  0.00    -0.377 OA
ATOM     11  C16 UNL     1      -3.317  -1.070   2.961  0.00  0.00    +0.178 C 
ATOM     12  C17 UNL     1      -2.067  -0.366   2.424  0.00  0.00    +0.133 C 
ENDBRANCH   6   7
BRANCH   3  13
ATOM     13  S1  UNL     1       2.121   1.977  -2.369  0.00  0.00    +0.072 S 
ATOM     14  O3  UNL     1       1.595   2.569  -3.646  0.00  0.00    -0.150 OA
ATOM     15  O4  UNL     1       2.998   2.987  -1.683  0.00  0.00    -0.150 OA
BRANCH  13  16
ATOM     16  N1  UNL     1       3.064   0.567  -2.736  0.00  0.00    -0.216 N 
ATOM     17  H3  UNL     1       3.221   0.353  -3.747  0.00  0.00    +0.174 HD
BRANCH  16  18
ATOM     18  C5  UNL     1       3.487  -0.387  -1.747  0.00  0.00    +0.048 A 
ATOM     19  C6  UNL     1       3.911  -1.661  -2.160  0.00  0.00    +0.025 A 
ATOM     20  C7  UNL     1       4.309  -2.616  -1.220  0.00  0.00    +0.017 A 
ATOM     21  C8  UNL     1       4.294  -2.306   0.143  0.00  0.00    +0.018 A 
ATOM     22 BR1  UNL     1       4.833  -3.614   1.427  0.00  0.00    -0.050 Br
ATOM     23  C9  UNL     1       3.886  -1.038   0.565  0.00  0.00    +0.017 A 
ATOM     24  C10 UNL     1       3.489  -0.080  -0.372  0.00  0.00    +0.025 A 
ENDBRANCH  16  18
ENDBRANCH  13  16
ENDBRANCH   3  13
BRANCH   1  26
ATOM     25  O1  UNL     1      -2.727  -1.660  -0.423  0.00  0.00    -0.245 OA
ATOM     26  C1  UNL     1      -1.607  -1.390  -0.933  0.00  0.00    +0.339 C 
BRANCH  26  27
ATOM     27  O2  UNL     1      -0.990  -2.336  -1.748  0.00  0.00    -0.477 OA
ATOM     28  H1  UNL     1      -1.421  -3.236  -1.919  0.00  0.00    +0.295 HD
ENDBRANCH  26  27
ENDBRANCH   1  26
TORSDOF 6
