REMARK  Name = /home/qwerty/github/datacon2025hack/step_04_hit_selection/docking/ligands/lig_528.pdb
REMARK  10 active torsions:
REMARK  status: ('A' for Active; 'I' for Inactive)
REMARK    1  A    between atoms: C1_1  and  C2_2
REMARK    2  A    between atoms: N2_4  and  C3_5
REMARK    3  A    between atoms: C4_6  and  C5_7
REMARK    4  A    between atoms: C6_8  and  S1_9
REMARK    5  A    between atoms: S1_9  and  N3_12
REMARK    6  A    between atoms: N3_12  and  C7_13
REMARK    7  A    between atoms: C7_13  and  C8_14
REMARK    8  A    between atoms: C7_13  and  C9_15
REMARK    9  A    between atoms: N4_17  and  C10_18
REMARK   10  A    between atoms: C14_23  and  C15_24
REMARK                            x       y       z     vdW  Elec       q    Type
REMARK                         _______ _______ _______ _____ _____    ______ ____
ROOT
ATOM      1  C9  UNL     1      -1.151   1.915  -1.256  0.00  0.00    +0.236 C 
ATOM      2  O3  UNL     1      -0.101   2.404  -1.753  0.00  0.00    -0.274 OA
ATOM      3  N4  UNL     1      -1.109   1.209  -0.004  0.00  0.00    -0.284 N 
ATOM      4  H15 UNL     1      -2.015   0.998   0.467  0.00  0.00    +0.155 HD
ENDROOT
BRANCH   3   5
ATOM      5  C10 UNL     1       0.101   0.851   0.687  0.00  0.00    +0.034 A 
ATOM      6  C11 UNL     1       0.090   0.785   2.103  0.00  0.00    +0.025 A 
ATOM      7  C12 UNL     1       1.248   0.430   2.819  0.00  0.00    +0.028 A 
ATOM      8  C13 UNL     1       2.398   0.133   2.090  0.00  0.00    +0.047 A 
ATOM      9  N5  UNL     1       3.600  -0.221   2.573  0.00  0.00    -0.354 N 
ATOM     10  C14 UNL     1       4.392  -0.412   1.489  0.00  0.00    +0.047 A 
ATOM     11  C21 UNL     1       3.677  -0.182   0.310  0.00  0.00    +0.036 A 
ATOM     12  C22 UNL     1       2.411   0.169   0.722  0.00  0.00    +0.002 A 
ATOM     13  C23 UNL     1       1.282   0.513  -0.017  0.00  0.00    +0.033 A 
ATOM     14  H18 UNL     1       3.851  -0.339   3.580  0.00  0.00    +0.166 HD
BRANCH  10  15
ATOM     15  C15 UNL     1       5.824  -0.790   1.563  0.00  0.00    -0.002 A 
ATOM     16  C16 UNL     1       6.457  -1.417   0.473  0.00  0.00    +0.010 A 
ATOM     17  C17 UNL     1       7.813  -1.755   0.539  0.00  0.00    +0.001 A 
ATOM     18  C18 UNL     1       8.551  -1.469   1.689  0.00  0.00    +0.000 A 
ATOM     19  C19 UNL     1       7.934  -0.850   2.779  0.00  0.00    +0.001 A 
ATOM     20  C20 UNL     1       6.578  -0.513   2.720  0.00  0.00    +0.010 A 
ENDBRANCH  10  15
ENDBRANCH   3   5
BRANCH   1  21
ATOM     21  C7  UNL     1      -2.459   2.029  -2.008  0.00  0.00    +0.159 C 
ATOM     22  C8  UNL     1      -2.620   3.419  -2.624  0.00  0.00    +0.035 C 
BRANCH  21  23
ATOM     23  N3  UNL     1      -2.544   1.012  -3.076  0.00  0.00    -0.178 NA
ATOM     24  H10 UNL     1      -1.725   0.364  -3.055  0.00  0.00    +0.149 HD
BRANCH  23  25
ATOM     25  S1  UNL     1      -3.969   0.030  -2.903  0.00  0.00    +0.063 S 
ATOM     26  O1  UNL     1      -3.960  -1.054  -3.944  0.00  0.00    -0.153 OA
ATOM     27  O2  UNL     1      -5.184   0.888  -3.119  0.00  0.00    -0.153 OA
BRANCH  25  35
ATOM     28  C1  UNL     1      -1.886  -2.166  -1.454  0.00  0.00    +0.069 C 
ATOM     29  C2  UNL     1      -3.103  -1.623  -0.778  0.00  0.00    +0.086 A 
ATOM     30  N1  UNL     1      -3.403  -1.873   0.512  0.00  0.00    -0.174 NA
ATOM     31  N2  UNL     1      -4.477  -1.162   0.819  0.00  0.00    -0.269 N 
ATOM     32  C3  UNL     1      -5.086  -1.169   2.144  0.00  0.00    +0.172 C 
ATOM     33  C4  UNL     1      -4.874  -0.439  -0.253  0.00  0.00    +0.062 A 
ATOM     34  C5  UNL     1      -6.031   0.517  -0.279  0.00  0.00    +0.067 C 
ATOM     35  C6  UNL     1      -4.007  -0.710  -1.299  0.00  0.00    +0.148 A 
ENDBRANCH  25  35
ENDBRANCH  23  25
ENDBRANCH  21  23
ENDBRANCH   1  21
TORSDOF 6
