REMARK  Name = /home/qwerty/github/datacon2025hack/step_04_hit_selection/docking/ligands/lig_485.pdb
REMARK  5 active torsions:
REMARK  status: ('A' for Active; 'I' for Inactive)
REMARK    1  A    between atoms: C1_1  and  C2_2
REMARK    2  A    between atoms: C2_2  and  C3_3
REMARK    3  A    between atoms: C2_2  and  N1_4
REMARK    4  A    between atoms: C7_8  and  C8_9
REMARK    5  A    between atoms: C13_17  and  C14_19
REMARK                            x       y       z     vdW  Elec       q    Type
REMARK                         _______ _______ _______ _____ _____    ______ ____
ROOT
ATOM      1  C8  UNL     1      -0.867  -1.789   0.117  0.00  0.00    +0.233 C 
ATOM      2  O1  UNL     1      -0.361  -2.522   1.007  0.00  0.00    -0.274 OA
ATOM      3  N2  UNL     1      -0.012  -1.121  -0.813  0.00  0.00    -0.295 N 
ATOM      4  C9  UNL     1      -0.143  -0.295  -2.032  0.00  0.00    +0.113 C 
ATOM      5  C10 UNL     1       1.327  -0.081  -2.238  0.00  0.00    +0.030 C 
ATOM      6  C11 UNL     1       1.815   1.369  -2.065  0.00  0.00    +0.026 C 
ATOM      7  C12 UNL     1       3.212   1.369  -1.436  0.00  0.00    +0.108 C 
ATOM      8  N3  UNL     1       3.246   0.567  -0.201  0.00  0.00    -0.294 N 
ATOM      9  C13 UNL     1       4.444   0.582   0.598  0.00  0.00    +0.266 C 
ATOM     10  O2  UNL     1       5.566   0.654   0.026  0.00  0.00    -0.268 OA
ATOM     11  C17 UNL     1       2.066  -0.208   0.214  0.00  0.00    +0.131 C 
ATOM     12  C18 UNL     1       1.439  -0.926  -0.998  0.00  0.00    +0.098 C 
ENDROOT
BRANCH   1  17
ATOM     13  N1  UNL     1      -2.704  -0.209  -0.125  0.00  0.00    -0.289 NA
ATOM     14  C4  UNL     1      -3.876  -0.159  -1.004  0.00  0.00    +0.085 C 
ATOM     15  C5  UNL     1      -3.735  -1.338  -1.945  0.00  0.00    +0.017 C 
ATOM     16  C6  UNL     1      -2.952  -2.377  -1.157  0.00  0.00    +0.029 C 
ATOM     17  C7  UNL     1      -2.360  -1.627   0.044  0.00  0.00    +0.144 C 
BRANCH  13  19
ATOM     18  C1  UNL     1      -4.074   0.371   1.943  0.00  0.00    +0.024 C 
ATOM     19  C2  UNL     1      -2.774   0.569   1.138  0.00  0.00    +0.051 C 
ATOM     20  C3  UNL     1      -2.544   2.053   0.841  0.00  0.00    +0.024 C 
ENDBRANCH  13  19
ENDBRANCH   1  17
BRANCH   9  21
ATOM     21  C14 UNL     1       4.394   0.550   2.076  0.00  0.00    +0.135 A 
ATOM     22  C15 UNL     1       5.537   0.299   2.871  0.00  0.00    +0.042 A 
ATOM     23  C16 UNL     1       5.289   0.336   4.236  0.00  0.00    +0.067 A 
ATOM     24  S1  UNL     1       3.666   0.688   4.359  0.00  0.00    +0.004 S 
ATOM     25  N4  UNL     1       3.245   0.799   2.758  0.00  0.00    -0.206 NA
ENDBRANCH   9  21
TORSDOF 3
