REMARK  Name = /home/qwerty/github/datacon2025hack/step_04_hit_selection/docking/ligands/lig_58.pdb
REMARK  6 active torsions:
REMARK  status: ('A' for Active; 'I' for Inactive)
REMARK    1  A    between atoms: C1_1  and  C2_2
REMARK    2  A    between atoms: C2_2  and  C3_3
REMARK    3  A    between atoms: C2_2  and  N3_16
REMARK    4  A    between atoms: C3_3  and  N1_4
REMARK    5  A    between atoms: C4_5  and  C5_7
REMARK    6  A    between atoms: C13_17  and  C14_19
REMARK                            x       y       z     vdW  Elec       q    Type
REMARK                         _______ _______ _______ _____ _____    ______ ____
ROOT
ATOM      1  N1  UNL     1      -0.173   0.908   0.937  0.00  0.00    -0.308 N 
ATOM      2  C4  UNL     1      -1.023   0.989  -0.218  0.00  0.00    +0.260 C 
ATOM      3  O1  UNL     1      -0.536   1.322  -1.333  0.00  0.00    -0.269 OA
ATOM      4  H7  UNL     1      -0.595   0.795   1.885  0.00  0.00    +0.149 HD
ENDROOT
BRANCH   2   5
ATOM      5  C5  UNL     1      -2.466   0.695  -0.127  0.00  0.00    +0.103 A 
ATOM      6  C6  UNL     1      -3.138   0.215   0.999  0.00  0.00    +0.040 A 
ATOM      7  C7  UNL     1      -4.451   0.084   0.603  0.00  0.00    +0.000 A 
ATOM      8  C8  UNL     1      -5.570  -0.356   1.306  0.00  0.00    +0.010 A 
ATOM      9  C9  UNL     1      -6.802  -0.387   0.626  0.00  0.00    +0.001 A 
ATOM     10  C10 UNL     1      -6.883   0.017  -0.726  0.00  0.00    +0.002 A 
ATOM     11  C11 UNL     1      -5.733   0.454  -1.409  0.00  0.00    +0.026 A 
ATOM     12  C12 UNL     1      -4.528   0.474  -0.708  0.00  0.00    +0.047 A 
ATOM     13  N2  UNL     1      -3.323   0.849  -1.167  0.00  0.00    -0.351 N 
ATOM     14  H13 UNL     1      -3.097   1.188  -2.129  0.00  0.00    +0.166 HD
ENDBRANCH   2   5
BRANCH   1  15
ATOM     15  C3  UNL     1       1.280   1.059   0.854  0.00  0.00    +0.126 C 
BRANCH  15  17
ATOM     16  C1  UNL     1       1.714  -1.424   1.109  0.00  0.00    +0.029 C 
ATOM     17  C2  UNL     1       1.936  -0.188   0.230  0.00  0.00    +0.087 C 
BRANCH  17  18
ATOM     18  N3  UNL     1       3.374   0.038   0.048  0.00  0.00    -0.305 N 
ATOM     19  C13 UNL     1       4.165  -0.753  -0.854  0.00  0.00    +0.281 C 
ATOM     20  O2  UNL     1       3.616  -1.639  -1.563  0.00  0.00    -0.267 OA
ATOM     21  H14 UNL     1       3.831   0.817   0.574  0.00  0.00    +0.149 HD
BRANCH  19  22
ATOM     22  C14 UNL     1       5.618  -0.548  -0.978  0.00  0.00    +0.209 A 
ATOM     23  C15 UNL     1       6.414   0.338  -0.282  0.00  0.00    +0.165 A 
ATOM     24  N4  UNL     1       7.686   0.197  -0.701  0.00  0.00    -0.224 NA
ATOM     25  C16 UNL     1       7.610  -0.772  -1.637  0.00  0.00    +0.308 A 
ATOM     26  O3  UNL     1       6.385  -1.217  -1.803  0.00  0.00    -0.438 OA
ENDBRANCH  19  22
ENDBRANCH  17  18
ENDBRANCH  15  17
ENDBRANCH   1  15
TORSDOF 5
