REMARK  Name = /home/qwerty/github/datacon2025hack/step_04_hit_selection/docking/ligands/lig_668.pdb
REMARK  6 active torsions:
REMARK  status: ('A' for Active; 'I' for Inactive)
REMARK    1  A    between atoms: C1_1  and  C2_2
REMARK    2  A    between atoms: C2_2  and  N1_3
REMARK    3  A    between atoms: C2_2  and  C15_19
REMARK    4  A    between atoms: C7_10  and  N3_11
REMARK    5  A    between atoms: N3_11  and  C8_12
REMARK    6  A    between atoms: N4_28  and  C23_29
REMARK                            x       y       z     vdW  Elec       q    Type
REMARK                         _______ _______ _______ _____ _____    ______ ____
ROOT
ATOM      1  N1  UNL     1       0.770   0.482   2.526  0.00  0.00    -0.293 N 
ATOM      2  C3  UNL     1       0.124   1.554   1.823  0.00  0.00    +0.303 C 
ATOM      3  O1  UNL     1       0.778   2.589   1.521  0.00  0.00    -0.253 OA
ATOM      4  N2  UNL     1      -1.269   1.461   1.475  0.00  0.00    -0.284 N 
ATOM      5  C4  UNL     1      -2.057   2.689   1.309  0.00  0.00    +0.109 C 
ATOM      6  C5  UNL     1      -3.494   2.469   1.792  0.00  0.00    +0.021 C 
ATOM      7  C6  UNL     1      -4.127   1.260   1.095  0.00  0.00    +0.025 C 
ATOM      8  C7  UNL     1      -3.253   0.006   1.288  0.00  0.00    +0.088 C 
ATOM      9  C14 UNL     1      -1.786   0.223   0.876  0.00  0.00    +0.131 C 
ATOM     10  H5  UNL     1       0.176  -0.250   2.976  0.00  0.00    +0.151 HD
ENDROOT
BRANCH   1  12
ATOM     11  C1  UNL     1       2.631  -0.705   3.627  0.00  0.00    +0.033 C 
ATOM     12  C2  UNL     1       2.230   0.408   2.654  0.00  0.00    +0.102 C 
BRANCH  12  13
ATOM     13  C15 UNL     1       2.866   0.171   1.302  0.00  0.00    -0.027 A 
ATOM     14  C16 UNL     1       2.371  -0.836   0.438  0.00  0.00    +0.007 A 
ATOM     15  C17 UNL     1       2.969  -1.068  -0.810  0.00  0.00    +0.024 A 
ATOM     16  C18 UNL     1       4.065  -0.285  -1.178  0.00  0.00    +0.040 A 
ATOM     17  C19 UNL     1       4.564   0.688  -0.337  0.00  0.00    -0.017 A 
ATOM     18  C20 UNL     1       3.987   0.934   0.908  0.00  0.00    +0.011 A 
ATOM     19  C21 UNL     1       5.763   1.348  -0.937  0.00  0.00    +0.133 C 
ATOM     20  C22 UNL     1       5.862   0.581  -2.222  0.00  0.00    +0.224 C 
ATOM     21  O2  UNL     1       6.785   0.740  -3.064  0.00  0.00    -0.275 OA
ATOM     22  N4  UNL     1       4.812  -0.372  -2.384  0.00  0.00    -0.274 N 
ATOM     23  C23 UNL     1       4.828  -1.501  -3.308  0.00  0.00    +0.138 C 
ENDBRANCH  12  13
ENDBRANCH   1  12
BRANCH   8  24
ATOM     24  N3  UNL     1      -3.837  -1.190   0.660  0.00  0.00    -0.339 N 
ATOM     25  H13 UNL     1      -4.064  -1.967   1.321  0.00  0.00    +0.146 HD
BRANCH  24  26
ATOM     26  C8  UNL     1      -4.198  -1.397  -0.727  0.00  0.00    +0.027 A 
ATOM     27  C9  UNL     1      -4.908  -2.565  -1.065  0.00  0.00    +0.023 A 
ATOM     28  C10 UNL     1      -5.280  -2.823  -2.388  0.00  0.00    +0.002 A 
ATOM     29  C11 UNL     1      -4.945  -1.919  -3.397  0.00  0.00    +0.000 A 
ATOM     30  C12 UNL     1      -4.237  -0.758  -3.083  0.00  0.00    +0.002 A 
ATOM     31  C13 UNL     1      -3.862  -0.495  -1.760  0.00  0.00    +0.023 A 
ENDBRANCH  24  26
ENDBRANCH   8  24
TORSDOF 4
