MODEL 1
REMARK VINA RESULT:    -7.940      0.000      0.000
REMARK INTER + INTRA:         -11.847
REMARK INTER:                 -10.725
REMARK INTRA:                  -1.122
REMARK UNBOUND:                -1.122
REMARK  Name = /home/qwerty/github/datacon2025hack/step_04_hit_selection/docking/ligands/lig_746.pdb
REMARK  8 active torsions:
REMARK  status: ('A' for Active; 'I' for Inactive)
REMARK    1  A    between atoms: C1_1  and  O1_2
REMARK    2  A    between atoms: O1_2  and  C2_3
REMARK    3  A    between atoms: C5_6  and  N1_7
REMARK    4  A    between atoms: N2_10  and  C7_11
REMARK    5  A    between atoms: C7_11  and  C8_12
REMARK    6  A    between atoms: C7_11  and  C9_13
REMARK    7  A    between atoms: C18_23  and  N3_24
REMARK    8  A    between atoms: C19_25  and  C20_27
REMARK                            x       y       z     vdW  Elec       q    Type
REMARK                         _______ _______ _______ _____ _____    ______ ____
ROOT
ATOM      1  C2  UNL     1       8.386   2.674  24.744  0.00  0.00    +0.141 A 
ATOM      2  C3  UNL     1       8.638   3.447  23.595  0.00  0.00    +0.049 A 
ATOM      3  C4  UNL     1       9.519   2.989  22.613  0.00  0.00    +0.027 A 
ATOM      4  C5  UNL     1      10.150   1.743  22.748  0.00  0.00    +0.037 A 
ATOM      5  C17 UNL     1       9.927   0.988  23.907  0.00  0.00    +0.050 A 
ATOM      6  C18 UNL     1       9.065   1.449  24.912  0.00  0.00    +0.078 A 
ENDROOT
BRANCH   4   7
ATOM      7  N1  UNL     1      11.067   1.255  21.752  0.00  0.00    -0.269 N 
ATOM      8  C6  UNL     1      12.483   1.492  21.782  0.00  0.00    +0.304 C 
ATOM      9  O2  UNL     1      12.965   2.373  22.545  0.00  0.00    -0.252 OA
ATOM     10  N2  UNL     1      13.344   0.746  20.910  0.00  0.00    -0.290 N 
ATOM     11  H6  UNL     1      10.674   0.763  20.918  0.00  0.00    +0.156 HD
ATOM     12  H7  UNL     1      12.908   0.084  20.228  0.00  0.00    +0.151 HD
BRANCH  10  13
ATOM     13  C7  UNL     1      14.790   0.973  20.849  0.00  0.00    +0.137 C 
ATOM     14  C8  UNL     1      15.318   0.574  19.470  0.00  0.00    +0.036 C 
BRANCH  13  15
ATOM     15  C9  UNL     1      15.471   0.203  21.948  0.00  0.00    +0.126 A 
ATOM     16  C10 UNL     1      16.084  -1.037  21.783  0.00  0.00    +0.055 A 
ATOM     17  C11 UNL     1      16.574  -1.342  23.031  0.00  0.00    +0.020 A 
ATOM     18  C12 UNL     1      17.287  -2.448  23.486  0.00  0.00    +0.011 A 
ATOM     19  C13 UNL     1      17.658  -2.474  24.844  0.00  0.00    +0.001 A 
ATOM     20  C14 UNL     1      17.310  -1.405  25.701  0.00  0.00    +0.004 A 
ATOM     21  C15 UNL     1      16.590  -0.300  25.207  0.00  0.00    +0.047 A 
ATOM     22  C16 UNL     1      16.239  -0.304  23.859  0.00  0.00    +0.135 A 
ATOM     23  O3  UNL     1      15.581   0.616  23.200  0.00  0.00    -0.458 OA
ENDBRANCH  13  15
ENDBRANCH  10  13
ENDBRANCH   4   7
BRANCH   6  24
ATOM     24  N3  UNL     1       8.849   0.630  26.073  0.00  0.00    -0.276 N 
ATOM     25  C19 UNL     1       9.588   0.785  27.294  0.00  0.00    +0.284 C 
ATOM     26  O4  UNL     1      10.609   1.523  27.332  0.00  0.00    -0.266 OA
ATOM     27  H18 UNL     1       8.211  -0.194  25.980  0.00  0.00    +0.155 HD
BRANCH  25  28
ATOM     28  C20 UNL     1       9.171   0.061  28.504  0.00  0.00    +0.191 A 
ATOM     29  C21 UNL     1       9.931  -0.890  29.182  0.00  0.00    +0.063 A 
ATOM     30  C22 UNL     1       9.137  -1.269  30.239  0.00  0.00    +0.021 A 
ATOM     31  C23 UNL     1       9.359  -2.186  31.265  0.00  0.00    +0.011 A 
ATOM     32  C24 UNL     1       8.337  -2.359  32.218  0.00  0.00    +0.001 A 
ATOM     33  C25 UNL     1       7.136  -1.619  32.123  0.00  0.00    +0.004 A 
ATOM     34  C26 UNL     1       6.945  -0.702  31.073  0.00  0.00    +0.047 A 
ATOM     35  C27 UNL     1       7.974  -0.552  30.146  0.00  0.00    +0.136 A 
ATOM     36  O5  UNL     1       8.007   0.241  29.104  0.00  0.00    -0.450 OA
ENDBRANCH  25  28
ENDBRANCH   6  24
BRANCH   1  38
ATOM     37  C1  UNL     1       7.750   3.964  26.796  0.00  0.00    +0.277 C 
ATOM     38  O1  UNL     1       7.457   3.081  25.717  0.00  0.00    -0.493 OA
ENDBRANCH   1  38
TORSDOF 6
ENDMDL
MODEL 2
REMARK VINA RESULT:    -7.689     11.303     14.498
REMARK INTER + INTRA:         -11.507
REMARK INTER:                 -10.476
REMARK INTRA:                  -1.032
REMARK UNBOUND:                -1.122
REMARK  Name = /home/qwerty/github/datacon2025hack/step_04_hit_selection/docking/ligands/lig_746.pdb
REMARK  8 active torsions:
REMARK  status: ('A' for Active; 'I' for Inactive)
REMARK    1  A    between atoms: C1_1  and  O1_2
REMARK    2  A    between atoms: O1_2  and  C2_3
REMARK    3  A    between atoms: C5_6  and  N1_7
REMARK    4  A    between atoms: N2_10  and  C7_11
REMARK    5  A    between atoms: C7_11  and  C8_12
REMARK    6  A    between atoms: C7_11  and  C9_13
REMARK    7  A    between atoms: C18_23  and  N3_24
REMARK    8  A    between atoms: C19_25  and  C20_27
REMARK                            x       y       z     vdW  Elec       q    Type
REMARK                         _______ _______ _______ _____ _____    ______ ____
ROOT
ATOM      1  C2  UNL     1      20.957   5.060  21.727  0.00  0.00    +0.141 A 
ATOM      2  C3  UNL     1      20.698   5.716  20.509  0.00  0.00    +0.049 A 
ATOM      3  C4  UNL     1      21.408   6.867  20.159  0.00  0.00    +0.027 A 
ATOM      4  C5  UNL     1      22.404   7.374  21.007  0.00  0.00    +0.037 A 
ATOM      5  C17 UNL     1      22.640   6.742  22.235  0.00  0.00    +0.050 A 
ATOM      6  C18 UNL     1      21.914   5.602  22.610  0.00  0.00    +0.078 A 
ENDROOT
BRANCH   4   7
ATOM      7  N1  UNL     1      23.143   8.561  20.670  0.00  0.00    -0.269 N 
ATOM      8  C6  UNL     1      22.587   9.885  20.693  0.00  0.00    +0.304 C 
ATOM      9  O2  UNL     1      21.338  10.050  20.753  0.00  0.00    -0.252 OA
ATOM     10  N2  UNL     1      23.459  11.021  20.610  0.00  0.00    -0.290 N 
ATOM     11  H6  UNL     1      24.120   8.451  20.314  0.00  0.00    +0.156 HD
ATOM     12  H7  UNL     1      24.482  10.853  20.475  0.00  0.00    +0.151 HD
BRANCH  10  13
ATOM     13  C7  UNL     1      22.957  12.397  20.575  0.00  0.00    +0.137 C 
ATOM     14  C8  UNL     1      23.738  13.205  19.536  0.00  0.00    +0.036 C 
BRANCH  13  15
ATOM     15  C9  UNL     1      23.059  13.009  21.945  0.00  0.00    +0.126 A 
ATOM     16  C10 UNL     1      23.979  13.990  22.308  0.00  0.00    +0.055 A 
ATOM     17  C11 UNL     1      23.695  14.250  23.628  0.00  0.00    +0.020 A 
ATOM     18  C12 UNL     1      24.275  15.140  24.528  0.00  0.00    +0.011 A 
ATOM     19  C13 UNL     1      23.755  15.181  25.835  0.00  0.00    +0.001 A 
ATOM     20  C14 UNL     1      22.681  14.340  26.204  0.00  0.00    +0.004 A 
ATOM     21  C15 UNL     1      22.116  13.452  25.269  0.00  0.00    +0.047 A 
ATOM     22  C16 UNL     1      22.652  13.437  23.983  0.00  0.00    +0.135 A 
ATOM     23  O3  UNL     1      22.278  12.700  22.967  0.00  0.00    -0.458 OA
ENDBRANCH  13  15
ENDBRANCH  10  13
ENDBRANCH   4   7
BRANCH   6  24
ATOM     24  N3  UNL     1      22.207   4.975  23.870  0.00  0.00    -0.276 N 
ATOM     25  C19 UNL     1      21.476   5.250  25.074  0.00  0.00    +0.284 C 
ATOM     26  O4  UNL     1      20.668   6.216  25.123  0.00  0.00    -0.266 OA
ATOM     27  H18 UNL     1      23.068   4.385  23.935  0.00  0.00    +0.155 HD
BRANCH  25  28
ATOM     28  C20 UNL     1      21.686   4.420  26.270  0.00  0.00    +0.191 A 
ATOM     29  C21 UNL     1      21.173   4.682  27.538  0.00  0.00    +0.063 A 
ATOM     30  C22 UNL     1      21.623   3.636  28.309  0.00  0.00    +0.021 A 
ATOM     31  C23 UNL     1      21.431   3.348  29.659  0.00  0.00    +0.011 A 
ATOM     32  C24 UNL     1      22.030   2.180  30.169  0.00  0.00    +0.001 A 
ATOM     33  C25 UNL     1      22.795   1.341  29.327  0.00  0.00    +0.004 A 
ATOM     34  C26 UNL     1      22.969   1.662  27.968  0.00  0.00    +0.047 A 
ATOM     35  C27 UNL     1      22.363   2.824  27.493  0.00  0.00    +0.136 A 
ATOM     36  O5  UNL     1      22.393   3.303  26.274  0.00  0.00    -0.450 OA
ENDBRANCH  25  28
ENDBRANCH   6  24
BRANCH   1  38
ATOM     37  C1  UNL     1      19.003   3.796  22.657  0.00  0.00    +0.277 C 
ATOM     38  O1  UNL     1      20.301   3.867  22.076  0.00  0.00    -0.493 OA
ENDBRANCH   1  38
TORSDOF 6
ENDMDL
MODEL 3
REMARK VINA RESULT:    -7.514     15.134     17.360
REMARK INTER + INTRA:         -11.272
REMARK INTER:                 -10.281
REMARK INTRA:                  -0.991
REMARK UNBOUND:                -1.122
REMARK  Name = /home/qwerty/github/datacon2025hack/step_04_hit_selection/docking/ligands/lig_746.pdb
REMARK  8 active torsions:
REMARK  status: ('A' for Active; 'I' for Inactive)
REMARK    1  A    between atoms: C1_1  and  O1_2
REMARK    2  A    between atoms: O1_2  and  C2_3
REMARK    3  A    between atoms: C5_6  and  N1_7
REMARK    4  A    between atoms: N2_10  and  C7_11
REMARK    5  A    between atoms: C7_11  and  C8_12
REMARK    6  A    between atoms: C7_11  and  C9_13
REMARK    7  A    between atoms: C18_23  and  N3_24
REMARK    8  A    between atoms: C19_25  and  C20_27
REMARK                            x       y       z     vdW  Elec       q    Type
REMARK                         _______ _______ _______ _____ _____    ______ ____
ROOT
ATOM      1  C2  UNL     1      16.097  11.644  36.167  0.00  0.00    +0.141 A 
ATOM      2  C3  UNL     1      15.927  10.654  37.154  0.00  0.00    +0.049 A 
ATOM      3  C4  UNL     1      17.036  10.031  37.730  0.00  0.00    +0.027 A 
ATOM      4  C5  UNL     1      18.336  10.398  37.350  0.00  0.00    +0.037 A 
ATOM      5  C17 UNL     1      18.507  11.359  36.345  0.00  0.00    +0.050 A 
ATOM      6  C18 UNL     1      17.401  11.972  35.739  0.00  0.00    +0.078 A 
ENDROOT
BRANCH   4   7
ATOM      7  N1  UNL     1      19.492   9.764  37.926  0.00  0.00    -0.269 N 
ATOM      8  C6  UNL     1      20.109   8.583  37.390  0.00  0.00    +0.304 C 
ATOM      9  O2  UNL     1      19.505   7.881  36.535  0.00  0.00    -0.252 OA
ATOM     10  N2  UNL     1      21.404   8.185  37.862  0.00  0.00    -0.290 N 
ATOM     11  H6  UNL     1      19.862  10.139  38.829  0.00  0.00    +0.156 HD
ATOM     12  H7  UNL     1      21.844   8.737  38.633  0.00  0.00    +0.151 HD
BRANCH  10  13
ATOM     13  C7  UNL     1      22.068   6.964  37.400  0.00  0.00    +0.137 C 
ATOM     14  C8  UNL     1      23.299   6.685  38.265  0.00  0.00    +0.036 C 
BRANCH  13  15
ATOM     15  C9  UNL     1      22.433   7.104  35.947  0.00  0.00    +0.126 A 
ATOM     16  C10 UNL     1      22.290   6.098  34.994  0.00  0.00    +0.055 A 
ATOM     17  C11 UNL     1      22.728   6.674  33.825  0.00  0.00    +0.020 A 
ATOM     18  C12 UNL     1      22.817   6.161  32.533  0.00  0.00    +0.011 A 
ATOM     19  C13 UNL     1      23.314   7.009  31.525  0.00  0.00    +0.001 A 
ATOM     20  C14 UNL     1      23.705   8.333  31.833  0.00  0.00    +0.004 A 
ATOM     21  C15 UNL     1      23.601   8.820  33.150  0.00  0.00    +0.047 A 
ATOM     22  C16 UNL     1      23.103   7.956  34.123  0.00  0.00    +0.135 A 
ATOM     23  O3  UNL     1      22.920   8.204  35.396  0.00  0.00    -0.458 OA
ENDBRANCH  13  15
ENDBRANCH  10  13
ENDBRANCH   4   7
BRANCH   6  24
ATOM     24  N3  UNL     1      17.626  12.968  34.728  0.00  0.00    -0.276 N 
ATOM     25  C19 UNL     1      17.848  12.651  33.346  0.00  0.00    +0.284 C 
ATOM     26  O4  UNL     1      18.059  11.460  32.991  0.00  0.00    -0.266 OA
ATOM     27  H18 UNL     1      17.754  13.959  35.037  0.00  0.00    +0.155 HD
BRANCH  25  28
ATOM     28  C20 UNL     1      17.856  13.720  32.336  0.00  0.00    +0.191 A 
ATOM     29  C21 UNL     1      18.816  14.724  32.228  0.00  0.00    +0.063 A 
ATOM     30  C22 UNL     1      18.409  15.467  31.144  0.00  0.00    +0.021 A 
ATOM     31  C23 UNL     1      18.968  16.596  30.549  0.00  0.00    +0.011 A 
ATOM     32  C24 UNL     1      18.308  17.139  29.430  0.00  0.00    +0.001 A 
ATOM     33  C25 UNL     1      17.122  16.547  28.941  0.00  0.00    +0.004 A 
ATOM     34  C26 UNL     1      16.583  15.407  29.567  0.00  0.00    +0.047 A 
ATOM     35  C27 UNL     1      17.260  14.892  30.671  0.00  0.00    +0.136 A 
ATOM     36  O5  UNL     1      16.939  13.847  31.392  0.00  0.00    -0.450 OA
ENDBRANCH  25  28
ENDBRANCH   6  24
BRANCH   1  38
ATOM     37  C1  UNL     1      14.097  11.779  34.665  0.00  0.00    +0.277 C 
ATOM     38  O1  UNL     1      15.002  12.331  35.615  0.00  0.00    -0.493 OA
ENDBRANCH   1  38
TORSDOF 6
ENDMDL
MODEL 4
REMARK VINA RESULT:    -7.396      8.639     14.004
REMARK INTER + INTRA:         -11.112
REMARK INTER:                 -10.255
REMARK INTRA:                  -0.856
REMARK UNBOUND:                -1.122
REMARK  Name = /home/qwerty/github/datacon2025hack/step_04_hit_selection/docking/ligands/lig_746.pdb
REMARK  8 active torsions:
REMARK  status: ('A' for Active; 'I' for Inactive)
REMARK    1  A    between atoms: C1_1  and  O1_2
REMARK    2  A    between atoms: O1_2  and  C2_3
REMARK    3  A    between atoms: C5_6  and  N1_7
REMARK    4  A    between atoms: N2_10  and  C7_11
REMARK    5  A    between atoms: C7_11  and  C8_12
REMARK    6  A    between atoms: C7_11  and  C9_13
REMARK    7  A    between atoms: C18_23  and  N3_24
REMARK    8  A    between atoms: C19_25  and  C20_27
REMARK                            x       y       z     vdW  Elec       q    Type
REMARK                         _______ _______ _______ _____ _____    ______ ____
ROOT
ATOM      1  C2  UNL     1      18.958   3.882  22.715  0.00  0.00    +0.141 A 
ATOM      2  C3  UNL     1      18.266   2.914  23.468  0.00  0.00    +0.049 A 
ATOM      3  C4  UNL     1      18.944   2.120  24.396  0.00  0.00    +0.027 A 
ATOM      4  C5  UNL     1      20.320   2.290  24.605  0.00  0.00    +0.037 A 
ATOM      5  C17 UNL     1      21.017   3.229  23.833  0.00  0.00    +0.050 A 
ATOM      6  C18 UNL     1      20.352   4.013  22.879  0.00  0.00    +0.078 A 
ENDROOT
BRANCH   4   7
ATOM      7  N1  UNL     1      21.041   1.479  25.551  0.00  0.00    -0.269 N 
ATOM      8  C6  UNL     1      21.599   1.979  26.775  0.00  0.00    +0.304 C 
ATOM      9  O2  UNL     1      21.719   3.221  26.959  0.00  0.00    -0.252 OA
ATOM     10  N2  UNL     1      22.055   1.057  27.774  0.00  0.00    -0.290 N 
ATOM     11  H6  UNL     1      21.235   0.483  25.299  0.00  0.00    +0.156 HD
ATOM     12  H7  UNL     1      22.022   0.034  27.559  0.00  0.00    +0.151 HD
BRANCH  10  13
ATOM     13  C7  UNL     1      22.683   1.496  29.023  0.00  0.00    +0.137 C 
ATOM     14  C8  UNL     1      23.943   0.669  29.287  0.00  0.00    +0.036 C 
BRANCH  13  15
ATOM     15  C9  UNL     1      21.698   1.383  30.154  0.00  0.00    +0.126 A 
ATOM     16  C10 UNL     1      20.835   0.307  30.348  0.00  0.00    +0.055 A 
ATOM     17  C11 UNL     1      20.145   0.629  31.493  0.00  0.00    +0.020 A 
ATOM     18  C12 UNL     1      19.153  -0.062  32.184  0.00  0.00    +0.011 A 
ATOM     19  C13 UNL     1      18.630   0.533  33.348  0.00  0.00    +0.001 A 
ATOM     20  C14 UNL     1      19.107   1.791  33.783  0.00  0.00    +0.004 A 
ATOM     21  C15 UNL     1      20.113   2.462  33.062  0.00  0.00    +0.047 A 
ATOM     22  C16 UNL     1      20.611   1.844  31.916  0.00  0.00    +0.135 A 
ATOM     23  O3  UNL     1      21.541   2.286  31.109  0.00  0.00    -0.458 OA
ENDBRANCH  13  15
ENDBRANCH  10  13
ENDBRANCH   4   7
BRANCH   6  24
ATOM     24  N3  UNL     1      21.105   4.978  22.126  0.00  0.00    -0.276 N 
ATOM     25  C19 UNL     1      21.313   6.329  22.564  0.00  0.00    +0.284 C 
ATOM     26  O4  UNL     1      20.665   6.789  23.543  0.00  0.00    -0.266 OA
ATOM     27  H18 UNL     1      21.409   4.717  21.160  0.00  0.00    +0.155 HD
BRANCH  25  28
ATOM     28  C20 UNL     1      22.266   7.195  21.855  0.00  0.00    +0.191 A 
ATOM     29  C21 UNL     1      23.648   7.019  21.818  0.00  0.00    +0.063 A 
ATOM     30  C22 UNL     1      24.102   8.055  21.035  0.00  0.00    +0.021 A 
ATOM     31  C23 UNL     1      25.391   8.402  20.636  0.00  0.00    +0.011 A 
ATOM     32  C24 UNL     1      25.538   9.538  19.819  0.00  0.00    +0.001 A 
ATOM     33  C25 UNL     1      24.407  10.289  19.425  0.00  0.00    +0.004 A 
ATOM     34  C26 UNL     1      23.119   9.911  19.847  0.00  0.00    +0.047 A 
ATOM     35  C27 UNL     1      23.005   8.781  20.654  0.00  0.00    +0.136 A 
ATOM     36  O5  UNL     1      21.912   8.256  21.151  0.00  0.00    -0.450 OA
ENDBRANCH  25  28
ENDBRANCH   6  24
BRANCH   1  38
ATOM     37  C1  UNL     1      16.975   4.517  21.322  0.00  0.00    +0.277 C 
ATOM     38  O1  UNL     1      18.290   4.735  21.820  0.00  0.00    -0.493 OA
ENDBRANCH   1  38
TORSDOF 6
ENDMDL
MODEL 5
REMARK VINA RESULT:    -7.372     12.906     16.045
REMARK INTER + INTRA:         -11.079
REMARK INTER:                 -10.212
REMARK INTRA:                  -0.867
REMARK UNBOUND:                -1.122
REMARK  Name = /home/qwerty/github/datacon2025hack/step_04_hit_selection/docking/ligands/lig_746.pdb
REMARK  8 active torsions:
REMARK  status: ('A' for Active; 'I' for Inactive)
REMARK    1  A    between atoms: C1_1  and  O1_2
REMARK    2  A    between atoms: O1_2  and  C2_3
REMARK    3  A    between atoms: C5_6  and  N1_7
REMARK    4  A    between atoms: N2_10  and  C7_11
REMARK    5  A    between atoms: C7_11  and  C8_12
REMARK    6  A    between atoms: C7_11  and  C9_13
REMARK    7  A    between atoms: C18_23  and  N3_24
REMARK    8  A    between atoms: C19_25  and  C20_27
REMARK                            x       y       z     vdW  Elec       q    Type
REMARK                         _______ _______ _______ _____ _____    ______ ____
ROOT
ATOM      1  C2  UNL     1      19.835   9.337  19.736  0.00  0.00    +0.141 A 
ATOM      2  C3  UNL     1      19.904  10.421  18.840  0.00  0.00    +0.049 A 
ATOM      3  C4  UNL     1      20.942  11.351  18.932  0.00  0.00    +0.027 A 
ATOM      4  C5  UNL     1      21.942  11.207  19.905  0.00  0.00    +0.037 A 
ATOM      5  C17 UNL     1      21.856  10.149  20.820  0.00  0.00    +0.050 A 
ATOM      6  C18 UNL     1      20.804   9.224  20.755  0.00  0.00    +0.078 A 
ENDROOT
BRANCH   4   7
ATOM      7  N1  UNL     1      23.017  12.157  20.022  0.00  0.00    -0.269 N 
ATOM      8  C6  UNL     1      22.885  13.443  20.648  0.00  0.00    +0.304 C 
ATOM      9  O2  UNL     1      21.743  13.918  20.892  0.00  0.00    -0.252 OA
ATOM     10  N2  UNL     1      24.061  14.202  20.960  0.00  0.00    -0.290 N 
ATOM     11  H6  UNL     1      23.927  11.932  19.561  0.00  0.00    +0.156 HD
ATOM     12  H7  UNL     1      24.990  13.821  20.669  0.00  0.00    +0.151 HD
BRANCH  10  13
ATOM     13  C7  UNL     1      24.000  15.541  21.549  0.00  0.00    +0.137 C 
ATOM     14  C8  UNL     1      25.331  16.265  21.330  0.00  0.00    +0.036 C 
BRANCH  13  15
ATOM     15  C9  UNL     1      23.660  15.438  23.011  0.00  0.00    +0.126 A 
ATOM     16  C10 UNL     1      24.125  14.441  23.864  0.00  0.00    +0.055 A 
ATOM     17  C11 UNL     1      23.576  14.755  25.085  0.00  0.00    +0.020 A 
ATOM     18  C12 UNL     1      23.686  14.128  26.324  0.00  0.00    +0.011 A 
ATOM     19  C13 UNL     1      22.995  14.698  27.409  0.00  0.00    +0.001 A 
ATOM     20  C14 UNL     1      22.221  15.867  27.230  0.00  0.00    +0.004 A 
ATOM     21  C15 UNL     1      22.132  16.476  25.964  0.00  0.00    +0.047 A 
ATOM     22  C16 UNL     1      22.829  15.889  24.911  0.00  0.00    +0.135 A 
ATOM     23  O3  UNL     1      22.888  16.291  23.666  0.00  0.00    -0.458 OA
ENDBRANCH  13  15
ENDBRANCH  10  13
ENDBRANCH   4   7
BRANCH   6  24
ATOM     24  N3  UNL     1      20.770   8.142  21.700  0.00  0.00    -0.276 N 
ATOM     25  C19 UNL     1      21.467   6.903  21.504  0.00  0.00    +0.284 C 
ATOM     26  O4  UNL     1      21.981   6.631  20.385  0.00  0.00    -0.266 OA
ATOM     27  H18 UNL     1      20.109   8.217  22.507  0.00  0.00    +0.155 HD
BRANCH  25  28
ATOM     28  C20 UNL     1      21.565   5.930  22.601  0.00  0.00    +0.191 A 
ATOM     29  C21 UNL     1      20.777   4.789  22.745  0.00  0.00    +0.063 A 
ATOM     30  C22 UNL     1      21.239   4.200  23.899  0.00  0.00    +0.021 A 
ATOM     31  C23 UNL     1      20.844   3.033  24.550  0.00  0.00    +0.011 A 
ATOM     32  C24 UNL     1      21.521   2.685  25.734  0.00  0.00    +0.001 A 
ATOM     33  C25 UNL     1      22.563   3.502  26.230  0.00  0.00    +0.004 A 
ATOM     34  C26 UNL     1      22.936   4.675  25.547  0.00  0.00    +0.047 A 
ATOM     35  C27 UNL     1      22.248   4.992  24.378  0.00  0.00    +0.136 A 
ATOM     36  O5  UNL     1      22.434   6.024  23.592  0.00  0.00    -0.450 OA
ENDBRANCH  25  28
ENDBRANCH   6  24
BRANCH   1  38
ATOM     37  C1  UNL     1      17.540   8.449  20.207  0.00  0.00    +0.277 C 
ATOM     38  O1  UNL     1      18.837   8.353  19.628  0.00  0.00    -0.493 OA
ENDBRANCH   1  38
TORSDOF 6
ENDMDL
MODEL 6
REMARK VINA RESULT:    -7.343      7.874     11.421
REMARK INTER + INTRA:         -11.040
REMARK INTER:                 -10.552
REMARK INTRA:                  -0.488
REMARK UNBOUND:                -1.122
REMARK  Name = /home/qwerty/github/datacon2025hack/step_04_hit_selection/docking/ligands/lig_746.pdb
REMARK  8 active torsions:
REMARK  status: ('A' for Active; 'I' for Inactive)
REMARK    1  A    between atoms: C1_1  and  O1_2
REMARK    2  A    between atoms: O1_2  and  C2_3
REMARK    3  A    between atoms: C5_6  and  N1_7
REMARK    4  A    between atoms: N2_10  and  C7_11
REMARK    5  A    between atoms: C7_11  and  C8_12
REMARK    6  A    between atoms: C7_11  and  C9_13
REMARK    7  A    between atoms: C18_23  and  N3_24
REMARK    8  A    between atoms: C19_25  and  C20_27
REMARK                            x       y       z     vdW  Elec       q    Type
REMARK                         _______ _______ _______ _____ _____    ______ ____
ROOT
ATOM      1  C2  UNL     1      21.422   2.268  26.891  0.00  0.00    +0.141 A 
ATOM      2  C3  UNL     1      22.601   3.037  26.864  0.00  0.00    +0.049 A 
ATOM      3  C4  UNL     1      22.650   4.233  26.145  0.00  0.00    +0.027 A 
ATOM      4  C5  UNL     1      21.519   4.696  25.456  0.00  0.00    +0.037 A 
ATOM      5  C17 UNL     1      20.355   3.915  25.454  0.00  0.00    +0.050 A 
ATOM      6  C18 UNL     1      20.303   2.699  26.150  0.00  0.00    +0.078 A 
ENDROOT
BRANCH   4   7
ATOM      7  N1  UNL     1      21.549   5.922  24.703  0.00  0.00    -0.269 N 
ATOM      8  C6  UNL     1      21.338   5.996  23.284  0.00  0.00    +0.304 C 
ATOM      9  O2  UNL     1      21.380   4.952  22.579  0.00  0.00    -0.252 OA
ATOM     10  N2  UNL     1      21.116   7.272  22.668  0.00  0.00    -0.290 N 
ATOM     11  H6  UNL     1      21.814   6.801  25.201  0.00  0.00    +0.156 HD
ATOM     12  H7  UNL     1      21.171   8.129  23.264  0.00  0.00    +0.151 HD
BRANCH  10  13
ATOM     13  C7  UNL     1      20.946   7.428  21.221  0.00  0.00    +0.137 C 
ATOM     14  C8  UNL     1      22.222   6.988  20.500  0.00  0.00    +0.036 C 
BRANCH  13  15
ATOM     15  C9  UNL     1      20.593   8.855  20.903  0.00  0.00    +0.126 A 
ATOM     16  C10 UNL     1      20.490   9.377  19.616  0.00  0.00    +0.055 A 
ATOM     17  C11 UNL     1      20.138  10.692  19.810  0.00  0.00    +0.020 A 
ATOM     18  C12 UNL     1      19.888  11.714  18.898  0.00  0.00    +0.011 A 
ATOM     19  C13 UNL     1      19.541  12.979  19.410  0.00  0.00    +0.001 A 
ATOM     20  C14 UNL     1      19.456  13.185  20.806  0.00  0.00    +0.004 A 
ATOM     21  C15 UNL     1      19.714  12.130  21.701  0.00  0.00    +0.047 A 
ATOM     22  C16 UNL     1      20.053  10.890  21.162  0.00  0.00    +0.135 A 
ATOM     23  O3  UNL     1      20.324   9.784  21.806  0.00  0.00    -0.458 OA
ENDBRANCH  13  15
ENDBRANCH  10  13
ENDBRANCH   4   7
BRANCH   6  24
ATOM     24  N3  UNL     1      19.080   1.944  26.137  0.00  0.00    -0.276 N 
ATOM     25  C19 UNL     1      18.901   0.749  25.362  0.00  0.00    +0.284 C 
ATOM     26  O4  UNL     1      19.751   0.421  24.491  0.00  0.00    -0.266 OA
ATOM     27  H18 UNL     1      18.247   2.352  26.620  0.00  0.00    +0.155 HD
BRANCH  25  28
ATOM     28  C20 UNL     1      17.707  -0.087  25.561  0.00  0.00    +0.191 A 
ATOM     29  C21 UNL     1      16.742   0.102  26.548  0.00  0.00    +0.063 A 
ATOM     30  C22 UNL     1      15.832  -0.905  26.329  0.00  0.00    +0.021 A 
ATOM     31  C23 UNL     1      14.650  -1.229  26.993  0.00  0.00    +0.011 A 
ATOM     32  C24 UNL     1      13.920  -2.338  26.525  0.00  0.00    +0.001 A 
ATOM     33  C25 UNL     1      14.384  -3.085  25.418  0.00  0.00    +0.004 A 
ATOM     34  C26 UNL     1      15.582  -2.731  24.770  0.00  0.00    +0.047 A 
ATOM     35  C27 UNL     1      16.281  -1.628  25.256  0.00  0.00    +0.136 A 
ATOM     36  O5  UNL     1      17.405  -1.127  24.805  0.00  0.00    -0.450 OA
ENDBRANCH  25  28
ENDBRANCH   6  24
BRANCH   1  38
ATOM     37  C1  UNL     1      21.952   0.897  28.920  0.00  0.00    +0.277 C 
ATOM     38  O1  UNL     1      21.326   1.093  27.657  0.00  0.00    -0.493 OA
ENDBRANCH   1  38
TORSDOF 6
ENDMDL
MODEL 7
REMARK VINA RESULT:    -7.297      5.945     11.559
REMARK INTER + INTRA:         -10.978
REMARK INTER:                  -9.888
REMARK INTRA:                  -1.090
REMARK UNBOUND:                -1.122
REMARK  Name = /home/qwerty/github/datacon2025hack/step_04_hit_selection/docking/ligands/lig_746.pdb
REMARK  8 active torsions:
REMARK  status: ('A' for Active; 'I' for Inactive)
REMARK    1  A    between atoms: C1_1  and  O1_2
REMARK    2  A    between atoms: O1_2  and  C2_3
REMARK    3  A    between atoms: C5_6  and  N1_7
REMARK    4  A    between atoms: N2_10  and  C7_11
REMARK    5  A    between atoms: C7_11  and  C8_12
REMARK    6  A    between atoms: C7_11  and  C9_13
REMARK    7  A    between atoms: C18_23  and  N3_24
REMARK    8  A    between atoms: C19_25  and  C20_27
REMARK                            x       y       z     vdW  Elec       q    Type
REMARK                         _______ _______ _______ _____ _____    ______ ____
ROOT
ATOM      1  C2  UNL     1      15.517   1.015  22.071  0.00  0.00    +0.141 A 
ATOM      2  C3  UNL     1      14.318   0.288  22.208  0.00  0.00    +0.049 A 
ATOM      3  C4  UNL     1      13.122   0.790  21.691  0.00  0.00    +0.027 A 
ATOM      4  C5  UNL     1      13.101   2.015  21.009  0.00  0.00    +0.037 A 
ATOM      5  C17 UNL     1      14.286   2.756  20.900  0.00  0.00    +0.050 A 
ATOM      6  C18 UNL     1      15.487   2.275  21.439  0.00  0.00    +0.078 A 
ENDROOT
BRANCH   4   7
ATOM      7  N1  UNL     1      11.879   2.555  20.474  0.00  0.00    -0.269 N 
ATOM      8  C6  UNL     1      11.004   3.431  21.201  0.00  0.00    +0.304 C 
ATOM      9  O2  UNL     1      11.127   3.562  22.449  0.00  0.00    -0.252 OA
ATOM     10  N2  UNL     1       9.964   4.131  20.504  0.00  0.00    -0.290 N 
ATOM     11  H6  UNL     1      11.569   2.232  19.529  0.00  0.00    +0.156 HD
ATOM     12  H7  UNL     1       9.832   3.938  19.485  0.00  0.00    +0.151 HD
BRANCH  10  13
ATOM     13  C7  UNL     1       9.003   4.998  21.189  0.00  0.00    +0.137 C 
ATOM     14  C8  UNL     1       7.583   4.664  20.727  0.00  0.00    +0.036 C 
BRANCH  13  15
ATOM     15  C9  UNL     1       9.346   6.440  20.929  0.00  0.00    +0.126 A 
ATOM     16  C10 UNL     1      10.506   6.876  20.295  0.00  0.00    +0.055 A 
ATOM     17  C11 UNL     1      10.383   8.245  20.268  0.00  0.00    +0.020 A 
ATOM     18  C12 UNL     1      11.228   9.227  19.755  0.00  0.00    +0.011 A 
ATOM     19  C13 UNL     1      10.821  10.569  19.877  0.00  0.00    +0.001 A 
ATOM     20  C14 UNL     1       9.594  10.890  20.502  0.00  0.00    +0.004 A 
ATOM     21  C15 UNL     1       8.763   9.873  21.008  0.00  0.00    +0.047 A 
ATOM     22  C16 UNL     1       9.193   8.555  20.870  0.00  0.00    +0.135 A 
ATOM     23  O3  UNL     1       8.580   7.467  21.260  0.00  0.00    -0.458 OA
ENDBRANCH  13  15
ENDBRANCH  10  13
ENDBRANCH   4   7
BRANCH   6  24
ATOM     24  N3  UNL     1      16.682   3.060  21.284  0.00  0.00    -0.276 N 
ATOM     25  C19 UNL     1      17.160   3.972  22.283  0.00  0.00    +0.284 C 
ATOM     26  O4  UNL     1      16.433   4.278  23.267  0.00  0.00    -0.266 OA
ATOM     27  H18 UNL     1      17.154   3.054  20.350  0.00  0.00    +0.155 HD
BRANCH  25  28
ATOM     28  C20 UNL     1      18.494   4.577  22.151  0.00  0.00    +0.191 A 
ATOM     29  C21 UNL     1      19.044   5.076  20.972  0.00  0.00    +0.063 A 
ATOM     30  C22 UNL     1      20.283   5.541  21.346  0.00  0.00    +0.021 A 
ATOM     31  C23 UNL     1      21.292   6.151  20.603  0.00  0.00    +0.011 A 
ATOM     32  C24 UNL     1      22.469   6.521  21.281  0.00  0.00    +0.001 A 
ATOM     33  C25 UNL     1      22.605   6.277  22.667  0.00  0.00    +0.004 A 
ATOM     34  C26 UNL     1      21.566   5.658  23.387  0.00  0.00    +0.047 A 
ATOM     35  C27 UNL     1      20.414   5.303  22.688  0.00  0.00    +0.136 A 
ATOM     36  O5  UNL     1      19.336   4.727  23.159  0.00  0.00    -0.450 OA
ENDBRANCH  25  28
ENDBRANCH   6  24
BRANCH   1  38
ATOM     37  C1  UNL     1      17.148   0.467  23.891  0.00  0.00    +0.277 C 
ATOM     38  O1  UNL     1      16.744   0.505  22.527  0.00  0.00    -0.493 OA
ENDBRANCH   1  38
TORSDOF 6
ENDMDL
MODEL 8
REMARK VINA RESULT:    -7.246     14.846     16.837
REMARK INTER + INTRA:         -10.909
REMARK INTER:                 -10.057
REMARK INTRA:                  -0.852
REMARK UNBOUND:                -1.122
REMARK  Name = /home/qwerty/github/datacon2025hack/step_04_hit_selection/docking/ligands/lig_746.pdb
REMARK  8 active torsions:
REMARK  status: ('A' for Active; 'I' for Inactive)
REMARK    1  A    between atoms: C1_1  and  O1_2
REMARK    2  A    between atoms: O1_2  and  C2_3
REMARK    3  A    between atoms: C5_6  and  N1_7
REMARK    4  A    between atoms: N2_10  and  C7_11
REMARK    5  A    between atoms: C7_11  and  C8_12
REMARK    6  A    between atoms: C7_11  and  C9_13
REMARK    7  A    between atoms: C18_23  and  N3_24
REMARK    8  A    between atoms: C19_25  and  C20_27
REMARK                            x       y       z     vdW  Elec       q    Type
REMARK                         _______ _______ _______ _____ _____    ______ ____
ROOT
ATOM      1  C2  UNL     1      20.851  15.485  27.637  0.00  0.00    +0.141 A 
ATOM      2  C3  UNL     1      22.132  15.865  27.196  0.00  0.00    +0.049 A 
ATOM      3  C4  UNL     1      22.338  16.258  25.871  0.00  0.00    +0.027 A 
ATOM      4  C5  UNL     1      21.267  16.298  24.967  0.00  0.00    +0.037 A 
ATOM      5  C17 UNL     1      19.997  15.887  25.395  0.00  0.00    +0.050 A 
ATOM      6  C18 UNL     1      19.784  15.465  26.715  0.00  0.00    +0.078 A 
ENDROOT
BRANCH   4   7
ATOM      7  N1  UNL     1      21.457  16.692  23.596  0.00  0.00    -0.269 N 
ATOM      8  C6  UNL     1      21.984  15.826  22.579  0.00  0.00    +0.304 C 
ATOM      9  O2  UNL     1      22.562  14.751  22.895  0.00  0.00    -0.252 OA
ATOM     10  N2  UNL     1      21.883  16.210  21.200  0.00  0.00    -0.290 N 
ATOM     11  H6  UNL     1      21.272  17.688  23.338  0.00  0.00    +0.156 HD
ATOM     12  H7  UNL     1      21.476  17.146  20.974  0.00  0.00    +0.151 HD
BRANCH  10  13
ATOM     13  C7  UNL     1      22.445  15.402  20.116  0.00  0.00    +0.137 C 
ATOM     14  C8  UNL     1      22.619  16.265  18.864  0.00  0.00    +0.036 C 
BRANCH  13  15
ATOM     15  C9  UNL     1      21.557  14.217  19.852  0.00  0.00    +0.126 A 
ATOM     16  C10 UNL     1      20.167  14.237  19.927  0.00  0.00    +0.055 A 
ATOM     17  C11 UNL     1      19.791  12.956  19.599  0.00  0.00    +0.020 A 
ATOM     18  C12 UNL     1      18.530  12.372  19.497  0.00  0.00    +0.011 A 
ATOM     19  C13 UNL     1      18.465  11.014  19.132  0.00  0.00    +0.001 A 
ATOM     20  C14 UNL     1      19.649  10.284  18.881  0.00  0.00    +0.004 A 
ATOM     21  C15 UNL     1      20.908  10.905  18.991  0.00  0.00    +0.047 A 
ATOM     22  C16 UNL     1      20.938  12.250  19.352  0.00  0.00    +0.135 A 
ATOM     23  O3  UNL     1      21.989  13.015  19.505  0.00  0.00    -0.458 OA
ENDBRANCH  13  15
ENDBRANCH  10  13
ENDBRANCH   4   7
BRANCH   6  24
ATOM     24  N3  UNL     1      18.460  15.074  27.114  0.00  0.00    -0.276 N 
ATOM     25  C19 UNL     1      17.492  15.995  27.639  0.00  0.00    +0.284 C 
ATOM     26  O4  UNL     1      17.835  17.164  27.966  0.00  0.00    -0.266 OA
ATOM     27  H18 UNL     1      18.236  14.053  27.136  0.00  0.00    +0.155 HD
BRANCH  25  28
ATOM     28  C20 UNL     1      16.096  15.572  27.824  0.00  0.00    +0.191 A 
ATOM     29  C21 UNL     1      15.504  15.244  29.042  0.00  0.00    +0.063 A 
ATOM     30  C22 UNL     1      14.206  14.927  28.714  0.00  0.00    +0.021 A 
ATOM     31  C23 UNL     1      13.134  14.527  29.510  0.00  0.00    +0.011 A 
ATOM     32  C24 UNL     1      11.906  14.271  28.871  0.00  0.00    +0.001 A 
ATOM     33  C25 UNL     1      11.782  14.422  27.471  0.00  0.00    +0.004 A 
ATOM     34  C26 UNL     1      12.885  14.827  26.697  0.00  0.00    +0.047 A 
ATOM     35  C27 UNL     1      14.086  15.074  27.358  0.00  0.00    +0.136 A 
ATOM     36  O5  UNL     1      15.225  15.461  26.836  0.00  0.00    -0.450 OA
ENDBRANCH  25  28
ENDBRANCH   6  24
BRANCH   1  38
ATOM     37  C1  UNL     1      21.575  15.195  30.018  0.00  0.00    +0.277 C 
ATOM     38  O1  UNL     1      20.603  15.145  28.978  0.00  0.00    -0.493 OA
ENDBRANCH   1  38
TORSDOF 6
ENDMDL
MODEL 9
REMARK VINA RESULT:    -7.230     14.054     16.882
REMARK INTER + INTRA:         -10.888
REMARK INTER:                  -9.809
REMARK INTRA:                  -1.079
REMARK UNBOUND:                -1.122
REMARK  Name = /home/qwerty/github/datacon2025hack/step_04_hit_selection/docking/ligands/lig_746.pdb
REMARK  8 active torsions:
REMARK  status: ('A' for Active; 'I' for Inactive)
REMARK    1  A    between atoms: C1_1  and  O1_2
REMARK    2  A    between atoms: O1_2  and  C2_3
REMARK    3  A    between atoms: C5_6  and  N1_7
REMARK    4  A    between atoms: N2_10  and  C7_11
REMARK    5  A    between atoms: C7_11  and  C8_12
REMARK    6  A    between atoms: C7_11  and  C9_13
REMARK    7  A    between atoms: C18_23  and  N3_24
REMARK    8  A    between atoms: C19_25  and  C20_27
REMARK                            x       y       z     vdW  Elec       q    Type
REMARK                         _______ _______ _______ _____ _____    ______ ____
ROOT
ATOM      1  C2  UNL     1      20.674   9.226  35.641  0.00  0.00    +0.141 A 
ATOM      2  C3  UNL     1      21.105  10.514  35.269  0.00  0.00    +0.049 A 
ATOM      3  C4  UNL     1      20.359  11.640  35.624  0.00  0.00    +0.027 A 
ATOM      4  C5  UNL     1      19.182  11.506  36.375  0.00  0.00    +0.037 A 
ATOM      5  C17 UNL     1      18.734  10.223  36.717  0.00  0.00    +0.050 A 
ATOM      6  C18 UNL     1      19.459   9.083  36.343  0.00  0.00    +0.078 A 
ENDROOT
BRANCH   4   7
ATOM      7  N1  UNL     1      18.394  12.652  36.746  0.00  0.00    -0.269 N 
ATOM      8  C6  UNL     1      17.215  13.074  36.045  0.00  0.00    +0.304 C 
ATOM      9  O2  UNL     1      16.957  12.616  34.899  0.00  0.00    -0.252 OA
ATOM     10  N2  UNL     1      16.349  14.051  36.641  0.00  0.00    -0.290 N 
ATOM     11  H6  UNL     1      18.740  13.257  37.525  0.00  0.00    +0.156 HD
ATOM     12  H7  UNL     1      16.633  14.477  37.553  0.00  0.00    +0.151 HD
BRANCH  10  13
ATOM     13  C7  UNL     1      15.160  14.567  35.960  0.00  0.00    +0.137 C 
ATOM     14  C8  UNL     1      14.692  15.855  36.641  0.00  0.00    +0.036 C 
BRANCH  13  15
ATOM     15  C9  UNL     1      14.081  13.518  35.958  0.00  0.00    +0.126 A 
ATOM     16  C10 UNL     1      13.404  13.082  34.822  0.00  0.00    +0.055 A 
ATOM     17  C11 UNL     1      12.536  12.124  35.292  0.00  0.00    +0.020 A 
ATOM     18  C12 UNL     1      11.605  11.331  34.626  0.00  0.00    +0.011 A 
ATOM     19  C13 UNL     1      10.850  10.424  35.393  0.00  0.00    +0.001 A 
ATOM     20  C14 UNL     1      11.044  10.336  36.791  0.00  0.00    +0.004 A 
ATOM     21  C15 UNL     1      11.995  11.152  37.433  0.00  0.00    +0.047 A 
ATOM     22  C16 UNL     1      12.727  12.037  36.645  0.00  0.00    +0.135 A 
ATOM     23  O3  UNL     1      13.655  12.874  37.032  0.00  0.00    -0.458 OA
ENDBRANCH  13  15
ENDBRANCH  10  13
ENDBRANCH   4   7
BRANCH   6  24
ATOM     24  N3  UNL     1      18.972   7.789  36.736  0.00  0.00    -0.276 N 
ATOM     25  C19 UNL     1      18.180   6.953  35.879  0.00  0.00    +0.284 C 
ATOM     26  O4  UNL     1      17.701   7.411  34.807  0.00  0.00    -0.266 OA
ATOM     27  H18 UNL     1      19.099   7.499  37.733  0.00  0.00    +0.155 HD
BRANCH  25  28
ATOM     28  C20 UNL     1      17.899   5.561  36.262  0.00  0.00    +0.191 A 
ATOM     29  C21 UNL     1      18.579   4.439  35.793  0.00  0.00    +0.063 A 
ATOM     30  C22 UNL     1      17.975   3.383  36.435  0.00  0.00    +0.021 A 
ATOM     31  C23 UNL     1      18.224   2.013  36.373  0.00  0.00    +0.011 A 
ATOM     32  C24 UNL     1      17.422   1.168  37.163  0.00  0.00    +0.001 A 
ATOM     33  C25 UNL     1      16.406   1.706  37.985  0.00  0.00    +0.004 A 
ATOM     34  C26 UNL     1      16.181   3.095  38.023  0.00  0.00    +0.047 A 
ATOM     35  C27 UNL     1      16.991   3.906  37.231  0.00  0.00    +0.136 A 
ATOM     36  O5  UNL     1      16.956   5.211  37.120  0.00  0.00    -0.450 OA
ENDBRANCH  25  28
ENDBRANCH   6  24
BRANCH   1  38
ATOM     37  C1  UNL     1      22.787   8.101  34.903  0.00  0.00    +0.277 C 
ATOM     38  O1  UNL     1      21.436   8.081  35.351  0.00  0.00    -0.493 OA
ENDBRANCH   1  38
TORSDOF 6
ENDMDL
