REMARK  Name = /home/qwerty/github/datacon2025hack/step_04_hit_selection/docking/ligands/lig_300.pdb
REMARK  8 active torsions:
REMARK  status: ('A' for Active; 'I' for Inactive)
REMARK    1  A    between atoms: C1_1  and  C2_2
REMARK    2  A    between atoms: C2_2  and  C3_3
REMARK    3  A    between atoms: C2_2  and  N1_4
REMARK    4  A    between atoms: C5_8  and  C6_9
REMARK    5  A    between atoms: C6_9  and  N4_10
REMARK    6  A    between atoms: C8_12  and  C9_13
REMARK    7  A    between atoms: C10_14  and  N5_15
REMARK    8  A    between atoms: C11_16  and  C12_18
REMARK                            x       y       z     vdW  Elec       q    Type
REMARK                         _______ _______ _______ _____ _____    ______ ____
ROOT
ATOM      1  N4  UNL     1      -1.847   0.969  -1.788  0.00  0.00    -0.293 NA
ATOM      2  C7  UNL     1      -1.486   0.384  -3.092  0.00  0.00    +0.090 C 
ATOM      3  C8  UNL     1       0.004   0.023  -3.051  0.00  0.00    +0.021 C 
ATOM      4  C9  UNL     1       0.759   0.461  -4.311  0.00  0.00    +0.010 C 
ATOM      5  C10 UNL     1       0.524   0.708  -1.792  0.00  0.00    +0.091 C 
ATOM      6  C17 UNL     1      -0.699   0.755  -0.898  0.00  0.00    +0.107 C 
ENDROOT
BRANCH   5   7
ATOM      7  N5  UNL     1       1.616  -0.042  -1.164  0.00  0.00    -0.307 N 
ATOM      8  C11 UNL     1       2.559   0.593  -0.284  0.00  0.00    +0.246 C 
ATOM      9  O1  UNL     1       2.398   1.804   0.036  0.00  0.00    -0.270 OA
ATOM     10  H18 UNL     1       1.594  -1.086  -1.205  0.00  0.00    +0.149 HD
BRANCH   8  11
ATOM     11  C12 UNL     1       3.711  -0.155   0.271  0.00  0.00    +0.057 A 
ATOM     12  C13 UNL     1       4.224  -1.315  -0.386  0.00  0.00    +0.126 A 
ATOM     13  N6  UNL     1       5.292  -2.000   0.129  0.00  0.00    -0.234 NA
ATOM     14  C14 UNL     1       5.849  -1.549   1.277  0.00  0.00    +0.176 A 
ATOM     15  N7  UNL     1       6.891  -2.054   1.943  0.00  0.00    -0.240 N 
ATOM     16  N8  UNL     1       7.075  -1.258   2.995  0.00  0.00    -0.066 NA
ATOM     17  N9  UNL     1       6.183  -0.264   3.015  0.00  0.00    -0.128 NA
ATOM     18  C15 UNL     1       5.412  -0.452   1.930  0.00  0.00    +0.132 A 
ATOM     19  C16 UNL     1       4.337   0.290   1.462  0.00  0.00    +0.048 A 
ATOM     20  H20 UNL     1       7.463  -2.895   1.708  0.00  0.00    +0.192 HD
ENDBRANCH   8  11
ENDBRANCH   5   7
BRANCH   1  21
ATOM     21  C6  UNL     1      -3.098   0.401  -1.250  0.00  0.00    +0.160 C 
BRANCH  21  26
ATOM     22  N1  UNL     1      -3.549   0.777   1.230  0.00  0.00    -0.245 N 
ATOM     23  N2  UNL     1      -4.047   1.755   1.968  0.00  0.00    -0.158 NA
ATOM     24  C4  UNL     1      -4.321   2.762   1.118  0.00  0.00    +0.245 A 
ATOM     25  N3  UNL     1      -4.030   2.451  -0.162  0.00  0.00    -0.218 NA
ATOM     26  C5  UNL     1      -3.560   1.192  -0.056  0.00  0.00    +0.142 A 
BRANCH  22  28
ATOM     27  C1  UNL     1      -2.561  -0.422   3.152  0.00  0.00    +0.032 C 
ATOM     28  C2  UNL     1      -3.191  -0.546   1.760  0.00  0.00    +0.103 C 
ATOM     29  C3  UNL     1      -4.430  -1.442   1.799  0.00  0.00    +0.032 C 
ENDBRANCH  22  28
ENDBRANCH  21  26
ENDBRANCH   1  21
TORSDOF 5
