REMARK  Name = /home/qwerty/github/datacon2025hack/step_04_hit_selection/docking/ligands/lig_624.pdb
REMARK  7 active torsions:
REMARK  status: ('A' for Active; 'I' for Inactive)
REMARK    1  A    between atoms: C1_1  and  C2_2
REMARK    2  A    between atoms: C4_5  and  C5_6
REMARK    3  A    between atoms: C5_6  and  N2_7
REMARK    4  A    between atoms: C6_8  and  C7_10
REMARK    5  A    between atoms: C10_13  and  N3_14
REMARK    6  A    between atoms: C12_16  and  C13_17
REMARK    7  A    between atoms: C14_19  and  C15_20
REMARK                            x       y       z     vdW  Elec       q    Type
REMARK                         _______ _______ _______ _____ _____    ______ ____
ROOT
ATOM      1  C7  UNL     1       1.175  -0.819   0.063  0.00  0.00    +0.055 A 
ATOM      2  C8  UNL     1       0.486  -1.031  -1.141  0.00  0.00    +0.018 A 
ATOM      3  C9  UNL     1      -0.845  -0.630  -1.272  0.00  0.00    +0.044 A 
ATOM      4  C10 UNL     1      -1.501  -0.019  -0.188  0.00  0.00    +0.121 A 
ATOM      5  N4  UNL     1      -0.806   0.181   0.969  0.00  0.00    -0.240 NA
ATOM      6  C17 UNL     1       0.490  -0.198   1.119  0.00  0.00    +0.126 A 
ENDROOT
BRANCH   4   7
ATOM      7  N3  UNL     1      -2.894   0.371  -0.261  0.00  0.00    -0.310 N 
ATOM      8  C11 UNL     1      -3.785  -0.292  -1.236  0.00  0.00    +0.137 C 
ATOM      9  C12 UNL     1      -5.291   0.062  -1.078  0.00  0.00    +0.133 C 
ATOM     10  C13 UNL     1      -6.155  -1.166  -1.362  0.00  0.00    +0.039 C 
ATOM     11  O2  UNL     1      -5.605   0.529   0.216  0.00  0.00    -0.371 OA
ATOM     12  C14 UNL     1      -4.854   1.693   0.489  0.00  0.00    +0.133 C 
ATOM     13  C15 UNL     1      -5.465   2.405   1.697  0.00  0.00    +0.039 C 
ATOM     14  C16 UNL     1      -3.405   1.291   0.771  0.00  0.00    +0.137 C 
ENDBRANCH   4   7
BRANCH   1  16
ATOM     15  N2  UNL     1       3.462  -1.427  -0.874  0.00  0.00    -0.307 N 
ATOM     16  C6  UNL     1       2.573  -1.275   0.246  0.00  0.00    +0.246 C 
ATOM     17  O1  UNL     1       2.988  -1.529   1.408  0.00  0.00    -0.270 OA
ATOM     18  H7  UNL     1       3.161  -1.112  -1.823  0.00  0.00    +0.149 HD
BRANCH  15  19
ATOM     19  C5  UNL     1       4.783  -2.039  -0.745  0.00  0.00    +0.148 C 
BRANCH  19  24
ATOM     20  C1  UNL     1       7.959   1.871   1.106  0.00  0.00    +0.073 C 
ATOM     21  C2  UNL     1       7.162   0.637   0.855  0.00  0.00    +0.075 A 
ATOM     22  N1  UNL     1       6.969  -0.333   1.777  0.00  0.00    -0.252 NA
ATOM     23  C3  UNL     1       6.165  -1.325   1.307  0.00  0.00    +0.124 A 
ATOM     24  C4  UNL     1       5.708  -1.134   0.008  0.00  0.00    +0.027 A 
ATOM     25  S1  UNL     1       6.319   0.323  -0.568  0.00  0.00    -0.076 S 
ENDBRANCH  19  24
ENDBRANCH  15  19
ENDBRANCH   1  16
TORSDOF 4
