MODEL 1
REMARK VINA RESULT:    -6.919      0.000      0.000
REMARK INTER + INTRA:          -8.616
REMARK INTER:                  -8.132
REMARK INTRA:                  -0.483
REMARK UNBOUND:                -0.483
REMARK  Name = /home/qwerty/github/datacon2025hack/step_04_hit_selection/docking/ligands/lig_182.pdb
REMARK  4 active torsions:
REMARK  status: ('A' for Active; 'I' for Inactive)
REMARK    1  A    between atoms: C1_1  and  C2_2
REMARK    2  A    between atoms: C4_4  and  N1_5
REMARK    3  A    between atoms: C5_6  and  C6_8
REMARK    4  A    between atoms: C14_18  and  C15_20
REMARK                            x       y       z     vdW  Elec       q    Type
REMARK                         _______ _______ _______ _____ _____    ______ ____
ROOT
ATOM      1  C1  UNL     1      19.243   1.664  28.734  0.00  0.00    +0.028 C 
ATOM      2  C2  UNL     1      20.345   2.667  28.386  0.00  0.00    +0.075 C 
ATOM      3  C3  UNL     1      20.088   3.357  27.044  0.00  0.00    +0.046 C 
ATOM      4  C4  UNL     1      20.979   2.625  26.034  0.00  0.00    +0.092 C 
ATOM      5  C13 UNL     1      22.122   2.042  26.862  0.00  0.00    +0.130 C 
ATOM      6  N3  UNL     1      21.616   1.973  28.225  0.00  0.00    -0.292 N 
ATOM      7  C14 UNL     1      22.429   1.568  29.339  0.00  0.00    +0.263 C 
ATOM      8  O2  UNL     1      22.376   2.218  30.419  0.00  0.00    -0.268 OA
ENDROOT
BRANCH   7   9
ATOM      9  C15 UNL     1      23.326   0.403  29.249  0.00  0.00    +0.102 A 
ATOM     10  C16 UNL     1      22.936  -0.880  28.912  0.00  0.00    +0.032 A 
ATOM     11  C17 UNL     1      24.088  -1.640  28.888  0.00  0.00    +0.020 A 
ATOM     12  C18 UNL     1      25.129  -0.787  29.195  0.00  0.00    +0.083 A 
ATOM     13  N4  UNL     1      24.662   0.456  29.409  0.00  0.00    -0.357 N 
ATOM     14  H22 UNL     1      25.243   1.302  29.602  0.00  0.00    +0.165 HD
ENDBRANCH   7   9
BRANCH   4  15
ATOM     15  N1  UNL     1      21.472   3.515  24.976  0.00  0.00    -0.306 N 
ATOM     16  C5  UNL     1      20.745   3.709  23.752  0.00  0.00    +0.261 C 
ATOM     17  O1  UNL     1      19.699   3.041  23.530  0.00  0.00    -0.269 OA
ATOM     18  H8  UNL     1      22.357   4.045  25.127  0.00  0.00    +0.149 HD
BRANCH  16  19
ATOM     19  C6  UNL     1      21.207   4.676  22.736  0.00  0.00    +0.102 A 
ATOM     20  C7  UNL     1      20.860   4.673  21.383  0.00  0.00    +0.036 A 
ATOM     21  C8  UNL     1      21.607   5.692  20.836  0.00  0.00    -0.026 A 
ATOM     22  C9  UNL     1      22.353   6.230  21.805  0.00  0.00    +0.020 A 
ATOM     23  N2  UNL     1      22.151   5.618  22.983  0.00  0.00    -0.354 N 
ATOM     24  C10 UNL     1      23.530   6.962  21.307  0.00  0.00    +0.054 C 
ATOM     25  C11 UNL     1      23.322   6.912  19.770  0.00  0.00    +0.011 C 
ATOM     26  C12 UNL     1      22.131   5.958  19.483  0.00  0.00    +0.037 C 
ATOM     27  H10 UNL     1      22.695   5.761  23.864  0.00  0.00    +0.166 HD
ENDBRANCH  16  19
ENDBRANCH   4  15
TORSDOF 3
ENDMDL
MODEL 2
REMARK VINA RESULT:    -6.808      5.273     10.637
REMARK INTER + INTRA:          -8.485
REMARK INTER:                  -7.979
REMARK INTRA:                  -0.506
REMARK UNBOUND:                -0.483
REMARK  Name = /home/qwerty/github/datacon2025hack/step_04_hit_selection/docking/ligands/lig_182.pdb
REMARK  4 active torsions:
REMARK  status: ('A' for Active; 'I' for Inactive)
REMARK    1  A    between atoms: C1_1  and  C2_2
REMARK    2  A    between atoms: C4_4  and  N1_5
REMARK    3  A    between atoms: C5_6  and  C6_8
REMARK    4  A    between atoms: C14_18  and  C15_20
REMARK                            x       y       z     vdW  Elec       q    Type
REMARK                         _______ _______ _______ _____ _____    ______ ____
ROOT
ATOM      1  C1  UNL     1      21.194   3.903  28.785  0.00  0.00    +0.028 C 
ATOM      2  C2  UNL     1      20.297   2.711  29.126  0.00  0.00    +0.075 C 
ATOM      3  C3  UNL     1      19.466   2.962  30.386  0.00  0.00    +0.046 C 
ATOM      4  C4  UNL     1      20.202   2.226  31.512  0.00  0.00    +0.092 C 
ATOM      5  C13 UNL     1      20.982   1.115  30.814  0.00  0.00    +0.130 C 
ATOM      6  N3  UNL     1      21.114   1.544  29.429  0.00  0.00    -0.292 N 
ATOM      7  C14 UNL     1      21.706   0.721  28.411  0.00  0.00    +0.263 C 
ATOM      8  O2  UNL     1      21.152   0.633  27.280  0.00  0.00    -0.268 OA
ENDROOT
BRANCH   7   9
ATOM      9  C15 UNL     1      22.953  -0.024  28.656  0.00  0.00    +0.102 A 
ATOM     10  C16 UNL     1      24.148   0.535  29.072  0.00  0.00    +0.032 A 
ATOM     11  C17 UNL     1      25.029  -0.514  29.235  0.00  0.00    +0.020 A 
ATOM     12  C18 UNL     1      24.332  -1.665  28.928  0.00  0.00    +0.083 A 
ATOM     13  N4  UNL     1      23.068  -1.363  28.582  0.00  0.00    -0.357 N 
ATOM     14  H22 UNL     1      22.315  -2.051  28.358  0.00  0.00    +0.165 HD
ENDBRANCH   7   9
BRANCH   4  15
ATOM     15  N1  UNL     1      19.285   1.694  32.525  0.00  0.00    -0.306 N 
ATOM     16  C5  UNL     1      19.494   1.920  33.928  0.00  0.00    +0.261 C 
ATOM     17  O1  UNL     1      20.534   2.517  34.319  0.00  0.00    -0.269 OA
ATOM     18  H8  UNL     1      18.440   1.163  32.220  0.00  0.00    +0.149 HD
BRANCH  16  19
ATOM     19  C6  UNL     1      18.514   1.456  34.930  0.00  0.00    +0.102 A 
ATOM     20  C7  UNL     1      18.420   1.899  36.252  0.00  0.00    +0.036 A 
ATOM     21  C8  UNL     1      17.434   1.114  36.807  0.00  0.00    -0.026 A 
ATOM     22  C9  UNL     1      17.006   0.260  35.873  0.00  0.00    +0.020 A 
ATOM     23  N2  UNL     1      17.662   0.424  34.713  0.00  0.00    -0.354 N 
ATOM     24  C10 UNL     1      16.342  -0.934  36.425  0.00  0.00    +0.054 C 
ATOM     25  C11 UNL     1      16.296  -0.612  37.943  0.00  0.00    +0.011 C 
ATOM     26  C12 UNL     1      17.140   0.669  38.182  0.00  0.00    +0.037 C 
ATOM     27  H10 UNL     1      17.607  -0.192  33.870  0.00  0.00    +0.166 HD
ENDBRANCH  16  19
ENDBRANCH   4  15
TORSDOF 3
ENDMDL
MODEL 3
REMARK VINA RESULT:    -6.381      6.324      9.031
REMARK INTER + INTRA:          -7.984
REMARK INTER:                  -7.473
REMARK INTRA:                  -0.510
REMARK UNBOUND:                -0.483
REMARK  Name = /home/qwerty/github/datacon2025hack/step_04_hit_selection/docking/ligands/lig_182.pdb
REMARK  4 active torsions:
REMARK  status: ('A' for Active; 'I' for Inactive)
REMARK    1  A    between atoms: C1_1  and  C2_2
REMARK    2  A    between atoms: C4_4  and  N1_5
REMARK    3  A    between atoms: C5_6  and  C6_8
REMARK    4  A    between atoms: C14_18  and  C15_20
REMARK                            x       y       z     vdW  Elec       q    Type
REMARK                         _______ _______ _______ _____ _____    ______ ____
ROOT
ATOM      1  C1  UNL     1      19.792   8.004  32.465  0.00  0.00    +0.028 C 
ATOM      2  C2  UNL     1      21.189   7.459  32.157  0.00  0.00    +0.075 C 
ATOM      3  C3  UNL     1      21.140   6.260  31.207  0.00  0.00    +0.046 C 
ATOM      4  C4  UNL     1      21.285   5.025  32.104  0.00  0.00    +0.092 C 
ATOM      5  C13 UNL     1      22.028   5.520  33.343  0.00  0.00    +0.130 C 
ATOM      6  N3  UNL     1      21.808   6.958  33.378  0.00  0.00    -0.292 N 
ATOM      7  C14 UNL     1      22.430   7.820  34.346  0.00  0.00    +0.263 C 
ATOM      8  O2  UNL     1      22.931   8.916  33.974  0.00  0.00    -0.268 OA
ENDROOT
BRANCH   7   9
ATOM      9  C15 UNL     1      22.493   7.450  35.771  0.00  0.00    +0.102 A 
ATOM     10  C16 UNL     1      21.413   7.405  36.632  0.00  0.00    +0.032 A 
ATOM     11  C17 UNL     1      21.903   6.959  37.843  0.00  0.00    +0.020 A 
ATOM     12  C18 UNL     1      23.253   6.737  37.664  0.00  0.00    +0.083 A 
ATOM     13  N4  UNL     1      23.607   7.032  36.401  0.00  0.00    -0.357 N 
ATOM     14  H22 UNL     1      24.556   6.900  35.986  0.00  0.00    +0.165 HD
ENDBRANCH   7   9
BRANCH   4  15
ATOM     15  N1  UNL     1      22.004   3.932  31.439  0.00  0.00    -0.306 N 
ATOM     16  C5  UNL     1      21.310   2.842  30.813  0.00  0.00    +0.261 C 
ATOM     17  O1  UNL     1      20.054   2.764  30.901  0.00  0.00    -0.269 OA
ATOM     18  H8  UNL     1      23.046   3.962  31.392  0.00  0.00    +0.149 HD
BRANCH  16  19
ATOM     19  C6  UNL     1      22.043   1.798  30.069  0.00  0.00    +0.102 A 
ATOM     20  C7  UNL     1      21.484   0.651  29.498  0.00  0.00    +0.036 A 
ATOM     21  C8  UNL     1      22.565  -0.049  29.009  0.00  0.00    -0.026 A 
ATOM     22  C9  UNL     1      23.673   0.637  29.301  0.00  0.00    +0.020 A 
ATOM     23  N2  UNL     1      23.395   1.767  29.971  0.00  0.00    -0.354 N 
ATOM     24  C10 UNL     1      24.895  -0.186  29.297  0.00  0.00    +0.054 C 
ATOM     25  C11 UNL     1      24.366  -1.556  28.794  0.00  0.00    +0.011 C 
ATOM     26  C12 UNL     1      22.817  -1.477  28.746  0.00  0.00    +0.037 C 
ATOM     27  H10 UNL     1      24.083   2.413  30.422  0.00  0.00    +0.166 HD
ENDBRANCH  16  19
ENDBRANCH   4  15
TORSDOF 3
ENDMDL
MODEL 4
REMARK VINA RESULT:    -6.255      2.494      9.201
REMARK INTER + INTRA:          -7.835
REMARK INTER:                  -7.366
REMARK INTRA:                  -0.469
REMARK UNBOUND:                -0.483
REMARK  Name = /home/qwerty/github/datacon2025hack/step_04_hit_selection/docking/ligands/lig_182.pdb
REMARK  4 active torsions:
REMARK  status: ('A' for Active; 'I' for Inactive)
REMARK    1  A    between atoms: C1_1  and  C2_2
REMARK    2  A    between atoms: C4_4  and  N1_5
REMARK    3  A    between atoms: C5_6  and  C6_8
REMARK    4  A    between atoms: C14_18  and  C15_20
REMARK                            x       y       z     vdW  Elec       q    Type
REMARK                         _______ _______ _______ _____ _____    ______ ____
ROOT
ATOM      1  C1  UNL     1      20.198   6.229  20.086  0.00  0.00    +0.028 C 
ATOM      2  C2  UNL     1      21.406   5.482  20.655  0.00  0.00    +0.075 C 
ATOM      3  C3  UNL     1      21.077   4.785  21.977  0.00  0.00    +0.046 C 
ATOM      4  C4  UNL     1      21.629   5.707  23.071  0.00  0.00    +0.092 C 
ATOM      5  C13 UNL     1      22.752   6.493  22.398  0.00  0.00    +0.130 C 
ATOM      6  N3  UNL     1      22.470   6.425  20.971  0.00  0.00    -0.292 N 
ATOM      7  C14 UNL     1      23.357   6.963  19.975  0.00  0.00    +0.263 C 
ATOM      8  O2  UNL     1      23.609   6.291  18.937  0.00  0.00    -0.268 OA
ENDROOT
BRANCH   7   9
ATOM      9  C15 UNL     1      23.977   8.289  20.138  0.00  0.00    +0.102 A 
ATOM     10  C16 UNL     1      25.335   8.546  20.092  0.00  0.00    +0.032 A 
ATOM     11  C17 UNL     1      25.474   9.913  20.229  0.00  0.00    +0.020 A 
ATOM     12  C18 UNL     1      24.199  10.430  20.337  0.00  0.00    +0.083 A 
ATOM     13  N4  UNL     1      23.291   9.439  20.275  0.00  0.00    -0.357 N 
ATOM     14  H22 UNL     1      22.254   9.561  20.276  0.00  0.00    +0.165 HD
ENDBRANCH   7   9
BRANCH   4  15
ATOM     15  N1  UNL     1      22.110   4.962  24.240  0.00  0.00    -0.306 N 
ATOM     16  C5  UNL     1      21.303   4.797  25.416  0.00  0.00    +0.261 C 
ATOM     17  O1  UNL     1      20.183   5.372  25.494  0.00  0.00    -0.269 OA
ATOM     18  H8  UNL     1      23.052   4.514  24.206  0.00  0.00    +0.149 HD
BRANCH  16  19
ATOM     19  C6  UNL     1      21.764   3.968  26.547  0.00  0.00    +0.102 A 
ATOM     20  C7  UNL     1      22.423   2.740  26.449  0.00  0.00    +0.036 A 
ATOM     21  C8  UNL     1      22.556   2.317  27.753  0.00  0.00    -0.026 A 
ATOM     22  C9  UNL     1      21.989   3.229  28.547  0.00  0.00    +0.020 A 
ATOM     23  N2  UNL     1      21.472   4.248  27.841  0.00  0.00    -0.354 N 
ATOM     24  C10 UNL     1      21.612   2.707  29.871  0.00  0.00    +0.054 C 
ATOM     25  C11 UNL     1      22.189   1.266  29.832  0.00  0.00    +0.011 C 
ATOM     26  C12 UNL     1      22.679   0.991  28.386  0.00  0.00    +0.037 C 
ATOM     27  H10 UNL     1      20.871   5.022  28.207  0.00  0.00    +0.166 HD
ENDBRANCH  16  19
ENDBRANCH   4  15
TORSDOF 3
ENDMDL
MODEL 5
REMARK VINA RESULT:    -6.065      5.647      9.666
REMARK INTER + INTRA:          -7.612
REMARK INTER:                  -7.476
REMARK INTRA:                  -0.136
REMARK UNBOUND:                -0.483
REMARK  Name = /home/qwerty/github/datacon2025hack/step_04_hit_selection/docking/ligands/lig_182.pdb
REMARK  4 active torsions:
REMARK  status: ('A' for Active; 'I' for Inactive)
REMARK    1  A    between atoms: C1_1  and  C2_2
REMARK    2  A    between atoms: C4_4  and  N1_5
REMARK    3  A    between atoms: C5_6  and  C6_8
REMARK    4  A    between atoms: C14_18  and  C15_20
REMARK                            x       y       z     vdW  Elec       q    Type
REMARK                         _______ _______ _______ _____ _____    ______ ____
ROOT
ATOM      1  C1  UNL     1      20.478   4.033  27.952  0.00  0.00    +0.028 C 
ATOM      2  C2  UNL     1      20.215   3.559  29.384  0.00  0.00    +0.075 C 
ATOM      3  C3  UNL     1      20.305   4.706  30.393  0.00  0.00    +0.046 C 
ATOM      4  C4  UNL     1      21.696   4.582  31.026  0.00  0.00    +0.092 C 
ATOM      5  C13 UNL     1      22.070   3.109  30.876  0.00  0.00    +0.130 C 
ATOM      6  N3  UNL     1      21.242   2.608  29.789  0.00  0.00    -0.292 N 
ATOM      7  C14 UNL     1      21.222   1.225  29.398  0.00  0.00    +0.263 C 
ATOM      8  O2  UNL     1      20.119   0.660  29.160  0.00  0.00    -0.268 OA
ENDROOT
BRANCH   7   9
ATOM      9  C15 UNL     1      22.466   0.448  29.265  0.00  0.00    +0.102 A 
ATOM     10  C16 UNL     1      22.540  -0.889  28.920  0.00  0.00    +0.032 A 
ATOM     11  C17 UNL     1      23.884  -1.197  28.852  0.00  0.00    +0.020 A 
ATOM     12  C18 UNL     1      24.570  -0.035  29.142  0.00  0.00    +0.083 A 
ATOM     13  N4  UNL     1      23.704   0.965  29.387  0.00  0.00    -0.357 N 
ATOM     14  H22 UNL     1      23.957   1.960  29.576  0.00  0.00    +0.165 HD
ENDBRANCH   7   9
BRANCH   4  15
ATOM     15  N1  UNL     1      21.711   5.007  32.430  0.00  0.00    -0.306 N 
ATOM     16  C5  UNL     1      22.760   5.836  32.958  0.00  0.00    +0.261 C 
ATOM     17  O1  UNL     1      23.742   6.143  32.230  0.00  0.00    -0.269 OA
ATOM     18  H8  UNL     1      20.925   4.728  33.056  0.00  0.00    +0.149 HD
BRANCH  16  19
ATOM     19  C6  UNL     1      22.713   6.331  34.348  0.00  0.00    +0.102 A 
ATOM     20  C7  UNL     1      23.752   6.258  35.280  0.00  0.00    +0.036 A 
ATOM     21  C8  UNL     1      23.203   6.752  36.442  0.00  0.00    -0.026 A 
ATOM     22  C9  UNL     1      21.927   7.065  36.202  0.00  0.00    +0.020 A 
ATOM     23  N2  UNL     1      21.582   6.800  34.932  0.00  0.00    -0.354 N 
ATOM     24  C10 UNL     1      21.096   7.127  37.416  0.00  0.00    +0.054 C 
ATOM     25  C11 UNL     1      22.143   6.923  38.543  0.00  0.00    +0.011 C 
ATOM     26  C12 UNL     1      23.491   6.543  37.873  0.00  0.00    +0.037 C 
ATOM     27  H10 UNL     1      20.621   6.835  34.524  0.00  0.00    +0.166 HD
ENDBRANCH  16  19
ENDBRANCH   4  15
TORSDOF 3
ENDMDL
MODEL 6
REMARK VINA RESULT:    -5.956     14.884     17.048
REMARK INTER + INTRA:          -7.483
REMARK INTER:                  -7.000
REMARK INTRA:                  -0.484
REMARK UNBOUND:                -0.483
REMARK  Name = /home/qwerty/github/datacon2025hack/step_04_hit_selection/docking/ligands/lig_182.pdb
REMARK  4 active torsions:
REMARK  status: ('A' for Active; 'I' for Inactive)
REMARK    1  A    between atoms: C1_1  and  C2_2
REMARK    2  A    between atoms: C4_4  and  N1_5
REMARK    3  A    between atoms: C5_6  and  C6_8
REMARK    4  A    between atoms: C14_18  and  C15_20
REMARK                            x       y       z     vdW  Elec       q    Type
REMARK                         _______ _______ _______ _____ _____    ______ ____
ROOT
ATOM      1  C1  UNL     1      11.111  14.009  27.509  0.00  0.00    +0.028 C 
ATOM      2  C2  UNL     1      10.657  14.097  28.968  0.00  0.00    +0.075 C 
ATOM      3  C3  UNL     1      11.843  14.141  29.934  0.00  0.00    +0.046 C 
ATOM      4  C4  UNL     1      11.980  12.713  30.474  0.00  0.00    +0.092 C 
ATOM      5  C13 UNL     1      10.587  12.104  30.343  0.00  0.00    +0.130 C 
ATOM      6  N3  UNL     1       9.910  12.900  29.329  0.00  0.00    -0.292 N 
ATOM      7  C14 UNL     1       8.528  12.709  28.981  0.00  0.00    +0.263 C 
ATOM      8  O2  UNL     1       7.777  13.713  28.836  0.00  0.00    -0.268 OA
ENDROOT
BRANCH   7   9
ATOM      9  C15 UNL     1       7.967  11.361  28.786  0.00  0.00    +0.102 A 
ATOM     10  C16 UNL     1       8.109  10.595  27.644  0.00  0.00    +0.032 A 
ATOM     11  C17 UNL     1       7.486   9.392  27.906  0.00  0.00    +0.020 A 
ATOM     12  C18 UNL     1       7.005   9.470  29.197  0.00  0.00    +0.083 A 
ATOM     13  N4  UNL     1       7.304  10.668  29.731  0.00  0.00    -0.357 N 
ATOM     14  H22 UNL     1       7.106  10.966  30.712  0.00  0.00    +0.165 HD
ENDBRANCH   7   9
BRANCH   4  15
ATOM     15  N1  UNL     1      12.459  12.683  31.861  0.00  0.00    -0.306 N 
ATOM     16  C5  UNL     1      13.860  12.674  32.177  0.00  0.00    +0.261 C 
ATOM     17  O1  UNL     1      14.712  12.605  31.250  0.00  0.00    -0.269 OA
ATOM     18  H8  UNL     1      11.765  12.699  32.640  0.00  0.00    +0.149 HD
BRANCH  16  19
ATOM     19  C6  UNL     1      14.326  12.736  33.577  0.00  0.00    +0.102 A 
ATOM     20  C7  UNL     1      15.481  13.380  34.029  0.00  0.00    +0.036 A 
ATOM     21  C8  UNL     1      15.537  13.078  35.371  0.00  0.00    -0.026 A 
ATOM     22  C9  UNL     1      14.498  12.294  35.667  0.00  0.00    +0.020 A 
ATOM     23  N2  UNL     1      13.743  12.043  34.585  0.00  0.00    -0.354 N 
ATOM     24  C10 UNL     1      14.685  11.503  36.895  0.00  0.00    +0.054 C 
ATOM     25  C11 UNL     1      16.035  12.047  37.434  0.00  0.00    +0.011 C 
ATOM     26  C12 UNL     1      16.639  12.977  36.347  0.00  0.00    +0.037 C 
ATOM     27  H10 UNL     1      12.951  11.364  34.519  0.00  0.00    +0.166 HD
ENDBRANCH  16  19
ENDBRANCH   4  15
TORSDOF 3
ENDMDL
MODEL 7
REMARK VINA RESULT:    -5.921     10.153     13.268
REMARK INTER + INTRA:          -7.443
REMARK INTER:                  -6.936
REMARK INTRA:                  -0.507
REMARK UNBOUND:                -0.483
REMARK  Name = /home/qwerty/github/datacon2025hack/step_04_hit_selection/docking/ligands/lig_182.pdb
REMARK  4 active torsions:
REMARK  status: ('A' for Active; 'I' for Inactive)
REMARK    1  A    between atoms: C1_1  and  C2_2
REMARK    2  A    between atoms: C4_4  and  N1_5
REMARK    3  A    between atoms: C5_6  and  C6_8
REMARK    4  A    between atoms: C14_18  and  C15_20
REMARK                            x       y       z     vdW  Elec       q    Type
REMARK                         _______ _______ _______ _____ _____    ______ ____
ROOT
ATOM      1  C1  UNL     1       7.753   4.349  23.499  0.00  0.00    +0.028 C 
ATOM      2  C2  UNL     1       8.438   3.955  22.188  0.00  0.00    +0.075 C 
ATOM      3  C3  UNL     1       9.514   2.888  22.403  0.00  0.00    +0.046 C 
ATOM      4  C4  UNL     1      10.845   3.650  22.412  0.00  0.00    +0.092 C 
ATOM      5  C13 UNL     1      10.583   4.916  21.600  0.00  0.00    +0.130 C 
ATOM      6  N3  UNL     1       9.140   5.103  21.630  0.00  0.00    -0.292 N 
ATOM      7  C14 UNL     1       8.473   6.141  20.892  0.00  0.00    +0.263 C 
ATOM      8  O2  UNL     1       7.417   5.873  20.255  0.00  0.00    -0.268 OA
ENDROOT
BRANCH   7   9
ATOM      9  C15 UNL     1       8.995   7.518  20.864  0.00  0.00    +0.102 A 
ATOM     10  C16 UNL     1       8.729   8.491  21.810  0.00  0.00    +0.032 A 
ATOM     11  C17 UNL     1       9.458   9.602  21.435  0.00  0.00    +0.020 A 
ATOM     12  C18 UNL     1      10.146   9.255  20.291  0.00  0.00    +0.083 A 
ATOM     13  N4  UNL     1       9.865   7.985  19.949  0.00  0.00    -0.357 N 
ATOM     14  H22 UNL     1      10.295   7.456  19.158  0.00  0.00    +0.165 HD
ENDBRANCH   7   9
BRANCH   4  15
ATOM     15  N1  UNL     1      11.945   2.859  21.849  0.00  0.00    -0.306 N 
ATOM     16  C5  UNL     1      13.282   2.946  22.368  0.00  0.00    +0.261 C 
ATOM     17  O1  UNL     1      13.549   3.779  23.276  0.00  0.00    -0.269 OA
ATOM     18  H8  UNL     1      11.748   2.194  21.070  0.00  0.00    +0.149 HD
BRANCH  16  19
ATOM     19  C6  UNL     1      14.358   2.077  21.851  0.00  0.00    +0.102 A 
ATOM     20  C7  UNL     1      14.677   1.880  20.505  0.00  0.00    +0.036 A 
ATOM     21  C8  UNL     1      15.669   0.925  20.526  0.00  0.00    -0.026 A 
ATOM     22  C9  UNL     1      15.888   0.578  21.796  0.00  0.00    +0.020 A 
ATOM     23  N2  UNL     1      15.086   1.248  22.639  0.00  0.00    -0.354 N 
ATOM     24  C10 UNL     1      16.530  -0.740  21.946  0.00  0.00    +0.054 C 
ATOM     25  C11 UNL     1      16.821  -1.133  20.473  0.00  0.00    +0.011 C 
ATOM     26  C12 UNL     1      16.124  -0.091  19.558  0.00  0.00    +0.037 C 
ATOM     27  H10 UNL     1      14.970   1.075  23.663  0.00  0.00    +0.166 HD
ENDBRANCH  16  19
ENDBRANCH   4  15
TORSDOF 3
ENDMDL
MODEL 8
REMARK VINA RESULT:    -5.918     13.270     15.188
REMARK INTER + INTRA:          -7.439
REMARK INTER:                  -6.967
REMARK INTRA:                  -0.472
REMARK UNBOUND:                -0.483
REMARK  Name = /home/qwerty/github/datacon2025hack/step_04_hit_selection/docking/ligands/lig_182.pdb
REMARK  4 active torsions:
REMARK  status: ('A' for Active; 'I' for Inactive)
REMARK    1  A    between atoms: C1_1  and  C2_2
REMARK    2  A    between atoms: C4_4  and  N1_5
REMARK    3  A    between atoms: C5_6  and  C6_8
REMARK    4  A    between atoms: C14_18  and  C15_20
REMARK                            x       y       z     vdW  Elec       q    Type
REMARK                         _______ _______ _______ _____ _____    ______ ____
ROOT
ATOM      1  C1  UNL     1       7.862  10.495  29.661  0.00  0.00    +0.028 C 
ATOM      2  C2  UNL     1       7.798  10.893  28.184  0.00  0.00    +0.075 C 
ATOM      3  C3  UNL     1       7.910   9.679  27.259  0.00  0.00    +0.046 C 
ATOM      4  C4  UNL     1       9.368   9.662  26.785  0.00  0.00    +0.092 C 
ATOM      5  C13 UNL     1       9.837  11.111  26.894  0.00  0.00    +0.130 C 
ATOM      6  N3  UNL     1       8.935  11.740  27.848  0.00  0.00    -0.292 N 
ATOM      7  C14 UNL     1       8.980  13.143  28.156  0.00  0.00    +0.263 C 
ATOM      8  O2  UNL     1       7.904  13.799  28.232  0.00  0.00    -0.268 OA
ENDROOT
BRANCH   7   9
ATOM      9  C15 UNL     1      10.259  13.836  28.388  0.00  0.00    +0.102 A 
ATOM     10  C16 UNL     1      10.999  13.775  29.554  0.00  0.00    +0.032 A 
ATOM     11  C17 UNL     1      12.142  14.514  29.324  0.00  0.00    +0.020 A 
ATOM     12  C18 UNL     1      12.057  14.980  28.028  0.00  0.00    +0.083 A 
ATOM     13  N4  UNL     1      10.912  14.561  27.460  0.00  0.00    -0.357 N 
ATOM     14  H22 UNL     1      10.626  14.724  26.469  0.00  0.00    +0.165 HD
ENDBRANCH   7   9
BRANCH   4  15
ATOM     15  N1  UNL     1       9.505   9.146  25.419  0.00  0.00    -0.306 N 
ATOM     16  C5  UNL     1       9.579   7.738  25.146  0.00  0.00    +0.261 C 
ATOM     17  O1  UNL     1       9.612   6.915  26.101  0.00  0.00    -0.269 OA
ATOM     18  H8  UNL     1       9.520   9.817  24.620  0.00  0.00    +0.149 HD
BRANCH  16  19
ATOM     19  C6  UNL     1       9.625   7.231  23.760  0.00  0.00    +0.102 A 
ATOM     20  C7  UNL     1       8.993   6.077  23.287  0.00  0.00    +0.036 A 
ATOM     21  C8  UNL     1       9.407   5.974  21.978  0.00  0.00    -0.026 A 
ATOM     22  C9  UNL     1      10.241   6.985  21.722  0.00  0.00    +0.020 A 
ATOM     23  N2  UNL     1      10.417   7.767  22.799  0.00  0.00    -0.354 N 
ATOM     24  C10 UNL     1      11.129   6.742  20.572  0.00  0.00    +0.054 C 
ATOM     25  C11 UNL     1      10.598   5.389  20.028  0.00  0.00    +0.011 C 
ATOM     26  C12 UNL     1       9.563   4.841  21.046  0.00  0.00    +0.037 C 
ATOM     27  H10 UNL     1      11.108   8.544  22.902  0.00  0.00    +0.166 HD
ENDBRANCH  16  19
ENDBRANCH   4  15
TORSDOF 3
ENDMDL
MODEL 9
REMARK VINA RESULT:    -5.840     11.606     13.771
REMARK INTER + INTRA:          -7.348
REMARK INTER:                  -6.855
REMARK INTRA:                  -0.492
REMARK UNBOUND:                -0.483
REMARK  Name = /home/qwerty/github/datacon2025hack/step_04_hit_selection/docking/ligands/lig_182.pdb
REMARK  4 active torsions:
REMARK  status: ('A' for Active; 'I' for Inactive)
REMARK    1  A    between atoms: C1_1  and  C2_2
REMARK    2  A    between atoms: C4_4  and  N1_5
REMARK    3  A    between atoms: C5_6  and  C6_8
REMARK    4  A    between atoms: C14_18  and  C15_20
REMARK                            x       y       z     vdW  Elec       q    Type
REMARK                         _______ _______ _______ _____ _____    ______ ____
ROOT
ATOM      1  C1  UNL     1      18.604   5.848  37.546  0.00  0.00    +0.028 C 
ATOM      2  C2  UNL     1      19.030   7.292  37.818  0.00  0.00    +0.075 C 
ATOM      3  C3  UNL     1      17.894   8.284  37.555  0.00  0.00    +0.046 C 
ATOM      4  C4  UNL     1      18.183   8.874  36.170  0.00  0.00    +0.092 C 
ATOM      5  C13 UNL     1      19.692   8.731  35.984  0.00  0.00    +0.130 C 
ATOM      6  N3  UNL     1      20.096   7.677  36.903  0.00  0.00    -0.292 N 
ATOM      7  C14 UNL     1      21.470   7.304  37.106  0.00  0.00    +0.263 C 
ATOM      8  O2  UNL     1      21.896   7.108  38.277  0.00  0.00    -0.268 OA
ENDROOT
BRANCH   7   9
ATOM      9  C15 UNL     1      22.395   7.142  35.971  0.00  0.00    +0.102 A 
ATOM     10  C16 UNL     1      22.523   6.000  35.203  0.00  0.00    +0.032 A 
ATOM     11  C17 UNL     1      23.448   6.296  34.222  0.00  0.00    +0.020 A 
ATOM     12  C18 UNL     1      23.831   7.606  34.424  0.00  0.00    +0.083 A 
ATOM     13  N4  UNL     1      23.185   8.118  35.486  0.00  0.00    -0.357 N 
ATOM     14  H22 UNL     1      23.249   9.105  35.822  0.00  0.00    +0.165 HD
ENDBRANCH   7   9
BRANCH   4  15
ATOM     15  N1  UNL     1      17.750  10.271  36.056  0.00  0.00    -0.306 N 
ATOM     16  C5  UNL     1      16.543  10.636  35.368  0.00  0.00    +0.261 C 
ATOM     17  O1  UNL     1      15.872   9.753  34.768  0.00  0.00    -0.269 OA
ATOM     18  H8  UNL     1      18.316  11.019  36.514  0.00  0.00    +0.149 HD
BRANCH  16  19
ATOM     19  C6  UNL     1      16.074  12.035  35.341  0.00  0.00    +0.102 A 
ATOM     20  C7  UNL     1      16.742  13.135  35.888  0.00  0.00    +0.036 A 
ATOM     21  C8  UNL     1      15.875  14.188  35.701  0.00  0.00    -0.026 A 
ATOM     22  C9  UNL     1      14.771  13.722  35.111  0.00  0.00    +0.020 A 
ATOM     23  N2  UNL     1      14.847  12.399  34.893  0.00  0.00    -0.354 N 
ATOM     24  C10 UNL     1      13.592  14.586  35.295  0.00  0.00    +0.054 C 
ATOM     25  C11 UNL     1      14.197  15.814  36.026  0.00  0.00    +0.011 C 
ATOM     26  C12 UNL     1      15.662  15.468  36.403  0.00  0.00    +0.037 C 
ATOM     27  H10 UNL     1      14.077  11.774  34.562  0.00  0.00    +0.166 HD
ENDBRANCH  16  19
ENDBRANCH   4  15
TORSDOF 3
ENDMDL
