REMARK  Name = /home/qwerty/github/datacon2025hack/step_04_hit_selection/docking/ligands/lig_399.pdb
REMARK  12 active torsions:
REMARK  status: ('A' for Active; 'I' for Inactive)
REMARK    1  A    between atoms: C1_1  and  O1_2
REMARK    2  A    between atoms: O1_2  and  C2_3
REMARK    3  A    between atoms: C4_5  and  O2_6
REMARK    4  A    between atoms: O2_6  and  C5_7
REMARK    5  A    between atoms: C7_9  and  C8_10
REMARK    6  A    between atoms: C13_18  and  N4_19
REMARK    7  A    between atoms: C14_20  and  C15_21
REMARK    8  A    between atoms: N5_24  and  C17_25
REMARK    9  A    between atoms: C17_25  and  C18_26
REMARK   10  A    between atoms: C18_26  and  C19_27
REMARK   11  A    between atoms: C18_26  and  S1_28
REMARK   12  A    between atoms: S1_28  and  C20_29
REMARK                            x       y       z     vdW  Elec       q    Type
REMARK                         _______ _______ _______ _____ _____    ______ ____
ROOT
ATOM      1  C8  UNL     1      -0.769  -1.087  -0.871  0.00  0.00    +0.166 A 
ATOM      2  N1  UNL     1       0.072  -1.339  -1.895  0.00  0.00    -0.128 NA
ATOM      3  N2  UNL     1       1.236  -0.786  -1.592  0.00  0.00    -0.113 NA
ATOM      4  C9  UNL     1       1.083  -0.202  -0.391  0.00  0.00    +0.220 A 
ATOM      5  N3  UNL     1       2.128   0.527   0.265  0.00  0.00    -0.298 N 
ATOM      6  C10 UNL     1       2.783  -0.060   1.440  0.00  0.00    +0.108 C 
ATOM      7  C11 UNL     1       3.765   0.931   2.071  0.00  0.00    +0.021 C 
ATOM      8  C12 UNL     1       4.785   1.446   1.041  0.00  0.00    +0.025 C 
ATOM      9  C13 UNL     1       4.175   1.762  -0.352  0.00  0.00    +0.090 C 
ATOM     10  C16 UNL     1       2.636   1.766  -0.334  0.00  0.00    +0.130 C 
ATOM     11  N5  UNL     1      -0.164  -0.358   0.098  0.00  0.00    -0.294 N 
ENDROOT
BRANCH   1  16
ATOM     12  C2  UNL     1      -4.103  -2.522   0.234  0.00  0.00    +0.124 A 
ATOM     13  C3  UNL     1      -4.876  -2.287  -0.908  0.00  0.00    +0.091 A 
ATOM     14  C4  UNL     1      -4.311  -1.678  -2.045  0.00  0.00    +0.124 A 
ATOM     15  C6  UNL     1      -2.965  -1.299  -2.020  0.00  0.00    +0.057 A 
ATOM     16  C7  UNL     1      -2.183  -1.507  -0.876  0.00  0.00    +0.026 A 
ATOM     17  C21 UNL     1      -2.748  -2.141   0.240  0.00  0.00    +0.057 A 
BRANCH  12  19
ATOM     18  C1  UNL     1      -4.060  -3.413   2.571  0.00  0.00    +0.277 C 
ATOM     19  O1  UNL     1      -4.716  -3.136   1.337  0.00  0.00    -0.495 OA
ENDBRANCH  12  19
BRANCH  14  20
ATOM     20  O2  UNL     1      -5.051  -1.430  -3.211  0.00  0.00    -0.495 OA
ATOM     21  C5  UNL     1      -6.427  -1.758  -3.375  0.00  0.00    +0.277 C 
ENDBRANCH  14  20
ENDBRANCH   1  16
BRANCH   9  22
ATOM     22  N4  UNL     1       4.659   0.796  -1.345  0.00  0.00    -0.311 N 
ATOM     23  C14 UNL     1       5.915   0.957  -2.023  0.00  0.00    +0.210 C 
ATOM     24  C15 UNL     1       6.396  -0.098  -2.965  0.00  0.00    +0.109 C 
ATOM     25  O3  UNL     1       6.643   1.961  -1.794  0.00  0.00    -0.276 OA
ATOM     26  H16 UNL     1       4.135  -0.101  -1.477  0.00  0.00    +0.149 HD
ENDBRANCH   9  22
BRANCH  11  27
ATOM     27  C17 UNL     1      -0.769   0.335   1.244  0.00  0.00    +0.140 C 
BRANCH  27  28
ATOM     28  C18 UNL     1      -1.692   1.481   0.784  0.00  0.00    +0.063 C 
ATOM     29  C19 UNL     1      -0.910   2.653   0.183  0.00  0.00    +0.021 C 
BRANCH  28  30
ATOM     30  S1  UNL     1      -2.823   2.048   2.121  0.00  0.00    -0.159 S 
ATOM     31  C20 UNL     1      -1.596   2.400   3.426  0.00  0.00    +0.084 C 
ENDBRANCH  28  30
ENDBRANCH  27  28
ENDBRANCH  11  27
TORSDOF 7
