REMARK  Name = /home/qwerty/github/datacon2025hack/step_04_hit_selection/docking/ligands/lig_61.pdb
REMARK  6 active torsions:
REMARK  status: ('A' for Active; 'I' for Inactive)
REMARK    1  A    between atoms: C1_1  and  C2_2
REMARK    2  A    between atoms: C2_2  and  C3_3
REMARK    3  A    between atoms: C2_2  and  C4_4
REMARK    4  A    between atoms: C6_8  and  C7_9
REMARK    5  A    between atoms: C10_14  and  N4_15
REMARK    6  A    between atoms: C11_16  and  C12_18
REMARK                            x       y       z     vdW  Elec       q    Type
REMARK                         _______ _______ _______ _____ _____    ______ ____
ROOT
ATOM      1  C7  UNL     1       2.265   0.533  -0.188  0.00  0.00    +0.250 C 
ATOM      2  O1  UNL     1       2.907   1.150  -1.081  0.00  0.00    -0.270 OA
ATOM      3  N3  UNL     1       1.079  -0.197  -0.548  0.00  0.00    -0.296 N 
ATOM      4  C8  UNL     1       0.513  -1.278   0.245  0.00  0.00    +0.110 C 
ATOM      5  C9  UNL     1      -0.398  -2.044  -0.705  0.00  0.00    +0.043 C 
ATOM      6  C10 UNL     1      -0.716  -1.066  -1.840  0.00  0.00    +0.092 C 
ATOM      7  C17 UNL     1       0.480  -0.111  -1.870  0.00  0.00    +0.130 C 
ENDROOT
BRANCH   1  12
ATOM      8  C4  UNL     1       4.065   0.618   1.656  0.00  0.00    +0.077 A 
ATOM      9  N1  UNL     1       4.070   0.761   2.998  0.00  0.00    -0.178 NA
ATOM     10  N2  UNL     1       2.811   0.804   3.404  0.00  0.00    -0.284 N 
ATOM     11  C5  UNL     1       1.986   0.704   2.347  0.00  0.00    +0.118 A 
ATOM     12  C6  UNL     1       2.752   0.582   1.205  0.00  0.00    +0.077 A 
ATOM     13  H8  UNL     1       2.520   0.923   4.399  0.00  0.00    +0.188 HD
BRANCH   8  15
ATOM     14  C1  UNL     1       5.852   1.986   0.587  0.00  0.00    +0.014 C 
ATOM     15  C2  UNL     1       5.317   0.569   0.816  0.00  0.00    +0.034 C 
ATOM     16  C3  UNL     1       6.383  -0.315   1.474  0.00  0.00    +0.014 C 
ENDBRANCH   8  15
ENDBRANCH   1  12
BRANCH   6  17
ATOM     17  N4  UNL     1      -1.965  -0.348  -1.550  0.00  0.00    -0.307 N 
ATOM     18  C11 UNL     1      -3.249  -0.979  -1.691  0.00  0.00    +0.240 C 
ATOM     19  O2  UNL     1      -3.335  -2.084  -2.294  0.00  0.00    -0.271 OA
ATOM     20  H15 UNL     1      -1.925   0.661  -1.281  0.00  0.00    +0.149 HD
BRANCH  18  21
ATOM     21  C12 UNL     1      -4.484  -0.348  -1.163  0.00  0.00    +0.015 C 
ATOM     22  C13 UNL     1      -4.435   0.566  -0.180  0.00  0.00    +0.009 C 
ATOM     23  C14 UNL     1      -5.695   1.169   0.384  0.00  0.00    +0.187 C 
ATOM     24  O3  UNL     1      -6.767   1.126  -0.540  0.00  0.00    -0.375 OA
ATOM     25  C15 UNL     1      -6.990  -0.211  -0.941  0.00  0.00    +0.165 C 
ATOM     26  C16 UNL     1      -5.813  -0.714  -1.785  0.00  0.00    +0.068 C 
ENDBRANCH  18  21
ENDBRANCH   6  17
TORSDOF 4
