MODEL 1
REMARK VINA RESULT:    -6.093      0.000      0.000
REMARK INTER + INTRA:          -8.822
REMARK INTER:                  -7.874
REMARK INTRA:                  -0.947
REMARK UNBOUND:                -0.947
REMARK  Name = /home/qwerty/github/datacon2025hack/step_04_hit_selection/docking/ligands/lig_37.pdb
REMARK  7 active torsions:
REMARK  status: ('A' for Active; 'I' for Inactive)
REMARK    1  A    between atoms: C1_1  and  C2_2
REMARK    2  A    between atoms: C2_2  and  C3_3
REMARK    3  A    between atoms: C2_2  and  N1_4
REMARK    4  A    between atoms: C4_5  and  C5_7
REMARK    5  A    between atoms: C9_15  and  C10_16
REMARK    6  A    between atoms: N5_22  and  C15_23
REMARK    7  A    between atoms: C15_23  and  C16_24
REMARK                            x       y       z     vdW  Elec       q    Type
REMARK                         _______ _______ _______ _____ _____    ______ ____
ROOT
ATOM      1  C5  UNL     1      21.469   5.053  32.636  0.00  0.00    +0.221 A 
ATOM      2  N2  UNL     1      21.604   5.874  31.575  0.00  0.00    -0.123 NA
ATOM      3  N3  UNL     1      21.713   5.116  30.497  0.00  0.00    -0.113 NA
ATOM      4  C6  UNL     1      21.656   3.838  30.915  0.00  0.00    +0.220 A 
ATOM      5  N4  UNL     1      21.703   2.720  30.012  0.00  0.00    -0.295 N 
ATOM      6  C7  UNL     1      22.815   1.766  30.099  0.00  0.00    +0.136 C 
ATOM      7  C8  UNL     1      22.895   0.930  28.822  0.00  0.00    +0.180 C 
ATOM      8  O2  UNL     1      21.625   0.386  28.531  0.00  0.00    -0.366 OA
ATOM      9  C9  UNL     1      20.668   1.386  28.192  0.00  0.00    +0.201 C 
ATOM     10  C14 UNL     1      20.947   2.804  28.760  0.00  0.00    +0.147 C 
ATOM     11  N5  UNL     1      21.491   3.752  32.254  0.00  0.00    -0.289 N 
ENDROOT
BRANCH   9  12
ATOM     12  C10 UNL     1      20.494   1.424  26.700  0.00  0.00    +0.135 A 
ATOM     13  C11 UNL     1      19.824   0.485  25.940  0.00  0.00    +0.047 A 
ATOM     14  C12 UNL     1      19.941   0.912  24.635  0.00  0.00    +0.041 A 
ATOM     15  C13 UNL     1      20.677   2.080  24.677  0.00  0.00    +0.195 A 
ATOM     16  O3  UNL     1      20.996   2.358  25.921  0.00  0.00    -0.465 OA
ENDBRANCH   9  12
BRANCH   1  18
ATOM     17  N1  UNL     1      22.278   6.434  34.587  0.00  0.00    -0.306 N 
ATOM     18  C4  UNL     1      21.288   5.566  34.012  0.00  0.00    +0.282 C 
ATOM     19  O1  UNL     1      20.260   5.264  34.676  0.00  0.00    -0.267 OA
ATOM     20  H8  UNL     1      23.163   6.602  34.057  0.00  0.00    +0.149 HD
BRANCH  17  22
ATOM     21  C1  UNL     1      23.287   6.628  36.825  0.00  0.00    +0.027 C 
ATOM     22  C2  UNL     1      22.119   7.029  35.919  0.00  0.00    +0.067 C 
ATOM     23  C3  UNL     1      22.031   8.554  35.804  0.00  0.00    +0.027 C 
ENDBRANCH  17  22
ENDBRANCH   1  18
BRANCH  11  24
ATOM     24  C15 UNL     1      21.386   2.536  33.069  0.00  0.00    +0.158 C 
BRANCH  24  25
ATOM     25  C16 UNL     1      20.035   1.837  32.842  0.00  0.00    +0.138 C 
ATOM     26  C17 UNL     1      19.073   2.101  34.024  0.00  0.00    +0.033 C 
ATOM     27  C18 UNL     1      18.089   0.938  34.223  0.00  0.00    +0.005 C 
ATOM     28  C19 UNL     1      17.770   0.256  32.891  0.00  0.00    +0.028 C 
ATOM     29  C20 UNL     1      19.068  -0.172  32.167  0.00  0.00    +0.160 C 
ATOM     30  O4  UNL     1      20.237   0.444  32.688  0.00  0.00    -0.375 OA
ENDBRANCH  24  25
ENDBRANCH  11  24
TORSDOF 5
ENDMDL
MODEL 2
REMARK VINA RESULT:    -5.978     10.619     13.738
REMARK INTER + INTRA:          -8.673
REMARK INTER:                  -7.628
REMARK INTRA:                  -1.045
REMARK UNBOUND:                -0.947
REMARK  Name = /home/qwerty/github/datacon2025hack/step_04_hit_selection/docking/ligands/lig_37.pdb
REMARK  7 active torsions:
REMARK  status: ('A' for Active; 'I' for Inactive)
REMARK    1  A    between atoms: C1_1  and  C2_2
REMARK    2  A    between atoms: C2_2  and  C3_3
REMARK    3  A    between atoms: C2_2  and  N1_4
REMARK    4  A    between atoms: C4_5  and  C5_7
REMARK    5  A    between atoms: C9_15  and  C10_16
REMARK    6  A    between atoms: N5_22  and  C15_23
REMARK    7  A    between atoms: C15_23  and  C16_24
REMARK                            x       y       z     vdW  Elec       q    Type
REMARK                         _______ _______ _______ _____ _____    ______ ____
ROOT
ATOM      1  C5  UNL     1      12.673   6.641  22.654  0.00  0.00    +0.221 A 
ATOM      2  N2  UNL     1      13.550   6.428  23.656  0.00  0.00    -0.123 NA
ATOM      3  N3  UNL     1      13.869   5.144  23.637  0.00  0.00    -0.113 NA
ATOM      4  C6  UNL     1      13.174   4.585  22.630  0.00  0.00    +0.220 A 
ATOM      5  N4  UNL     1      13.293   3.198  22.277  0.00  0.00    -0.295 N 
ATOM      6  C7  UNL     1      12.123   2.319  22.389  0.00  0.00    +0.136 C 
ATOM      7  C8  UNL     1      12.559   0.854  22.374  0.00  0.00    +0.180 C 
ATOM      8  O2  UNL     1      13.411   0.624  21.272  0.00  0.00    -0.366 OA
ATOM      9  C9  UNL     1      14.649   1.319  21.385  0.00  0.00    +0.201 C 
ATOM     10  C14 UNL     1      14.627   2.593  22.274  0.00  0.00    +0.147 C 
ATOM     11  N5  UNL     1      12.415   5.494  21.976  0.00  0.00    -0.289 N 
ENDROOT
BRANCH   9  12
ATOM     12  C10 UNL     1      15.718   0.363  21.834  0.00  0.00    +0.135 A 
ATOM     13  C11 UNL     1      16.305  -0.616  21.057  0.00  0.00    +0.047 A 
ATOM     14  C12 UNL     1      17.202  -1.258  21.884  0.00  0.00    +0.041 A 
ATOM     15  C13 UNL     1      17.104  -0.636  23.113  0.00  0.00    +0.195 A 
ATOM     16  O3  UNL     1      16.209   0.324  23.054  0.00  0.00    -0.465 OA
ENDBRANCH   9  12
BRANCH   1  18
ATOM     17  N1  UNL     1      12.344   8.576  21.069  0.00  0.00    -0.306 N 
ATOM     18  C4  UNL     1      12.124   7.983  22.358  0.00  0.00    +0.282 C 
ATOM     19  O1  UNL     1      11.448   8.601  23.223  0.00  0.00    -0.267 OA
ATOM     20  H8  UNL     1      12.980   8.090  20.397  0.00  0.00    +0.149 HD
BRANCH  17  22
ATOM     21  C1  UNL     1      12.856  10.947  20.641  0.00  0.00    +0.027 C 
ATOM     22  C2  UNL     1      11.766   9.872  20.694  0.00  0.00    +0.067 C 
ATOM     23  C3  UNL     1      11.061   9.759  19.339  0.00  0.00    +0.027 C 
ENDBRANCH  17  22
ENDBRANCH   1  18
BRANCH  11  24
ATOM     24  C15 UNL     1      11.525   5.263  20.832  0.00  0.00    +0.158 C 
BRANCH  24  25
ATOM     25  C16 UNL     1      10.071   5.621  21.186  0.00  0.00    +0.138 C 
ATOM     26  C17 UNL     1       9.138   4.406  20.974  0.00  0.00    +0.033 C 
ATOM     27  C18 UNL     1       7.713   4.846  20.603  0.00  0.00    +0.005 C 
ATOM     28  C19 UNL     1       7.369   6.190  21.248  0.00  0.00    +0.028 C 
ATOM     29  C20 UNL     1       8.435   7.255  20.904  0.00  0.00    +0.160 C 
ATOM     30  O4  UNL     1       9.638   6.706  20.386  0.00  0.00    -0.375 OA
ENDBRANCH  24  25
ENDBRANCH  11  24
TORSDOF 5
ENDMDL
MODEL 3
REMARK VINA RESULT:    -5.977      3.080      9.125
REMARK INTER + INTRA:          -8.672
REMARK INTER:                  -8.067
REMARK INTRA:                  -0.604
REMARK UNBOUND:                -0.947
REMARK  Name = /home/qwerty/github/datacon2025hack/step_04_hit_selection/docking/ligands/lig_37.pdb
REMARK  7 active torsions:
REMARK  status: ('A' for Active; 'I' for Inactive)
REMARK    1  A    between atoms: C1_1  and  C2_2
REMARK    2  A    between atoms: C2_2  and  C3_3
REMARK    3  A    between atoms: C2_2  and  N1_4
REMARK    4  A    between atoms: C4_5  and  C5_7
REMARK    5  A    between atoms: C9_15  and  C10_16
REMARK    6  A    between atoms: N5_22  and  C15_23
REMARK    7  A    between atoms: C15_23  and  C16_24
REMARK                            x       y       z     vdW  Elec       q    Type
REMARK                         _______ _______ _______ _____ _____    ______ ____
ROOT
ATOM      1  C5  UNL     1      21.236   4.148  31.866  0.00  0.00    +0.221 A 
ATOM      2  N2  UNL     1      19.993   4.004  32.368  0.00  0.00    -0.123 NA
ATOM      3  N3  UNL     1      19.899   4.789  33.429  0.00  0.00    -0.113 NA
ATOM      4  C6  UNL     1      21.093   5.394  33.570  0.00  0.00    +0.220 A 
ATOM      5  N4  UNL     1      21.360   6.358  34.602  0.00  0.00    -0.295 N 
ATOM      6  C7  UNL     1      22.385   6.071  35.613  0.00  0.00    +0.136 C 
ATOM      7  C8  UNL     1      22.216   6.999  36.815  0.00  0.00    +0.180 C 
ATOM      8  O2  UNL     1      22.131   8.337  36.373  0.00  0.00    -0.366 OA
ATOM      9  C9  UNL     1      20.951   8.588  35.615  0.00  0.00    +0.201 C 
ATOM     10  C14 UNL     1      20.328   7.350  34.911  0.00  0.00    +0.147 C 
ATOM     11  N5  UNL     1      21.962   5.028  32.601  0.00  0.00    -0.289 N 
ENDROOT
BRANCH   9  12
ATOM     12  C10 UNL     1      19.940   9.285  36.481  0.00  0.00    +0.135 A 
ATOM     13  C11 UNL     1      19.233   8.710  37.520  0.00  0.00    +0.047 A 
ATOM     14  C12 UNL     1      18.415   9.707  38.006  0.00  0.00    +0.041 A 
ATOM     15  C13 UNL     1      18.668  10.824  37.234  0.00  0.00    +0.195 A 
ATOM     16  O3  UNL     1      19.579  10.541  36.331  0.00  0.00    -0.465 OA
ENDBRANCH   9  12
BRANCH   1  18
ATOM     17  N1  UNL     1      22.171   2.091  30.745  0.00  0.00    -0.306 N 
ATOM     18  C4  UNL     1      21.682   3.438  30.647  0.00  0.00    +0.282 C 
ATOM     19  O1  UNL     1      21.616   3.999  29.521  0.00  0.00    -0.267 OA
ATOM     20  H8  UNL     1      22.301   1.674  31.694  0.00  0.00    +0.149 HD
BRANCH  17  22
ATOM     21  C1  UNL     1      24.072   1.063  29.564  0.00  0.00    +0.027 C 
ATOM     22  C2  UNL     1      22.561   1.312  29.564  0.00  0.00    +0.067 C 
ATOM     23  C3  UNL     1      21.801  -0.018  29.539  0.00  0.00    +0.027 C 
ENDBRANCH  17  22
ENDBRANCH   1  18
BRANCH  11  24
ATOM     24  C15 UNL     1      23.349   5.474  32.424  0.00  0.00    +0.158 C 
BRANCH  24  25
ATOM     25  C16 UNL     1      23.435   7.010  32.407  0.00  0.00    +0.138 C 
ATOM     26  C17 UNL     1      22.933   7.575  31.057  0.00  0.00    +0.033 C 
ATOM     27  C18 UNL     1      23.631   8.898  30.705  0.00  0.00    +0.005 C 
ATOM     28  C19 UNL     1      23.996   9.679  31.968  0.00  0.00    +0.028 C 
ATOM     29  C20 UNL     1      24.824   8.803  32.937  0.00  0.00    +0.160 C 
ATOM     30  O4  UNL     1      24.772   7.417  32.633  0.00  0.00    -0.375 OA
ENDBRANCH  24  25
ENDBRANCH  11  24
TORSDOF 5
ENDMDL
MODEL 4
REMARK VINA RESULT:    -5.954      4.676     10.268
REMARK INTER + INTRA:          -8.642
REMARK INTER:                  -7.633
REMARK INTRA:                  -1.009
REMARK UNBOUND:                -0.947
REMARK  Name = /home/qwerty/github/datacon2025hack/step_04_hit_selection/docking/ligands/lig_37.pdb
REMARK  7 active torsions:
REMARK  status: ('A' for Active; 'I' for Inactive)
REMARK    1  A    between atoms: C1_1  and  C2_2
REMARK    2  A    between atoms: C2_2  and  C3_3
REMARK    3  A    between atoms: C2_2  and  N1_4
REMARK    4  A    between atoms: C4_5  and  C5_7
REMARK    5  A    between atoms: C9_15  and  C10_16
REMARK    6  A    between atoms: N5_22  and  C15_23
REMARK    7  A    between atoms: C15_23  and  C16_24
REMARK                            x       y       z     vdW  Elec       q    Type
REMARK                         _______ _______ _______ _____ _____    ______ ____
ROOT
ATOM      1  C5  UNL     1      21.110   7.001  35.331  0.00  0.00    +0.221 A 
ATOM      2  N2  UNL     1      20.612   7.163  36.573  0.00  0.00    -0.123 NA
ATOM      3  N3  UNL     1      20.059   8.364  36.627  0.00  0.00    -0.113 NA
ATOM      4  C6  UNL     1      20.238   8.927  35.418  0.00  0.00    +0.220 A 
ATOM      5  N4  UNL     1      19.733  10.230  35.083  0.00  0.00    -0.295 N 
ATOM      6  C7  UNL     1      20.672  11.303  34.736  0.00  0.00    +0.136 C 
ATOM      7  C8  UNL     1      19.979  12.662  34.828  0.00  0.00    +0.180 C 
ATOM      8  O2  UNL     1      18.771  12.629  34.099  0.00  0.00    -0.366 OA
ATOM      9  C9  UNL     1      17.810  11.747  34.674  0.00  0.00    +0.201 C 
ATOM     10  C14 UNL     1      18.390  10.594  35.539  0.00  0.00    +0.147 C 
ATOM     11  N5  UNL     1      20.886   8.100  34.566  0.00  0.00    -0.289 N 
ENDROOT
BRANCH   9  12
ATOM     12  C10 UNL     1      16.798  12.547  35.445  0.00  0.00    +0.135 A 
ATOM     13  C11 UNL     1      16.521  13.888  35.264  0.00  0.00    +0.047 A 
ATOM     14  C12 UNL     1      15.554  14.195  36.197  0.00  0.00    +0.041 A 
ATOM     15  C13 UNL     1      15.304  13.028  36.891  0.00  0.00    +0.195 A 
ATOM     16  O3  UNL     1      16.063  12.063  36.422  0.00  0.00    -0.465 OA
ENDBRANCH   9  12
BRANCH   1  18
ATOM     17  N1  UNL     1      21.040   4.772  34.152  0.00  0.00    -0.306 N 
ATOM     18  C4  UNL     1      21.775   5.750  34.904  0.00  0.00    +0.282 C 
ATOM     19  O1  UNL     1      22.987   5.546  35.179  0.00  0.00    -0.267 OA
ATOM     20  H8  UNL     1      20.015   4.917  34.009  0.00  0.00    +0.149 HD
BRANCH  17  22
ATOM     21  C1  UNL     1      20.671   2.381  33.692  0.00  0.00    +0.027 C 
ATOM     22  C2  UNL     1      21.664   3.546  33.641  0.00  0.00    +0.067 C 
ATOM     23  C3  UNL     1      22.157   3.765  32.208  0.00  0.00    +0.027 C 
ENDBRANCH  17  22
ENDBRANCH   1  18
BRANCH  11  24
ATOM     24  C15 UNL     1      21.260   8.361  33.171  0.00  0.00    +0.158 C 
BRANCH  24  25
ATOM     25  C16 UNL     1      22.728   8.811  33.071  0.00  0.00    +0.138 C 
ATOM     26  C17 UNL     1      22.900   9.884  31.970  0.00  0.00    +0.033 C 
ATOM     27  C18 UNL     1      24.303   9.831  31.345  0.00  0.00    +0.005 C 
ATOM     28  C19 UNL     1      25.341   9.362  32.365  0.00  0.00    +0.028 C 
ATOM     29  C20 UNL     1      24.918   8.020  33.005  0.00  0.00    +0.160 C 
ATOM     30  O4  UNL     1      23.552   7.695  32.789  0.00  0.00    -0.375 OA
ENDBRANCH  24  25
ENDBRANCH  11  24
TORSDOF 5
ENDMDL
MODEL 5
REMARK VINA RESULT:    -5.953      6.495     10.016
REMARK INTER + INTRA:          -8.641
REMARK INTER:                  -8.042
REMARK INTRA:                  -0.599
REMARK UNBOUND:                -0.947
REMARK  Name = /home/qwerty/github/datacon2025hack/step_04_hit_selection/docking/ligands/lig_37.pdb
REMARK  7 active torsions:
REMARK  status: ('A' for Active; 'I' for Inactive)
REMARK    1  A    between atoms: C1_1  and  C2_2
REMARK    2  A    between atoms: C2_2  and  C3_3
REMARK    3  A    between atoms: C2_2  and  N1_4
REMARK    4  A    between atoms: C4_5  and  C5_7
REMARK    5  A    between atoms: C9_15  and  C10_16
REMARK    6  A    between atoms: N5_22  and  C15_23
REMARK    7  A    between atoms: C15_23  and  C16_24
REMARK                            x       y       z     vdW  Elec       q    Type
REMARK                         _______ _______ _______ _____ _____    ______ ____
ROOT
ATOM      1  C5  UNL     1      18.677   1.596  24.360  0.00  0.00    +0.221 A 
ATOM      2  N2  UNL     1      18.560   2.921  24.141  0.00  0.00    -0.123 NA
ATOM      3  N3  UNL     1      17.569   3.096  23.283  0.00  0.00    -0.113 NA
ATOM      4  C6  UNL     1      17.098   1.872  22.978  0.00  0.00    +0.220 A 
ATOM      5  N4  UNL     1      15.983   1.663  22.097  0.00  0.00    -0.295 N 
ATOM      6  C7  UNL     1      16.179   0.926  20.843  0.00  0.00    +0.136 C 
ATOM      7  C8  UNL     1      15.009   1.178  19.893  0.00  0.00    +0.180 C 
ATOM      8  O2  UNL     1      13.791   0.950  20.569  0.00  0.00    -0.366 OA
ATOM      9  C9  UNL     1      13.559   1.895  21.610  0.00  0.00    +0.201 C 
ATOM     10  C14 UNL     1      14.829   2.558  22.211  0.00  0.00    +0.147 C 
ATOM     11  N5  UNL     1      17.760   0.898  23.643  0.00  0.00    -0.289 N 
ENDROOT
BRANCH   9  12
ATOM     12  C10 UNL     1      12.580   2.930  21.134  0.00  0.00    +0.135 A 
ATOM     13  C11 UNL     1      12.896   4.086  20.448  0.00  0.00    +0.047 A 
ATOM     14  C12 UNL     1      11.697   4.735  20.243  0.00  0.00    +0.041 A 
ATOM     15  C13 UNL     1      10.726   3.940  20.818  0.00  0.00    +0.195 A 
ATOM     16  O3  UNL     1      11.283   2.872  21.345  0.00  0.00    -0.465 OA
ENDBRANCH   9  12
BRANCH   1  18
ATOM     17  N1  UNL     1      20.384   1.911  26.190  0.00  0.00    -0.306 N 
ATOM     18  C4  UNL     1      19.673   1.037  25.300  0.00  0.00    +0.282 C 
ATOM     19  O1  UNL     1      19.887  -0.204  25.340  0.00  0.00    -0.267 OA
ATOM     20  H8  UNL     1      20.259   2.944  26.083  0.00  0.00    +0.149 HD
BRANCH  17  22
ATOM     21  C1  UNL     1      22.502   2.382  27.355  0.00  0.00    +0.027 C 
ATOM     22  C2  UNL     1      21.331   1.408  27.192  0.00  0.00    +0.067 C 
ATOM     23  C3  UNL     1      20.618   1.202  28.531  0.00  0.00    +0.027 C 
ENDBRANCH  17  22
ENDBRANCH   1  18
BRANCH  11  24
ATOM     24  C15 UNL     1      17.535  -0.550  23.571  0.00  0.00    +0.158 C 
BRANCH  24  25
ATOM     25  C16 UNL     1      16.454  -0.988  24.574  0.00  0.00    +0.138 C 
ATOM     26  C17 UNL     1      16.511  -2.516  24.813  0.00  0.00    +0.033 C 
ATOM     27  C18 UNL     1      15.127  -3.085  25.165  0.00  0.00    +0.005 C 
ATOM     28  C19 UNL     1      14.284  -2.051  25.912  0.00  0.00    +0.028 C 
ATOM     29  C20 UNL     1      14.204  -0.726  25.119  0.00  0.00    +0.160 C 
ATOM     30  O4  UNL     1      15.174  -0.625  24.087  0.00  0.00    -0.375 OA
ENDBRANCH  24  25
ENDBRANCH  11  24
TORSDOF 5
ENDMDL
MODEL 6
REMARK VINA RESULT:    -5.919     13.021     14.454
REMARK INTER + INTRA:          -8.597
REMARK INTER:                  -7.599
REMARK INTRA:                  -0.997
REMARK UNBOUND:                -0.947
REMARK  Name = /home/qwerty/github/datacon2025hack/step_04_hit_selection/docking/ligands/lig_37.pdb
REMARK  7 active torsions:
REMARK  status: ('A' for Active; 'I' for Inactive)
REMARK    1  A    between atoms: C1_1  and  C2_2
REMARK    2  A    between atoms: C2_2  and  C3_3
REMARK    3  A    between atoms: C2_2  and  N1_4
REMARK    4  A    between atoms: C4_5  and  C5_7
REMARK    5  A    between atoms: C9_15  and  C10_16
REMARK    6  A    between atoms: N5_22  and  C15_23
REMARK    7  A    between atoms: C15_23  and  C16_24
REMARK                            x       y       z     vdW  Elec       q    Type
REMARK                         _______ _______ _______ _____ _____    ______ ____
ROOT
ATOM      1  C5  UNL     1      12.465  12.583  32.562  0.00  0.00    +0.221 A 
ATOM      2  N2  UNL     1      11.916  11.379  32.824  0.00  0.00    -0.123 NA
ATOM      3  N3  UNL     1      10.959  11.176  31.933  0.00  0.00    -0.113 NA
ATOM      4  C6  UNL     1      10.926  12.266  31.143  0.00  0.00    +0.220 A 
ATOM      5  N4  UNL     1      10.031  12.393  30.027  0.00  0.00    -0.295 N 
ATOM      6  C7  UNL     1       9.020  13.457  30.026  0.00  0.00    +0.136 C 
ATOM      7  C8  UNL     1       7.940  13.159  28.988  0.00  0.00    +0.180 C 
ATOM      8  O2  UNL     1       8.543  12.869  27.745  0.00  0.00    -0.366 OA
ATOM      9  C9  UNL     1       9.295  11.659  27.772  0.00  0.00    +0.201 C 
ATOM     10  C14 UNL     1       9.821  11.225  29.168  0.00  0.00    +0.147 C 
ATOM     11  N5  UNL     1      11.866  13.173  31.497  0.00  0.00    -0.289 N 
ENDROOT
BRANCH   9  12
ATOM     12  C10 UNL     1       8.495  10.561  27.128  0.00  0.00    +0.135 A 
ATOM     13  C11 UNL     1       8.260  10.421  25.775  0.00  0.00    +0.047 A 
ATOM     14  C12 UNL     1       7.468   9.299  25.651  0.00  0.00    +0.041 A 
ATOM     15  C13 UNL     1       7.265   8.828  26.933  0.00  0.00    +0.195 A 
ATOM     16  O3  UNL     1       7.887   9.603  27.793  0.00  0.00    -0.465 OA
ENDBRANCH   9  12
BRANCH   1  18
ATOM     17  N1  UNL     1      13.395  13.509  34.716  0.00  0.00    -0.306 N 
ATOM     18  C4  UNL     1      13.596  13.121  33.348  0.00  0.00    +0.282 C 
ATOM     19  O1  UNL     1      14.741  13.223  32.832  0.00  0.00    -0.267 OA
ATOM     20  H8  UNL     1      12.423  13.500  35.100  0.00  0.00    +0.149 HD
BRANCH  17  22
ATOM     21  C1  UNL     1      14.237  15.425  36.013  0.00  0.00    +0.027 C 
ATOM     22  C2  UNL     1      14.493  13.983  35.566  0.00  0.00    +0.067 C 
ATOM     23  C3  UNL     1      14.648  13.066  36.783  0.00  0.00    +0.027 C 
ENDBRANCH  17  22
ENDBRANCH   1  18
BRANCH  11  24
ATOM     24  C15 UNL     1      12.134  14.475  30.876  0.00  0.00    +0.158 C 
BRANCH  24  25
ATOM     25  C16 UNL     1      12.717  14.300  29.463  0.00  0.00    +0.138 C 
ATOM     26  C17 UNL     1      14.238  14.585  29.456  0.00  0.00    +0.033 C 
ATOM     27  C18 UNL     1      14.704  15.128  28.096  0.00  0.00    +0.005 C 
ATOM     28  C19 UNL     1      13.852  14.563  26.958  0.00  0.00    +0.028 C 
ATOM     29  C20 UNL     1      12.348  14.811  27.220  0.00  0.00    +0.160 C 
ATOM     30  O4  UNL     1      12.060  15.173  28.563  0.00  0.00    -0.375 OA
ENDBRANCH  24  25
ENDBRANCH  11  24
TORSDOF 5
ENDMDL
MODEL 7
REMARK VINA RESULT:    -5.918      8.231     12.625
REMARK INTER + INTRA:          -8.596
REMARK INTER:                  -7.440
REMARK INTRA:                  -1.156
REMARK UNBOUND:                -0.947
REMARK  Name = /home/qwerty/github/datacon2025hack/step_04_hit_selection/docking/ligands/lig_37.pdb
REMARK  7 active torsions:
REMARK  status: ('A' for Active; 'I' for Inactive)
REMARK    1  A    between atoms: C1_1  and  C2_2
REMARK    2  A    between atoms: C2_2  and  C3_3
REMARK    3  A    between atoms: C2_2  and  N1_4
REMARK    4  A    between atoms: C4_5  and  C5_7
REMARK    5  A    between atoms: C9_15  and  C10_16
REMARK    6  A    between atoms: N5_22  and  C15_23
REMARK    7  A    between atoms: C15_23  and  C16_24
REMARK                            x       y       z     vdW  Elec       q    Type
REMARK                         _______ _______ _______ _____ _____    ______ ____
ROOT
ATOM      1  C5  UNL     1      11.657   1.120  23.698  0.00  0.00    +0.221 A 
ATOM      2  N2  UNL     1      11.816   1.049  25.035  0.00  0.00    -0.123 NA
ATOM      3  N3  UNL     1      13.078   0.729  25.268  0.00  0.00    -0.113 NA
ATOM      4  C6  UNL     1      13.673   0.595  24.068  0.00  0.00    +0.220 A 
ATOM      5  N4  UNL     1      15.068   0.286  23.920  0.00  0.00    -0.295 N 
ATOM      6  C7  UNL     1      15.467  -0.965  23.264  0.00  0.00    +0.136 C 
ATOM      7  C8  UNL     1      16.927  -1.286  23.581  0.00  0.00    +0.180 C 
ATOM      8  O2  UNL     1      17.730  -0.156  23.313  0.00  0.00    -0.366 OA
ATOM      9  C9  UNL     1      17.450   0.932  24.190  0.00  0.00    +0.201 C 
ATOM     10  C14 UNL     1      16.026   0.947  24.809  0.00  0.00    +0.147 C 
ATOM     11  N5  UNL     1      12.817   0.843  23.051  0.00  0.00    -0.289 N 
ENDROOT
BRANCH   9  12
ATOM     12  C10 UNL     1      18.506   0.997  25.257  0.00  0.00    +0.135 A 
ATOM     13  C11 UNL     1      19.814   0.571  25.127  0.00  0.00    +0.047 A 
ATOM     14  C12 UNL     1      20.401   0.799  26.352  0.00  0.00    +0.041 A 
ATOM     15  C13 UNL     1      19.418   1.344  27.155  0.00  0.00    +0.195 A 
ATOM     16  O3  UNL     1      18.298   1.446  26.476  0.00  0.00    -0.465 OA
ENDBRANCH   9  12
BRANCH   1  18
ATOM     17  N1  UNL     1       9.945   2.864  23.070  0.00  0.00    -0.306 N 
ATOM     18  C4  UNL     1      10.366   1.491  23.076  0.00  0.00    +0.282 C 
ATOM     19  O1  UNL     1       9.643   0.613  22.534  0.00  0.00    -0.267 OA
ATOM     20  H8  UNL     1      10.513   3.563  23.601  0.00  0.00    +0.149 HD
BRANCH  17  22
ATOM     21  C1  UNL     1       7.746   3.911  23.429  0.00  0.00    +0.027 C 
ATOM     22  C2  UNL     1       8.711   3.302  22.408  0.00  0.00    +0.067 C 
ATOM     23  C3  UNL     1       9.038   4.317  21.309  0.00  0.00    +0.027 C 
ENDBRANCH  17  22
ENDBRANCH   1  18
BRANCH  11  24
ATOM     24  C15 UNL     1      13.096   0.796  21.611  0.00  0.00    +0.158 C 
BRANCH  24  25
ATOM     25  C16 UNL     1      13.708   2.122  21.127  0.00  0.00    +0.138 C 
ATOM     26  C17 UNL     1      12.611   3.071  20.591  0.00  0.00    +0.033 C 
ATOM     27  C18 UNL     1      13.156   4.003  19.497  0.00  0.00    +0.005 C 
ATOM     28  C19 UNL     1      14.634   4.318  19.731  0.00  0.00    +0.028 C 
ATOM     29  C20 UNL     1      15.458   3.018  19.878  0.00  0.00    +0.160 C 
ATOM     30  O4  UNL     1      14.661   1.866  20.112  0.00  0.00    -0.375 OA
ENDBRANCH  24  25
ENDBRANCH  11  24
TORSDOF 5
ENDMDL
MODEL 8
REMARK VINA RESULT:    -5.848      7.167     10.783
REMARK INTER + INTRA:          -8.505
REMARK INTER:                  -7.414
REMARK INTRA:                  -1.091
REMARK UNBOUND:                -0.947
REMARK  Name = /home/qwerty/github/datacon2025hack/step_04_hit_selection/docking/ligands/lig_37.pdb
REMARK  7 active torsions:
REMARK  status: ('A' for Active; 'I' for Inactive)
REMARK    1  A    between atoms: C1_1  and  C2_2
REMARK    2  A    between atoms: C2_2  and  C3_3
REMARK    3  A    between atoms: C2_2  and  N1_4
REMARK    4  A    between atoms: C4_5  and  C5_7
REMARK    5  A    between atoms: C9_15  and  C10_16
REMARK    6  A    between atoms: N5_22  and  C15_23
REMARK    7  A    between atoms: C15_23  and  C16_24
REMARK                            x       y       z     vdW  Elec       q    Type
REMARK                         _______ _______ _______ _____ _____    ______ ____
ROOT
ATOM      1  C5  UNL     1      16.106  11.385  37.005  0.00  0.00    +0.221 A 
ATOM      2  N2  UNL     1      16.538  10.790  38.135  0.00  0.00    -0.123 NA
ATOM      3  N3  UNL     1      17.418   9.866  37.787  0.00  0.00    -0.113 NA
ATOM      4  C6  UNL     1      17.505   9.899  36.445  0.00  0.00    +0.220 A 
ATOM      5  N4  UNL     1      18.400   9.056  35.701  0.00  0.00    -0.295 N 
ATOM      6  C7  UNL     1      17.852   8.077  34.754  0.00  0.00    +0.136 C 
ATOM      7  C8  UNL     1      18.911   7.033  34.401  0.00  0.00    +0.180 C 
ATOM      8  O2  UNL     1      20.105   7.680  34.013  0.00  0.00    -0.366 OA
ATOM      9  C9  UNL     1      20.713   8.394  35.086  0.00  0.00    +0.201 C 
ATOM     10  C14 UNL     1      19.753   8.847  36.221  0.00  0.00    +0.147 C 
ATOM     11  N5  UNL     1      16.704  10.849  35.911  0.00  0.00    -0.289 N 
ENDROOT
BRANCH   9  12
ATOM     12  C10 UNL     1      21.858   7.591  35.633  0.00  0.00    +0.135 A 
ATOM     13  C11 UNL     1      22.116   7.358  36.970  0.00  0.00    +0.047 A 
ATOM     14  C12 UNL     1      23.269   6.602  36.999  0.00  0.00    +0.041 A 
ATOM     15  C13 UNL     1      23.646   6.425  35.682  0.00  0.00    +0.195 A 
ATOM     16  O3  UNL     1      22.788   7.029  34.891  0.00  0.00    -0.465 OA
ENDBRANCH   9  12
BRANCH   1  18
ATOM     17  N1  UNL     1      15.587  13.849  36.855  0.00  0.00    -0.306 N 
ATOM     18  C4  UNL     1      15.131  12.497  37.021  0.00  0.00    +0.282 C 
ATOM     19  O1  UNL     1      13.901  12.266  37.160  0.00  0.00    -0.267 OA
ATOM     20  H8  UNL     1      16.616  14.030  36.830  0.00  0.00    +0.149 HD
BRANCH  17  22
ATOM     21  C1  UNL     1      15.416  16.301  37.015  0.00  0.00    +0.027 C 
ATOM     22  C2  UNL     1      14.662  14.986  36.793  0.00  0.00    +0.067 C 
ATOM     23  C3  UNL     1      13.944  15.004  35.440  0.00  0.00    +0.027 C 
ENDBRANCH  17  22
ENDBRANCH   1  18
BRANCH  11  24
ATOM     24  C15 UNL     1      16.528  11.181  34.492  0.00  0.00    +0.158 C 
BRANCH  24  25
ATOM     25  C16 UNL     1      17.696  12.043  33.981  0.00  0.00    +0.138 C 
ATOM     26  C17 UNL     1      17.210  13.465  33.613  0.00  0.00    +0.033 C 
ATOM     27  C18 UNL     1      18.063  14.080  32.492  0.00  0.00    +0.005 C 
ATOM     28  C19 UNL     1      19.503  13.570  32.556  0.00  0.00    +0.028 C 
ATOM     29  C20 UNL     1      19.541  12.024  32.560  0.00  0.00    +0.160 C 
ATOM     30  O4  UNL     1      18.286  11.428  32.851  0.00  0.00    -0.375 OA
ENDBRANCH  24  25
ENDBRANCH  11  24
TORSDOF 5
ENDMDL
MODEL 9
REMARK VINA RESULT:    -5.727     12.882     15.609
REMARK INTER + INTRA:          -8.349
REMARK INTER:                  -7.413
REMARK INTRA:                  -0.936
REMARK UNBOUND:                -0.947
REMARK  Name = /home/qwerty/github/datacon2025hack/step_04_hit_selection/docking/ligands/lig_37.pdb
REMARK  7 active torsions:
REMARK  status: ('A' for Active; 'I' for Inactive)
REMARK    1  A    between atoms: C1_1  and  C2_2
REMARK    2  A    between atoms: C2_2  and  C3_3
REMARK    3  A    between atoms: C2_2  and  N1_4
REMARK    4  A    between atoms: C4_5  and  C5_7
REMARK    5  A    between atoms: C9_15  and  C10_16
REMARK    6  A    between atoms: N5_22  and  C15_23
REMARK    7  A    between atoms: C15_23  and  C16_24
REMARK                            x       y       z     vdW  Elec       q    Type
REMARK                         _______ _______ _______ _____ _____    ______ ____
ROOT
ATOM      1  C5  UNL     1      12.893   5.797  20.838  0.00  0.00    +0.221 A 
ATOM      2  N2  UNL     1      13.624   6.617  21.621  0.00  0.00    -0.123 NA
ATOM      3  N3  UNL     1      12.787   7.458  22.206  0.00  0.00    -0.113 NA
ATOM      4  C6  UNL     1      11.554   7.149  21.764  0.00  0.00    +0.220 A 
ATOM      5  N4  UNL     1      10.372   7.830  22.214  0.00  0.00    -0.295 N 
ATOM      6  C7  UNL     1       9.561   8.586  21.253  0.00  0.00    +0.136 C 
ATOM      7  C8  UNL     1       8.626   9.545  21.989  0.00  0.00    +0.180 C 
ATOM      8  O2  UNL     1       7.919   8.845  22.990  0.00  0.00    -0.366 OA
ATOM      9  C9  UNL     1       8.769   8.374  24.031  0.00  0.00    +0.201 C 
ATOM     10  C14 UNL     1      10.256   8.155  23.638  0.00  0.00    +0.147 C 
ATOM     11  N5  UNL     1      11.573   6.102  20.908  0.00  0.00    -0.289 N 
ENDROOT
BRANCH   9  12
ATOM     12  C10 UNL     1       8.651   9.284  25.221  0.00  0.00    +0.135 A 
ATOM     13  C11 UNL     1       7.616   9.290  26.135  0.00  0.00    +0.047 A 
ATOM     14  C12 UNL     1       7.915  10.297  27.027  0.00  0.00    +0.041 A 
ATOM     15  C13 UNL     1       9.109  10.846  26.602  0.00  0.00    +0.195 A 
ATOM     16  O3  UNL     1       9.522  10.224  25.521  0.00  0.00    -0.465 OA
ENDBRANCH   9  12
BRANCH   1  18
ATOM     17  N1  UNL     1      14.030   3.547  20.729  0.00  0.00    -0.306 N 
ATOM     18  C4  UNL     1      13.506   4.702  20.054  0.00  0.00    +0.282 C 
ATOM     19  O1  UNL     1      13.552   4.766  18.797  0.00  0.00    -0.267 OA
ATOM     20  H8  UNL     1      14.062   3.551  21.773  0.00  0.00    +0.149 HD
BRANCH  17  22
ATOM     21  C1  UNL     1      16.115   2.466  19.988  0.00  0.00    +0.027 C 
ATOM     22  C2  UNL     1      14.584   2.400  20.002  0.00  0.00    +0.067 C 
ATOM     23  C3  UNL     1      14.112   1.093  20.645  0.00  0.00    +0.027 C 
ENDBRANCH  17  22
ENDBRANCH   1  18
BRANCH  11  24
ATOM     24  C15 UNL     1      10.432   5.482  20.224  0.00  0.00    +0.158 C 
BRANCH  24  25
ATOM     25  C16 UNL     1       9.655   4.557  21.177  0.00  0.00    +0.138 C 
ATOM     26  C17 UNL     1       8.254   5.136  21.485  0.00  0.00    +0.033 C 
ATOM     27  C18 UNL     1       7.764   4.717  22.880  0.00  0.00    +0.005 C 
ATOM     28  C19 UNL     1       8.315   3.343  23.265  0.00  0.00    +0.028 C 
ATOM     29  C20 UNL     1       9.855   3.310  23.135  0.00  0.00    +0.160 C 
ATOM     30  O4  UNL     1      10.383   4.392  22.381  0.00  0.00    -0.375 OA
ENDBRANCH  24  25
ENDBRANCH  11  24
TORSDOF 5
ENDMDL
