REMARK  Name = /home/qwerty/github/datacon2025hack/step_04_hit_selection/docking/ligands/lig_729.pdb
REMARK  8 active torsions:
REMARK  status: ('A' for Active; 'I' for Inactive)
REMARK    1  A    between atoms: C1_1  and  O1_2
REMARK    2  A    between atoms: O1_2  and  C2_3
REMARK    3  A    between atoms: C7_9  and  N1_10
REMARK    4  A    between atoms: C8_11  and  C9_13
REMARK    5  A    between atoms: N2_15  and  C10_16
REMARK    6  A    between atoms: C12_18  and  C13_19
REMARK    7  A    between atoms: N3_20  and  C14_21
REMARK    8  A    between atoms: N5_24  and  C16_25
REMARK                            x       y       z     vdW  Elec       q    Type
REMARK                         _______ _______ _______ _____ _____    ______ ____
ROOT
ATOM      1  C9  UNL     1       1.341  -0.718  -0.812  0.00  0.00    +0.300 C 
ATOM      2  O3  UNL     1       1.358  -1.663  -1.645  0.00  0.00    -0.265 OA
ATOM      3  N2  UNL     1       0.130  -0.407  -0.107  0.00  0.00    -0.296 N 
ATOM      4  H8  UNL     1       0.133   0.376   0.586  0.00  0.00    +0.150 HD
ENDROOT
BRANCH   3   5
ATOM      5  C10 UNL     1      -1.109  -1.154  -0.340  0.00  0.00    +0.162 C 
ATOM      6  C11 UNL     1      -1.785  -0.723  -1.654  0.00  0.00    +0.054 C 
ATOM      7  C12 UNL     1      -3.287  -0.518  -1.337  0.00  0.00    +0.081 C 
ATOM      8  C13 UNL     1      -4.129  -1.684  -1.865  0.00  0.00    +0.028 C 
ATOM      9  N3  UNL     1      -3.379  -0.451   0.118  0.00  0.00    -0.264 N 
ATOM     10  C18 UNL     1      -2.135  -0.839   0.682  0.00  0.00    +0.240 C 
ATOM     11  O4  UNL     1      -1.929  -0.931   1.921  0.00  0.00    -0.273 OA
BRANCH   9  12
ATOM     12  C14 UNL     1      -4.539   0.000   0.842  0.00  0.00    +0.074 A 
ATOM     13  C15 UNL     1      -4.781  -0.093   2.203  0.00  0.00    +0.157 A 
ATOM     14  N4  UNL     1      -5.997   0.426   2.464  0.00  0.00    -0.178 NA
ATOM     15  N5  UNL     1      -6.510   0.851   1.319  0.00  0.00    -0.273 N 
ATOM     16  C16 UNL     1      -7.841   1.428   1.190  0.00  0.00    +0.172 C 
ATOM     17  C17 UNL     1      -5.661   0.598   0.306  0.00  0.00    +0.131 A 
ENDBRANCH   9  12
ENDBRANCH   3   5
BRANCH   1  19
ATOM     18  N1  UNL     1       3.801  -0.301  -1.222  0.00  0.00    -0.275 N 
ATOM     19  C8  UNL     1       2.574   0.053  -0.562  0.00  0.00    +0.303 C 
ATOM     20  O2  UNL     1       2.541   1.041   0.222  0.00  0.00    -0.265 OA
ATOM     21  H7  UNL     1       3.755  -0.910  -2.071  0.00  0.00    +0.155 HD
BRANCH  18  28
ATOM     22  C2  UNL     1       5.521   0.351   0.444  0.00  0.00    +0.141 A 
ATOM     23  C3  UNL     1       6.772   0.938   0.719  0.00  0.00    +0.049 A 
ATOM     24  C4  UNL     1       7.569   1.426  -0.319  0.00  0.00    +0.024 A 
ATOM     25  C5  UNL     1       7.132   1.332  -1.642  0.00  0.00    +0.043 A 
ATOM     26 CL1  UNL     1       8.144   1.930  -2.945  0.00  0.00    -0.083 Cl
ATOM     27  C6  UNL     1       5.890   0.760  -1.926  0.00  0.00    +0.047 A 
ATOM     28  C7  UNL     1       5.068   0.291  -0.891  0.00  0.00    +0.077 A 
BRANCH  22  30
ATOM     29  C1  UNL     1       5.066  -0.206   2.843  0.00  0.00    +0.277 C 
ATOM     30  O1  UNL     1       4.724  -0.198   1.461  0.00  0.00    -0.493 OA
ENDBRANCH  22  30
ENDBRANCH  18  28
ENDBRANCH   1  19
TORSDOF 5
