REMARK  Name = /home/qwerty/github/datacon2025hack/step_04_hit_selection/docking/ligands/lig_774.pdb
REMARK  4 active torsions:
REMARK  status: ('A' for Active; 'I' for Inactive)
REMARK    1  A    between atoms: C1_1  and  C2_2
REMARK    2  A    between atoms: C2_2  and  N1_3
REMARK    3  A    between atoms: C2_2  and  C12_17
REMARK    4  A    between atoms: C6_9  and  N3_10
REMARK                            x       y       z     vdW  Elec       q    Type
REMARK                         _______ _______ _______ _____ _____    ______ ____
ROOT
ATOM      1  N1  UNL     1       0.824   0.833   0.642  0.00  0.00    -0.293 N 
ATOM      2  C3  UNL     1       0.190   0.657  -0.636  0.00  0.00    +0.303 C 
ATOM      3  O1  UNL     1       0.627   1.282  -1.641  0.00  0.00    -0.253 OA
ATOM      4  N2  UNL     1      -0.932  -0.228  -0.788  0.00  0.00    -0.284 N 
ATOM      5  C4  UNL     1      -1.547  -0.507  -2.075  0.00  0.00    +0.111 C 
ATOM      6  C5  UNL     1      -2.569  -1.605  -1.813  0.00  0.00    +0.043 C 
ATOM      7  C6  UNL     1      -2.806  -1.605  -0.298  0.00  0.00    +0.095 C 
ATOM      8  C11 UNL     1      -1.570  -0.938   0.309  0.00  0.00    +0.131 C 
ATOM      9  H5  UNL     1       0.460   0.309   1.469  0.00  0.00    +0.151 HD
ENDROOT
BRANCH   7  10
ATOM     10  N3  UNL     1      -4.027  -0.864   0.056  0.00  0.00    -0.297 N 
ATOM     11  C7  UNL     1      -4.345   0.490  -0.384  0.00  0.00    +0.108 C 
ATOM     12  C8  UNL     1      -5.615   0.904   0.382  0.00  0.00    +0.028 C 
ATOM     13  C9  UNL     1      -5.841  -0.142   1.481  0.00  0.00    +0.097 C 
ATOM     14  C10 UNL     1      -4.859  -1.193   1.154  0.00  0.00    +0.216 C 
ATOM     15  O2  UNL     1      -4.751  -2.269   1.802  0.00  0.00    -0.276 OA
ENDBRANCH   7  10
BRANCH   1  17
ATOM     16  C1  UNL     1       2.269   1.951   2.300  0.00  0.00    +0.033 C 
ATOM     17  C2  UNL     1       1.991   1.705   0.813  0.00  0.00    +0.102 C 
BRANCH  17  18
ATOM     18  C12 UNL     1       3.207   1.096   0.150  0.00  0.00    -0.024 A 
ATOM     19  C13 UNL     1       4.034   1.892  -0.685  0.00  0.00    +0.009 A 
ATOM     20  C14 UNL     1       5.175   1.342  -1.297  0.00  0.00    +0.050 A 
ATOM     21  C15 UNL     1       5.464   0.004  -1.049  0.00  0.00    +0.166 A 
ATOM     22  C16 UNL     1       4.684  -0.763  -0.246  0.00  0.00    +0.167 A 
ATOM     23  C17 UNL     1       3.548  -0.258   0.378  0.00  0.00    +0.055 A 
ATOM     24  O3  UNL     1       5.207  -2.039  -0.179  0.00  0.00    -0.453 OA
ATOM     25  C18 UNL     1       6.389  -2.077  -0.992  0.00  0.00    +0.466 C 
ATOM     26  O4  UNL     1       6.515  -0.753  -1.529  0.00  0.00    -0.453 OA
ENDBRANCH  17  18
ENDBRANCH   1  17
TORSDOF 3
