MODEL 1
REMARK VINA RESULT:    -6.465      0.000      0.000
REMARK INTER + INTRA:          -8.288
REMARK INTER:                  -7.787
REMARK INTRA:                  -0.500
REMARK UNBOUND:                -0.500
REMARK  Name = /home/qwerty/github/datacon2025hack/step_04_hit_selection/docking/ligands/lig_45.pdb
REMARK  5 active torsions:
REMARK  status: ('A' for Active; 'I' for Inactive)
REMARK    1  A    between atoms: C1_1  and  C2_2
REMARK    2  A    between atoms: C5_5  and  N1_6
REMARK    3  A    between atoms: C9_13  and  C10_15
REMARK    4  A    between atoms: C13_18  and  C14_19
REMARK    5  A    between atoms: C14_19  and  O4_21
REMARK                            x       y       z     vdW  Elec       q    Type
REMARK                         _______ _______ _______ _____ _____    ______ ____
ROOT
ATOM      1  N1  UNL     1      21.048   3.780  23.358  0.00  0.00    -0.269 N 
ATOM      2  C6  UNL     1      20.554   5.125  23.243  0.00  0.00    +0.307 C 
ATOM      3  O1  UNL     1      19.889   5.630  24.189  0.00  0.00    -0.252 OA
ATOM      4  N2  UNL     1      20.759   5.882  22.034  0.00  0.00    -0.282 N 
ATOM      5  C7  UNL     1      19.833   6.982  21.721  0.00  0.00    +0.128 C 
ATOM      6  C8  UNL     1      20.065   7.532  20.311  0.00  0.00    +0.127 C 
ATOM      7  N3  UNL     1      21.497   7.775  20.099  0.00  0.00    -0.294 N 
ATOM      8  C9  UNL     1      21.938   8.916  19.342  0.00  0.00    +0.248 C 
ATOM      9  O2  UNL     1      22.771   8.755  18.409  0.00  0.00    -0.270 OA
ATOM     10  C16 UNL     1      22.481   6.754  20.485  0.00  0.00    +0.127 C 
ATOM     11  C17 UNL     1      21.813   5.506  21.081  0.00  0.00    +0.128 C 
ATOM     12  H6  UNL     1      21.179   3.231  22.479  0.00  0.00    +0.156 HD
ENDROOT
BRANCH   1  17
ATOM     13  C1  UNL     1      21.752   0.975  28.334  0.00  0.00    +0.044 C 
ATOM     14  C2  UNL     1      21.591   1.690  27.025  0.00  0.00    -0.050 A 
ATOM     15  C3  UNL     1      20.534   1.362  26.165  0.00  0.00    +0.005 A 
ATOM     16  C4  UNL     1      20.364   2.054  24.961  0.00  0.00    +0.023 A 
ATOM     17  C5  UNL     1      21.231   3.099  24.612  0.00  0.00    +0.035 A 
ATOM     18  C18 UNL     1      22.293   3.424  25.474  0.00  0.00    +0.023 A 
ATOM     19  C19 UNL     1      22.464   2.732  26.678  0.00  0.00    +0.005 A 
ENDBRANCH   1  17
BRANCH   8  20
ATOM     20  C10 UNL     1      21.447  10.281  19.647  0.00  0.00    +0.055 A 
ATOM     21  C11 UNL     1      20.551  10.927  18.782  0.00  0.00    +0.017 A 
ATOM     22  C12 UNL     1      20.103  12.216  19.069  0.00  0.00    +0.036 A 
ATOM     23  C13 UNL     1      20.565  12.867  20.224  0.00  0.00    +0.147 A 
ATOM     24  N4  UNL     1      21.447  12.231  21.040  0.00  0.00    -0.248 NA
ATOM     25  C15 UNL     1      21.895  10.973  20.782  0.00  0.00    +0.124 A 
BRANCH  23  26
ATOM     26  C14 UNL     1      20.118  14.229  20.567  0.00  0.00    +0.355 C 
ATOM     27  O3  UNL     1      20.120  14.623  21.764  0.00  0.00    -0.243 OA
BRANCH  26  28
ATOM     28  O4  UNL     1      19.690  15.088  19.560  0.00  0.00    -0.476 OA
ATOM     29  H13 UNL     1      20.326  15.393  18.833  0.00  0.00    +0.295 HD
ENDBRANCH  26  28
ENDBRANCH  23  26
ENDBRANCH   8  20
TORSDOF 4
ENDMDL
MODEL 2
REMARK VINA RESULT:    -6.424      1.615      1.974
REMARK INTER + INTRA:          -8.238
REMARK INTER:                  -7.783
REMARK INTRA:                  -0.455
REMARK UNBOUND:                -0.500
REMARK  Name = /home/qwerty/github/datacon2025hack/step_04_hit_selection/docking/ligands/lig_45.pdb
REMARK  5 active torsions:
REMARK  status: ('A' for Active; 'I' for Inactive)
REMARK    1  A    between atoms: C1_1  and  C2_2
REMARK    2  A    between atoms: C5_5  and  N1_6
REMARK    3  A    between atoms: C9_13  and  C10_15
REMARK    4  A    between atoms: C13_18  and  C14_19
REMARK    5  A    between atoms: C14_19  and  O4_21
REMARK                            x       y       z     vdW  Elec       q    Type
REMARK                         _______ _______ _______ _____ _____    ______ ____
ROOT
ATOM      1  N1  UNL     1      21.869   4.837  23.252  0.00  0.00    -0.269 N 
ATOM      2  C6  UNL     1      21.396   6.194  23.206  0.00  0.00    +0.307 C 
ATOM      3  O1  UNL     1      20.565   6.597  24.066  0.00  0.00    -0.252 OA
ATOM      4  N2  UNL     1      21.815   7.082  22.151  0.00  0.00    -0.282 N 
ATOM      5  C7  UNL     1      20.955   8.225  21.803  0.00  0.00    +0.128 C 
ATOM      6  C8  UNL     1      21.439   8.931  20.534  0.00  0.00    +0.127 C 
ATOM      7  N3  UNL     1      22.884   9.174  20.618  0.00  0.00    -0.294 N 
ATOM      8  C9  UNL     1      23.450  10.388  20.092  0.00  0.00    +0.248 C 
ATOM      9  O2  UNL     1      24.441  10.323  19.315  0.00  0.00    -0.270 OA
ATOM     10  C16 UNL     1      23.787   8.100  21.056  0.00  0.00    +0.127 C 
ATOM     11  C17 UNL     1      23.029   6.802  21.370  0.00  0.00    +0.128 C 
ATOM     12  H6  UNL     1      22.162   4.391  22.354  0.00  0.00    +0.156 HD
ENDROOT
BRANCH   1  17
ATOM     13  C1  UNL     1      21.664   1.466  27.912  0.00  0.00    +0.044 C 
ATOM     14  C2  UNL     1      21.742   2.330  26.689  0.00  0.00    -0.050 A 
ATOM     15  C3  UNL     1      20.863   2.120  25.617  0.00  0.00    +0.005 A 
ATOM     16  C4  UNL     1      20.912   2.948  24.491  0.00  0.00    +0.023 A 
ATOM     17  C5  UNL     1      21.823   4.013  24.430  0.00  0.00    +0.035 A 
ATOM     18  C18 UNL     1      22.706   4.220  25.505  0.00  0.00    +0.023 A 
ATOM     19  C19 UNL     1      22.657   3.392  26.631  0.00  0.00    +0.005 A 
ENDBRANCH   1  17
BRANCH   8  20
ATOM     20  C10 UNL     1      22.904  11.716  20.459  0.00  0.00    +0.055 A 
ATOM     21  C11 UNL     1      23.271  12.330  21.666  0.00  0.00    +0.017 A 
ATOM     22  C12 UNL     1      22.743  13.575  22.010  0.00  0.00    +0.036 A 
ATOM     23  C13 UNL     1      21.834  14.202  21.145  0.00  0.00    +0.147 A 
ATOM     24  N4  UNL     1      21.477  13.583  19.988  0.00  0.00    -0.248 NA
ATOM     25  C15 UNL     1      21.981  12.372  19.630  0.00  0.00    +0.124 A 
BRANCH  23  26
ATOM     26  C14 UNL     1      21.252  15.518  21.467  0.00  0.00    +0.355 C 
ATOM     27  O3  UNL     1      21.838  16.305  22.258  0.00  0.00    -0.243 OA
BRANCH  26  28
ATOM     28  O4  UNL     1      20.043  15.895  20.892  0.00  0.00    -0.476 OA
ATOM     29  H13 UNL     1      19.419  15.205  20.491  0.00  0.00    +0.295 HD
ENDBRANCH  26  28
ENDBRANCH  23  26
ENDBRANCH   8  20
TORSDOF 4
ENDMDL
MODEL 3
REMARK VINA RESULT:    -6.385      4.153     11.295
REMARK INTER + INTRA:          -8.192
REMARK INTER:                  -7.718
REMARK INTRA:                  -0.474
REMARK UNBOUND:                -0.500
REMARK  Name = /home/qwerty/github/datacon2025hack/step_04_hit_selection/docking/ligands/lig_45.pdb
REMARK  5 active torsions:
REMARK  status: ('A' for Active; 'I' for Inactive)
REMARK    1  A    between atoms: C1_1  and  C2_2
REMARK    2  A    between atoms: C5_5  and  N1_6
REMARK    3  A    between atoms: C9_13  and  C10_15
REMARK    4  A    between atoms: C13_18  and  C14_19
REMARK    5  A    between atoms: C14_19  and  O4_21
REMARK                            x       y       z     vdW  Elec       q    Type
REMARK                         _______ _______ _______ _____ _____    ______ ____
ROOT
ATOM      1  N1  UNL     1      21.411   6.261  23.687  0.00  0.00    -0.269 N 
ATOM      2  C6  UNL     1      20.679   5.832  24.848  0.00  0.00    +0.307 C 
ATOM      3  O1  UNL     1      19.469   6.164  24.983  0.00  0.00    -0.252 OA
ATOM      4  N2  UNL     1      21.330   5.077  25.888  0.00  0.00    -0.282 N 
ATOM      5  C7  UNL     1      20.768   5.114  27.248  0.00  0.00    +0.128 C 
ATOM      6  C8  UNL     1      21.695   4.437  28.261  0.00  0.00    +0.127 C 
ATOM      7  N3  UNL     1      22.131   3.134  27.747  0.00  0.00    -0.294 N 
ATOM      8  C9  UNL     1      22.280   2.012  28.637  0.00  0.00    +0.248 C 
ATOM      9  O2  UNL     1      23.348   1.342  28.613  0.00  0.00    -0.270 OA
ATOM     10  C16 UNL     1      22.609   3.012  26.363  0.00  0.00    +0.127 C 
ATOM     11  C17 UNL     1      22.584   4.357  25.623  0.00  0.00    +0.128 C 
ATOM     12  H6  UNL     1      22.444   6.386  23.780  0.00  0.00    +0.156 HD
ENDROOT
BRANCH   1  17
ATOM     13  C1  UNL     1      18.986   7.968  18.755  0.00  0.00    +0.044 C 
ATOM     14  C2  UNL     1      19.644   7.518  20.025  0.00  0.00    -0.050 A 
ATOM     15  C3  UNL     1      20.060   8.458  20.978  0.00  0.00    +0.005 A 
ATOM     16  C4  UNL     1      20.641   8.036  22.179  0.00  0.00    +0.023 A 
ATOM     17  C5  UNL     1      20.791   6.669  22.455  0.00  0.00    +0.035 A 
ATOM     18  C18 UNL     1      20.376   5.728  21.496  0.00  0.00    +0.023 A 
ATOM     19  C19 UNL     1      19.795   6.150  20.296  0.00  0.00    +0.005 A 
ENDBRANCH   1  17
BRANCH   8  20
ATOM     20  C10 UNL     1      21.197   1.617  29.568  0.00  0.00    +0.055 A 
ATOM     21  C11 UNL     1      21.479   1.350  30.916  0.00  0.00    +0.017 A 
ATOM     22  C12 UNL     1      20.456   0.966  31.785  0.00  0.00    +0.036 A 
ATOM     23  C13 UNL     1      19.147   0.839  31.296  0.00  0.00    +0.147 A 
ATOM     24  N4  UNL     1      18.898   1.085  29.982  0.00  0.00    -0.248 NA
ATOM     25  C15 UNL     1      19.877   1.463  29.118  0.00  0.00    +0.124 A 
BRANCH  23  26
ATOM     26  C14 UNL     1      18.035   0.437  32.177  0.00  0.00    +0.355 C 
ATOM     27  O3  UNL     1      17.385   1.299  32.826  0.00  0.00    -0.243 OA
BRANCH  26  28
ATOM     28  O4  UNL     1      17.699  -0.909  32.292  0.00  0.00    -0.476 OA
ATOM     29  H13 UNL     1      17.950  -1.571  31.568  0.00  0.00    +0.295 HD
ENDBRANCH  26  28
ENDBRANCH  23  26
ENDBRANCH   8  20
TORSDOF 4
ENDMDL
MODEL 4
REMARK VINA RESULT:    -6.356     13.002     14.154
REMARK INTER + INTRA:          -8.157
REMARK INTER:                  -7.647
REMARK INTRA:                  -0.510
REMARK UNBOUND:                -0.500
REMARK  Name = /home/qwerty/github/datacon2025hack/step_04_hit_selection/docking/ligands/lig_45.pdb
REMARK  5 active torsions:
REMARK  status: ('A' for Active; 'I' for Inactive)
REMARK    1  A    between atoms: C1_1  and  C2_2
REMARK    2  A    between atoms: C5_5  and  N1_6
REMARK    3  A    between atoms: C9_13  and  C10_15
REMARK    4  A    between atoms: C13_18  and  C14_19
REMARK    5  A    between atoms: C14_19  and  O4_21
REMARK                            x       y       z     vdW  Elec       q    Type
REMARK                         _______ _______ _______ _____ _____    ______ ____
ROOT
ATOM      1  N1  UNL     1       7.797   5.904  30.108  0.00  0.00    -0.269 N 
ATOM      2  C6  UNL     1       8.894   6.768  29.765  0.00  0.00    +0.307 C 
ATOM      3  O1  UNL     1       9.962   6.272  29.312  0.00  0.00    -0.252 OA
ATOM      4  N2  UNL     1       8.808   8.188  29.990  0.00  0.00    -0.282 N 
ATOM      5  C7  UNL     1      10.052   8.957  30.152  0.00  0.00    +0.128 C 
ATOM      6  C8  UNL     1       9.774  10.396  30.593  0.00  0.00    +0.127 C 
ATOM      7  N3  UNL     1       8.724  10.982  29.751  0.00  0.00    -0.294 N 
ATOM      8  C9  UNL     1       8.793  12.365  29.357  0.00  0.00    +0.248 C 
ATOM      9  O2  UNL     1       7.786  13.106  29.523  0.00  0.00    -0.270 OA
ATOM     10  C16 UNL     1       7.499  10.223  29.468  0.00  0.00    +0.127 C 
ATOM     11  C17 UNL     1       7.503   8.847  30.150  0.00  0.00    +0.128 C 
ATOM     12  H6  UNL     1       7.142   6.220  30.858  0.00  0.00    +0.156 HD
ENDROOT
BRANCH   1  17
ATOM     13  C1  UNL     1       7.123   0.549  28.110  0.00  0.00    +0.044 C 
ATOM     14  C2  UNL     1       7.269   1.945  28.637  0.00  0.00    -0.050 A 
ATOM     15  C3  UNL     1       7.867   2.171  29.885  0.00  0.00    +0.005 A 
ATOM     16  C4  UNL     1       8.035   3.475  30.361  0.00  0.00    +0.023 A 
ATOM     17  C5  UNL     1       7.632   4.573  29.586  0.00  0.00    +0.035 A 
ATOM     18  C18 UNL     1       7.030   4.344  28.337  0.00  0.00    +0.023 A 
ATOM     19  C19 UNL     1       6.861   3.040  27.861  0.00  0.00    +0.005 A 
ENDBRANCH   1  17
BRANCH   8  20
ATOM     20  C10 UNL     1      10.017  12.933  28.744  0.00  0.00    +0.055 A 
ATOM     21  C11 UNL     1      10.677  14.018  29.342  0.00  0.00    +0.017 A 
ATOM     22  C12 UNL     1      11.822  14.554  28.752  0.00  0.00    +0.036 A 
ATOM     23  C13 UNL     1      12.301  14.009  27.552  0.00  0.00    +0.147 A 
ATOM     24  N4  UNL     1      11.637  12.969  26.979  0.00  0.00    -0.248 NA
ATOM     25  C15 UNL     1      10.522  12.428  27.537  0.00  0.00    +0.124 A 
BRANCH  23  26
ATOM     26  C14 UNL     1      13.507  14.544  26.894  0.00  0.00    +0.355 C 
ATOM     27  O3  UNL     1      14.595  14.636  27.523  0.00  0.00    -0.243 OA
BRANCH  26  28
ATOM     28  O4  UNL     1      13.444  14.950  25.565  0.00  0.00    -0.476 OA
ATOM     29  H13 UNL     1      12.871  14.451  24.895  0.00  0.00    +0.295 HD
ENDBRANCH  26  28
ENDBRANCH  23  26
ENDBRANCH   8  20
TORSDOF 4
ENDMDL
MODEL 5
REMARK VINA RESULT:    -6.345     11.676     14.723
REMARK INTER + INTRA:          -8.143
REMARK INTER:                  -7.659
REMARK INTRA:                  -0.484
REMARK UNBOUND:                -0.500
REMARK  Name = /home/qwerty/github/datacon2025hack/step_04_hit_selection/docking/ligands/lig_45.pdb
REMARK  5 active torsions:
REMARK  status: ('A' for Active; 'I' for Inactive)
REMARK    1  A    between atoms: C1_1  and  C2_2
REMARK    2  A    between atoms: C5_5  and  N1_6
REMARK    3  A    between atoms: C9_13  and  C10_15
REMARK    4  A    between atoms: C13_18  and  C14_19
REMARK    5  A    between atoms: C14_19  and  O4_21
REMARK                            x       y       z     vdW  Elec       q    Type
REMARK                         _______ _______ _______ _____ _____    ______ ____
ROOT
ATOM      1  N1  UNL     1      15.602  14.885  27.477  0.00  0.00    -0.269 N 
ATOM      2  C6  UNL     1      14.896  13.695  27.869  0.00  0.00    +0.307 C 
ATOM      3  O1  UNL     1      15.517  12.762  28.449  0.00  0.00    -0.252 OA
ATOM      4  N2  UNL     1      13.500  13.531  27.551  0.00  0.00    -0.282 N 
ATOM      5  C7  UNL     1      12.950  12.169  27.460  0.00  0.00    +0.128 C 
ATOM      6  C8  UNL     1      11.521  12.173  26.910  0.00  0.00    +0.127 C 
ATOM      7  N3  UNL     1      10.718  13.180  27.613  0.00  0.00    -0.294 N 
ATOM      8  C9  UNL     1       9.338  12.920  27.927  0.00  0.00    +0.248 C 
ATOM      9  O2  UNL     1       8.463  13.777  27.622  0.00  0.00    -0.270 OA
ATOM     10  C16 UNL     1      11.253  14.531  27.824  0.00  0.00    +0.127 C 
ATOM     11  C17 UNL     1      12.660  14.694  27.231  0.00  0.00    +0.128 C 
ATOM     12  H6  UNL     1      15.244  15.415  26.652  0.00  0.00    +0.156 HD
ENDROOT
BRANCH   1  17
ATOM     13  C1  UNL     1      20.548  16.556  29.898  0.00  0.00    +0.044 C 
ATOM     14  C2  UNL     1      19.264  16.093  29.278  0.00  0.00    -0.050 A 
ATOM     15  C3  UNL     1      18.035  16.424  29.865  0.00  0.00    +0.005 A 
ATOM     16  C4  UNL     1      16.836  16.022  29.267  0.00  0.00    +0.023 A 
ATOM     17  C5  UNL     1      16.847  15.305  28.061  0.00  0.00    +0.035 A 
ATOM     18  C18 UNL     1      18.082  14.972  27.475  0.00  0.00    +0.023 A 
ATOM     19  C19 UNL     1      19.280  15.374  28.074  0.00  0.00    +0.005 A 
ENDBRANCH   1  17
BRANCH   8  20
ATOM     20  C10 UNL     1       8.923  11.676  28.616  0.00  0.00    +0.055 A 
ATOM     21  C11 UNL     1       9.546  11.282  29.811  0.00  0.00    +0.017 A 
ATOM     22  C12 UNL     1       9.158  10.103  30.449  0.00  0.00    +0.036 A 
ATOM     23  C13 UNL     1       8.151   9.309  29.880  0.00  0.00    +0.147 A 
ATOM     24  N4  UNL     1       7.573   9.699  28.712  0.00  0.00    -0.248 NA
ATOM     25  C15 UNL     1       7.931  10.845  28.075  0.00  0.00    +0.124 A 
BRANCH  23  26
ATOM     26  C14 UNL     1       7.710   8.056  30.518  0.00  0.00    +0.355 C 
ATOM     27  O3  UNL     1       8.046   6.938  30.042  0.00  0.00    -0.243 OA
BRANCH  26  28
ATOM     28  O4  UNL     1       6.914   8.106  31.659  0.00  0.00    -0.476 OA
ATOM     29  H13 UNL     1       7.147   7.559  32.479  0.00  0.00    +0.295 HD
ENDBRANCH  26  28
ENDBRANCH  23  26
ENDBRANCH   8  20
TORSDOF 4
ENDMDL
MODEL 6
REMARK VINA RESULT:    -6.314      4.597     10.519
REMARK INTER + INTRA:          -8.106
REMARK INTER:                  -7.690
REMARK INTRA:                  -0.416
REMARK UNBOUND:                -0.500
REMARK  Name = /home/qwerty/github/datacon2025hack/step_04_hit_selection/docking/ligands/lig_45.pdb
REMARK  5 active torsions:
REMARK  status: ('A' for Active; 'I' for Inactive)
REMARK    1  A    between atoms: C1_1  and  C2_2
REMARK    2  A    between atoms: C5_5  and  N1_6
REMARK    3  A    between atoms: C9_13  and  C10_15
REMARK    4  A    between atoms: C13_18  and  C14_19
REMARK    5  A    between atoms: C14_19  and  O4_21
REMARK                            x       y       z     vdW  Elec       q    Type
REMARK                         _______ _______ _______ _____ _____    ______ ____
ROOT
ATOM      1  N1  UNL     1      20.905   3.798  22.816  0.00  0.00    -0.269 N 
ATOM      2  C6  UNL     1      21.485   4.297  24.033  0.00  0.00    +0.307 C 
ATOM      3  O1  UNL     1      22.017   5.442  24.050  0.00  0.00    -0.252 OA
ATOM      4  N2  UNL     1      21.518   3.480  25.219  0.00  0.00    -0.282 N 
ATOM      5  C7  UNL     1      22.541   3.755  26.241  0.00  0.00    +0.128 C 
ATOM      6  C8  UNL     1      22.568   2.669  27.320  0.00  0.00    +0.127 C 
ATOM      7  N3  UNL     1      21.204   2.396  27.788  0.00  0.00    -0.294 N 
ATOM      8  C9  UNL     1      20.953   2.115  29.177  0.00  0.00    +0.248 C 
ATOM      9  O2  UNL     1      20.273   1.100  29.489  0.00  0.00    -0.270 OA
ATOM     10  C16 UNL     1      20.116   2.213  26.818  0.00  0.00    +0.127 C 
ATOM     11  C17 UNL     1      20.610   2.334  25.368  0.00  0.00    +0.128 C 
ATOM     12  H6  UNL     1      20.886   2.764  22.672  0.00  0.00    +0.156 HD
ENDROOT
BRANCH   1  17
ATOM     13  C1  UNL     1      19.164   7.199  18.512  0.00  0.00    +0.044 C 
ATOM     14  C2  UNL     1      19.629   6.337  19.647  0.00  0.00    -0.050 A 
ATOM     15  C3  UNL     1      18.712   5.857  20.593  0.00  0.00    +0.005 A 
ATOM     16  C4  UNL     1      19.141   5.024  21.631  0.00  0.00    +0.023 A 
ATOM     17  C5  UNL     1      20.486   4.638  21.726  0.00  0.00    +0.035 A 
ATOM     18  C18 UNL     1      21.404   5.124  20.778  0.00  0.00    +0.023 A 
ATOM     19  C19 UNL     1      20.976   5.957  19.739  0.00  0.00    +0.005 A 
ENDBRANCH   1  17
BRANCH   8  20
ATOM     20  C10 UNL     1      21.463   3.002  30.249  0.00  0.00    +0.055 A 
ATOM     21  C11 UNL     1      21.254   4.389  30.186  0.00  0.00    +0.017 A 
ATOM     22  C12 UNL     1      21.747   5.219  31.194  0.00  0.00    +0.036 A 
ATOM     23  C13 UNL     1      22.464   4.658  32.262  0.00  0.00    +0.147 A 
ATOM     24  N4  UNL     1      22.671   3.315  32.295  0.00  0.00    -0.248 NA
ATOM     25  C15 UNL     1      22.197   2.486  31.326  0.00  0.00    +0.124 A 
BRANCH  23  26
ATOM     26  C14 UNL     1      23.002   5.497  33.348  0.00  0.00    +0.355 C 
ATOM     27  O3  UNL     1      23.586   6.584  33.091  0.00  0.00    -0.243 OA
BRANCH  26  28
ATOM     28  O4  UNL     1      22.864   5.085  34.669  0.00  0.00    -0.476 OA
ATOM     29  H13 UNL     1      21.949   5.007  35.096  0.00  0.00    +0.295 HD
ENDBRANCH  26  28
ENDBRANCH  23  26
ENDBRANCH   8  20
TORSDOF 4
ENDMDL
MODEL 7
REMARK VINA RESULT:    -6.314      8.639     13.752
REMARK INTER + INTRA:          -8.105
REMARK INTER:                  -7.738
REMARK INTRA:                  -0.368
REMARK UNBOUND:                -0.500
REMARK  Name = /home/qwerty/github/datacon2025hack/step_04_hit_selection/docking/ligands/lig_45.pdb
REMARK  5 active torsions:
REMARK  status: ('A' for Active; 'I' for Inactive)
REMARK    1  A    between atoms: C1_1  and  C2_2
REMARK    2  A    between atoms: C5_5  and  N1_6
REMARK    3  A    between atoms: C9_13  and  C10_15
REMARK    4  A    between atoms: C13_18  and  C14_19
REMARK    5  A    between atoms: C14_19  and  O4_21
REMARK                            x       y       z     vdW  Elec       q    Type
REMARK                         _______ _______ _______ _____ _____    ______ ____
ROOT
ATOM      1  N1  UNL     1      22.002  11.619  30.823  0.00  0.00    -0.269 N 
ATOM      2  C6  UNL     1      21.510  10.276  30.681  0.00  0.00    +0.307 C 
ATOM      3  O1  UNL     1      20.954   9.924  29.604  0.00  0.00    -0.252 OA
ATOM      4  N2  UNL     1      21.592   9.344  31.777  0.00  0.00    -0.282 N 
ATOM      5  C7  UNL     1      20.647   8.216  31.820  0.00  0.00    +0.128 C 
ATOM      6  C8  UNL     1      20.733   7.458  33.147  0.00  0.00    +0.127 C 
ATOM      7  N3  UNL     1      22.136   7.175  33.471  0.00  0.00    -0.294 N 
ATOM      8  C9  UNL     1      22.504   5.929  34.089  0.00  0.00    +0.248 C 
ATOM      9  O2  UNL     1      23.232   5.941  35.120  0.00  0.00    -0.270 OA
ATOM     10  C16 UNL     1      23.147   8.235  33.350  0.00  0.00    +0.127 C 
ATOM     11  C17 UNL     1      22.536   9.563  32.882  0.00  0.00    +0.128 C 
ATOM     12  H6  UNL     1      22.034  12.028  31.784  0.00  0.00    +0.156 HD
ENDROOT
BRANCH   1  17
ATOM     13  C1  UNL     1      23.319  15.010  26.363  0.00  0.00    +0.044 C 
ATOM     14  C2  UNL     1      22.969  14.104  27.506  0.00  0.00    -0.050 A 
ATOM     15  C3  UNL     1      23.981  13.521  28.282  0.00  0.00    +0.005 A 
ATOM     16  C4  UNL     1      23.654  12.705  29.370  0.00  0.00    +0.023 A 
ATOM     17  C5  UNL     1      22.312  12.480  29.713  0.00  0.00    +0.035 A 
ATOM     18  C18 UNL     1      21.299  13.064  28.932  0.00  0.00    +0.023 A 
ATOM     19  C19 UNL     1      21.626  13.879  27.844  0.00  0.00    +0.005 A 
ENDBRANCH   1  17
BRANCH   8  20
ATOM     20  C10 UNL     1      22.061   4.629  33.531  0.00  0.00    +0.055 A 
ATOM     21  C11 UNL     1      22.616   4.138  32.340  0.00  0.00    +0.017 A 
ATOM     22  C12 UNL     1      22.185   2.919  31.815  0.00  0.00    +0.036 A 
ATOM     23  C13 UNL     1      21.184   2.196  32.480  0.00  0.00    +0.147 A 
ATOM     24  N4  UNL     1      20.646   2.698  33.624  0.00  0.00    -0.248 NA
ATOM     25  C15 UNL     1      21.052   3.881  34.156  0.00  0.00    +0.124 A 
BRANCH  23  26
ATOM     26  C14 UNL     1      20.699   0.904  31.962  0.00  0.00    +0.355 C 
ATOM     27  O3  UNL     1      20.604   0.704  30.721  0.00  0.00    -0.243 OA
BRANCH  26  28
ATOM     28  O4  UNL     1      20.342  -0.105  32.851  0.00  0.00    -0.476 OA
ATOM     29  H13 UNL     1      21.018  -0.487  33.501  0.00  0.00    +0.295 HD
ENDBRANCH  26  28
ENDBRANCH  23  26
ENDBRANCH   8  20
TORSDOF 4
ENDMDL
MODEL 8
REMARK VINA RESULT:    -6.302      6.377     10.682
REMARK INTER + INTRA:          -8.091
REMARK INTER:                  -7.638
REMARK INTRA:                  -0.452
REMARK UNBOUND:                -0.500
REMARK  Name = /home/qwerty/github/datacon2025hack/step_04_hit_selection/docking/ligands/lig_45.pdb
REMARK  5 active torsions:
REMARK  status: ('A' for Active; 'I' for Inactive)
REMARK    1  A    between atoms: C1_1  and  C2_2
REMARK    2  A    between atoms: C5_5  and  N1_6
REMARK    3  A    between atoms: C9_13  and  C10_15
REMARK    4  A    between atoms: C13_18  and  C14_19
REMARK    5  A    between atoms: C14_19  and  O4_21
REMARK                            x       y       z     vdW  Elec       q    Type
REMARK                         _______ _______ _______ _____ _____    ______ ____
ROOT
ATOM      1  N1  UNL     1      18.480   0.673  33.620  0.00  0.00    -0.269 N 
ATOM      2  C6  UNL     1      18.379   1.405  32.387  0.00  0.00    +0.307 C 
ATOM      3  O1  UNL     1      17.395   2.170  32.192  0.00  0.00    -0.252 OA
ATOM      4  N2  UNL     1      19.359   1.227  31.346  0.00  0.00    -0.282 N 
ATOM      5  C7  UNL     1      18.980   1.530  29.956  0.00  0.00    +0.128 C 
ATOM      6  C8  UNL     1      20.060   1.086  28.966  0.00  0.00    +0.127 C 
ATOM      7  N3  UNL     1      21.376   1.549  29.422  0.00  0.00    -0.294 N 
ATOM      8  C9  UNL     1      22.357   2.004  28.473  0.00  0.00    +0.248 C 
ATOM      9  O2  UNL     1      23.529   1.540  28.525  0.00  0.00    -0.270 OA
ATOM     10  C16 UNL     1      21.775   1.366  30.824  0.00  0.00    +0.127 C 
ATOM     11  C17 UNL     1      20.684   0.666  31.647  0.00  0.00    +0.128 C 
ATOM     12  H6  UNL     1      18.988  -0.239  33.607  0.00  0.00    +0.156 HD
ENDROOT
BRANCH   1  17
ATOM     13  C1  UNL     1      15.747   2.084  38.485  0.00  0.00    +0.044 C 
ATOM     14  C2  UNL     1      16.481   1.704  37.234  0.00  0.00    -0.050 A 
ATOM     15  C3  UNL     1      16.055   0.610  36.468  0.00  0.00    +0.005 A 
ATOM     16  C4  UNL     1      16.719   0.278  35.282  0.00  0.00    +0.023 A 
ATOM     17  C5  UNL     1      17.801   1.049  34.832  0.00  0.00    +0.035 A 
ATOM     18  C18 UNL     1      18.228   2.144  35.603  0.00  0.00    +0.023 A 
ATOM     19  C19 UNL     1      17.565   2.476  36.789  0.00  0.00    +0.005 A 
ENDBRANCH   1  17
BRANCH   8  20
ATOM     20  C10 UNL     1      22.025   3.019  27.446  0.00  0.00    +0.055 A 
ATOM     21  C11 UNL     1      22.471   2.868  26.124  0.00  0.00    +0.017 A 
ATOM     22  C12 UNL     1      22.164   3.834  25.165  0.00  0.00    +0.036 A 
ATOM     23  C13 UNL     1      21.417   4.963  25.536  0.00  0.00    +0.147 A 
ATOM     24  N4  UNL     1      21.010   5.099  26.826  0.00  0.00    -0.248 NA
ATOM     25  C15 UNL     1      21.294   4.169  27.777  0.00  0.00    +0.124 A 
BRANCH  23  26
ATOM     26  C14 UNL     1      21.070   6.008  24.557  0.00  0.00    +0.355 C 
ATOM     27  O3  UNL     1      21.442   5.914  23.356  0.00  0.00    -0.243 OA
BRANCH  26  28
ATOM     28  O4  UNL     1      20.322   7.110  24.961  0.00  0.00    -0.476 OA
ATOM     29  H13 UNL     1      20.624   7.686  25.737  0.00  0.00    +0.295 HD
ENDBRANCH  26  28
ENDBRANCH  23  26
ENDBRANCH   8  20
TORSDOF 4
ENDMDL
MODEL 9
REMARK VINA RESULT:    -6.233      5.506     11.418
REMARK INTER + INTRA:          -8.009
REMARK INTER:                  -7.695
REMARK INTRA:                  -0.314
REMARK UNBOUND:                -0.500
REMARK  Name = /home/qwerty/github/datacon2025hack/step_04_hit_selection/docking/ligands/lig_45.pdb
REMARK  5 active torsions:
REMARK  status: ('A' for Active; 'I' for Inactive)
REMARK    1  A    between atoms: C1_1  and  C2_2
REMARK    2  A    between atoms: C5_5  and  N1_6
REMARK    3  A    between atoms: C9_13  and  C10_15
REMARK    4  A    between atoms: C13_18  and  C14_19
REMARK    5  A    between atoms: C14_19  and  O4_21
REMARK                            x       y       z     vdW  Elec       q    Type
REMARK                         _______ _______ _______ _____ _____    ______ ____
ROOT
ATOM      1  N1  UNL     1      16.962   7.257  18.907  0.00  0.00    -0.269 N 
ATOM      2  C6  UNL     1      17.280   6.161  19.781  0.00  0.00    +0.307 C 
ATOM      3  O1  UNL     1      18.385   6.147  20.391  0.00  0.00    -0.252 OA
ATOM      4  N2  UNL     1      16.375   5.048  19.922  0.00  0.00    -0.282 N 
ATOM      5  C7  UNL     1      16.913   3.748  20.353  0.00  0.00    +0.128 C 
ATOM      6  C8  UNL     1      15.865   2.638  20.244  0.00  0.00    +0.127 C 
ATOM      7  N3  UNL     1      14.603   3.081  20.850  0.00  0.00    -0.294 N 
ATOM      8  C9  UNL     1      13.789   2.157  21.594  0.00  0.00    +0.248 C 
ATOM      9  O2  UNL     1      12.559   2.066  21.331  0.00  0.00    -0.270 OA
ATOM     10  C16 UNL     1      14.064   4.411  20.537  0.00  0.00    +0.127 C 
ATOM     11  C17 UNL     1      14.959   5.179  19.552  0.00  0.00    +0.128 C 
ATOM     12  H6  UNL     1      16.320   7.072  18.104  0.00  0.00    +0.156 HD
ENDROOT
BRANCH   1  17
ATOM     13  C1  UNL     1      19.407  12.453  19.296  0.00  0.00    +0.044 C 
ATOM     14  C2  UNL     1      18.783  11.091  19.221  0.00  0.00    -0.050 A 
ATOM     15  C3  UNL     1      17.427  10.915  19.532  0.00  0.00    +0.005 A 
ATOM     16  C4  UNL     1      16.838   9.652  19.427  0.00  0.00    +0.023 A 
ATOM     17  C5  UNL     1      17.587   8.551  18.986  0.00  0.00    +0.035 A 
ATOM     18  C18 UNL     1      18.947   8.729  18.678  0.00  0.00    +0.023 A 
ATOM     19  C19 UNL     1      19.537   9.992  18.783  0.00  0.00    +0.005 A 
ENDBRANCH   1  17
BRANCH   8  20
ATOM     20  C10 UNL     1      14.362   1.322  22.677  0.00  0.00    +0.055 A 
ATOM     21  C11 UNL     1      14.325  -0.078  22.592  0.00  0.00    +0.017 A 
ATOM     22  C12 UNL     1      14.856  -0.857  23.621  0.00  0.00    +0.036 A 
ATOM     23  C13 UNL     1      15.415  -0.230  24.745  0.00  0.00    +0.147 A 
ATOM     24  N4  UNL     1      15.424   1.128  24.816  0.00  0.00    -0.248 NA
ATOM     25  C15 UNL     1      14.916   1.908  23.824  0.00  0.00    +0.124 A 
BRANCH  23  26
ATOM     26  C14 UNL     1      15.987  -1.013  25.855  0.00  0.00    +0.355 C 
ATOM     27  O3  UNL     1      16.861  -1.895  25.636  0.00  0.00    -0.243 OA
BRANCH  26  28
ATOM     28  O4  UNL     1      15.559  -0.776  27.157  0.00  0.00    -0.476 OA
ATOM     29  H13 UNL     1      16.152  -0.290  27.819  0.00  0.00    +0.295 HD
ENDBRANCH  26  28
ENDBRANCH  23  26
ENDBRANCH   8  20
TORSDOF 4
ENDMDL
