MODEL 1
REMARK VINA RESULT:    -6.970      0.000      0.000
REMARK INTER + INTRA:         -10.132
REMARK INTER:                  -9.007
REMARK INTRA:                  -1.125
REMARK UNBOUND:                -1.125
REMARK  Name = /home/qwerty/github/datacon2025hack/step_04_hit_selection/docking/ligands/lig_470.pdb
REMARK  5 active torsions:
REMARK  status: ('A' for Active; 'I' for Inactive)
REMARK    1  A    between atoms: C1_2  and  C8_13
REMARK    2  A    between atoms: N1_3  and  C2_4
REMARK    3  A    between atoms: N2_15  and  C9_16
REMARK    4  A    between atoms: C9_16  and  C10_17
REMARK    5  A    between atoms: C9_16  and  C16_23
REMARK                            x       y       z     vdW  Elec       q    Type
REMARK                         _______ _______ _______ _____ _____    ______ ____
ROOT
ATOM      1  C8  UNL     1      20.797   2.744  30.941  0.00  0.00    +0.300 C 
ATOM      2  O2  UNL     1      21.669   3.596  31.265  0.00  0.00    -0.265 OA
ATOM      3  N2  UNL     1      20.929   2.020  29.705  0.00  0.00    -0.297 N 
ATOM      4  H4  UNL     1      20.157   1.374  29.421  0.00  0.00    +0.150 HD
ENDROOT
BRANCH   1   6
ATOM      5  O1  UNL     1      18.527   2.994  31.559  0.00  0.00    -0.265 OA
ATOM      6  C1  UNL     1      19.651   2.497  31.837  0.00  0.00    +0.303 C 
ATOM      7  N1  UNL     1      19.802   1.655  32.994  0.00  0.00    -0.275 N 
ATOM      8  H1  UNL     1      20.649   1.043  33.050  0.00  0.00    +0.155 HD
BRANCH   7   9
ATOM      9  C2  UNL     1      18.800   1.508  34.015  0.00  0.00    +0.072 A 
ATOM     10  C3  UNL     1      18.767   2.363  35.133  0.00  0.00    +0.065 A 
ATOM     11  C4  UNL     1      17.798   2.193  36.127  0.00  0.00    +0.139 A 
ATOM     12  F1  UNL     1      17.780   3.027  37.195  0.00  0.00    -0.204 F 
ATOM     13  C5  UNL     1      16.858   1.160  36.020  0.00  0.00    +0.056 A 
ATOM     14 BR1  UNL     1      15.527   0.918  37.372  0.00  0.00    -0.047 Br
ATOM     15  C6  UNL     1      16.896   0.295  34.923  0.00  0.00    +0.058 A 
ATOM     16  C7  UNL     1      17.867   0.459  33.930  0.00  0.00    +0.146 A 
ATOM     17  F2  UNL     1      17.883  -0.390  32.871  0.00  0.00    -0.204 F 
ENDBRANCH   7   9
ENDBRANCH   1   6
BRANCH   3  18
ATOM     18  C9  UNL     1      22.128   2.135  28.864  0.00  0.00    +0.134 C 
BRANCH  18  19
ATOM     19  C10 UNL     1      22.937   0.853  28.873  0.00  0.00    -0.023 A 
ATOM     20  C11 UNL     1      22.288  -0.375  28.643  0.00  0.00    +0.006 A 
ATOM     21  C12 UNL     1      23.004  -1.574  28.693  0.00  0.00    +0.000 A 
ATOM     22  C13 UNL     1      24.370  -1.564  28.987  0.00  0.00    +0.000 A 
ATOM     23  C14 UNL     1      25.023  -0.353  29.231  0.00  0.00    +0.000 A 
ATOM     24  C15 UNL     1      24.312   0.850  29.180  0.00  0.00    +0.006 A 
ENDBRANCH  18  19
BRANCH  18  25
ATOM     25  C16 UNL     1      21.765   2.507  27.438  0.00  0.00    -0.020 A 
ATOM     26  C17 UNL     1      22.738   3.051  26.582  0.00  0.00    +0.025 A 
ATOM     27  C18 UNL     1      22.401   3.361  25.263  0.00  0.00    +0.111 A 
ATOM     28  N3  UNL     1      21.140   3.135  24.808  0.00  0.00    -0.263 NA
ATOM     29  C19 UNL     1      20.179   2.606  25.609  0.00  0.00    +0.111 A 
ATOM     30  C20 UNL     1      20.473   2.278  26.933  0.00  0.00    +0.025 A 
ENDBRANCH  18  25
ENDBRANCH   3  18
TORSDOF 5
ENDMDL
MODEL 2
REMARK VINA RESULT:    -6.890      3.539      5.170
REMARK INTER + INTRA:         -10.028
REMARK INTER:                  -9.154
REMARK INTRA:                  -0.874
REMARK UNBOUND:                -1.125
REMARK  Name = /home/qwerty/github/datacon2025hack/step_04_hit_selection/docking/ligands/lig_470.pdb
REMARK  5 active torsions:
REMARK  status: ('A' for Active; 'I' for Inactive)
REMARK    1  A    between atoms: C1_2  and  C8_13
REMARK    2  A    between atoms: N1_3  and  C2_4
REMARK    3  A    between atoms: N2_15  and  C9_16
REMARK    4  A    between atoms: C9_16  and  C10_17
REMARK    5  A    between atoms: C9_16  and  C16_23
REMARK                            x       y       z     vdW  Elec       q    Type
REMARK                         _______ _______ _______ _____ _____    ______ ____
ROOT
ATOM      1  C8  UNL     1      21.349   2.093  31.623  0.00  0.00    +0.300 C 
ATOM      2  O2  UNL     1      20.863   0.931  31.661  0.00  0.00    -0.265 OA
ATOM      3  N2  UNL     1      21.877   2.608  30.388  0.00  0.00    -0.297 N 
ATOM      4  H4  UNL     1      22.343   3.545  30.396  0.00  0.00    +0.150 HD
ENDROOT
BRANCH   1   6
ATOM      5  O1  UNL     1      21.230   2.361  33.970  0.00  0.00    -0.265 OA
ATOM      6  C1  UNL     1      21.368   2.917  32.848  0.00  0.00    +0.303 C 
ATOM      7  N1  UNL     1      21.591   4.336  32.765  0.00  0.00    -0.275 N 
ATOM      8  H1  UNL     1      21.971   4.723  31.871  0.00  0.00    +0.155 HD
BRANCH   7   9
ATOM      9  C2  UNL     1      21.442   5.236  33.877  0.00  0.00    +0.072 A 
ATOM     10  C3  UNL     1      22.548   5.614  34.661  0.00  0.00    +0.065 A 
ATOM     11  C4  UNL     1      22.382   6.474  35.752  0.00  0.00    +0.139 A 
ATOM     12  F1  UNL     1      23.459   6.830  36.495  0.00  0.00    -0.204 F 
ATOM     13  C5  UNL     1      21.108   6.956  36.078  0.00  0.00    +0.056 A 
ATOM     14 BR1  UNL     1      20.868   8.133  37.565  0.00  0.00    -0.047 Br
ATOM     15  C6  UNL     1      20.002   6.568  35.315  0.00  0.00    +0.058 A 
ATOM     16  C7  UNL     1      20.164   5.705  34.227  0.00  0.00    +0.146 A 
ATOM     17  F2  UNL     1      19.077   5.346  33.498  0.00  0.00    -0.204 F 
ENDBRANCH   7   9
ENDBRANCH   1   6
BRANCH   3  18
ATOM     18  C9  UNL     1      21.741   1.875  29.122  0.00  0.00    +0.134 C 
BRANCH  18  19
ATOM     19  C10 UNL     1      21.904   2.795  27.928  0.00  0.00    -0.023 A 
ATOM     20  C11 UNL     1      21.464   4.128  28.018  0.00  0.00    +0.006 A 
ATOM     21  C12 UNL     1      21.560   4.982  26.916  0.00  0.00    +0.000 A 
ATOM     22  C13 UNL     1      22.082   4.513  25.708  0.00  0.00    +0.000 A 
ATOM     23  C14 UNL     1      22.510   3.186  25.601  0.00  0.00    +0.000 A 
ATOM     24  C15 UNL     1      22.418   2.329  26.702  0.00  0.00    +0.006 A 
ENDBRANCH  18  19
BRANCH  18  25
ATOM     25  C16 UNL     1      22.741   0.736  29.036  0.00  0.00    -0.020 A 
ATOM     26  C17 UNL     1      24.106   0.977  29.264  0.00  0.00    +0.025 A 
ATOM     27  C18 UNL     1      25.014  -0.084  29.213  0.00  0.00    +0.111 A 
ATOM     28  N3  UNL     1      24.577  -1.343  28.947  0.00  0.00    -0.263 NA
ATOM     29  C19 UNL     1      23.263  -1.610  28.727  0.00  0.00    +0.111 A 
ATOM     30  C20 UNL     1      22.323  -0.581  28.772  0.00  0.00    +0.025 A 
ENDBRANCH  18  25
ENDBRANCH   3  18
TORSDOF 5
ENDMDL
MODEL 3
REMARK VINA RESULT:    -6.790      5.402      8.997
REMARK INTER + INTRA:          -9.900
REMARK INTER:                  -8.826
REMARK INTRA:                  -1.074
REMARK UNBOUND:                -1.125
REMARK  Name = /home/qwerty/github/datacon2025hack/step_04_hit_selection/docking/ligands/lig_470.pdb
REMARK  5 active torsions:
REMARK  status: ('A' for Active; 'I' for Inactive)
REMARK    1  A    between atoms: C1_2  and  C8_13
REMARK    2  A    between atoms: N1_3  and  C2_4
REMARK    3  A    between atoms: N2_15  and  C9_16
REMARK    4  A    between atoms: C9_16  and  C10_17
REMARK    5  A    between atoms: C9_16  and  C16_23
REMARK                            x       y       z     vdW  Elec       q    Type
REMARK                         _______ _______ _______ _____ _____    ______ ____
ROOT
ATOM      1  C8  UNL     1      20.150   2.038  26.966  0.00  0.00    +0.300 C 
ATOM      2  O2  UNL     1      19.483   1.013  26.661  0.00  0.00    -0.265 OA
ATOM      3  N2  UNL     1      20.873   2.077  28.209  0.00  0.00    -0.297 N 
ATOM      4  H4  UNL     1      21.358   2.965  28.476  0.00  0.00    +0.150 HD
ENDROOT
BRANCH   1   6
ATOM      5  O1  UNL     1      19.309   4.089  26.140  0.00  0.00    -0.265 OA
ATOM      6  C1  UNL     1      20.184   3.188  26.042  0.00  0.00    +0.303 C 
ATOM      7  N1  UNL     1      21.236   3.305  25.067  0.00  0.00    -0.275 N 
ATOM      8  H1  UNL     1      22.086   2.707  25.186  0.00  0.00    +0.155 HD
BRANCH   7   9
ATOM      9  C2  UNL     1      21.247   4.284  24.013  0.00  0.00    +0.072 A 
ATOM     10  C3  UNL     1      20.377   4.179  22.912  0.00  0.00    +0.065 A 
ATOM     11  C4  UNL     1      20.416   5.128  21.885  0.00  0.00    +0.139 A 
ATOM     12  F1  UNL     1      19.569   5.012  20.833  0.00  0.00    -0.204 F 
ATOM     13  C5  UNL     1      21.331   6.186  21.943  0.00  0.00    +0.056 A 
ATOM     14 BR1  UNL     1      21.393   7.492  20.547  0.00  0.00    -0.047 Br
ATOM     15  C6  UNL     1      22.212   6.287  23.025  0.00  0.00    +0.058 A 
ATOM     16  C7  UNL     1      22.179   5.336  24.050  0.00  0.00    +0.146 A 
ATOM     17  F2  UNL     1      23.040   5.455  25.093  0.00  0.00    -0.204 F 
ENDBRANCH   7   9
ENDBRANCH   1   6
BRANCH   3  18
ATOM     18  C9  UNL     1      20.980   0.900  29.081  0.00  0.00    +0.134 C 
BRANCH  18  19
ATOM     19  C10 UNL     1      22.377   0.312  29.051  0.00  0.00    -0.023 A 
ATOM     20  C11 UNL     1      22.541  -1.072  28.854  0.00  0.00    +0.006 A 
ATOM     21  C12 UNL     1      23.817  -1.643  28.870  0.00  0.00    +0.000 A 
ATOM     22  C13 UNL     1      24.940  -0.844  29.095  0.00  0.00    +0.000 A 
ATOM     23  C14 UNL     1      24.790   0.529  29.306  0.00  0.00    +0.000 A 
ATOM     24  C15 UNL     1      23.516   1.106  29.289  0.00  0.00    +0.006 A 
ENDBRANCH  18  19
BRANCH  18  25
ATOM     25  C16 UNL     1      20.590   1.236  30.508  0.00  0.00    -0.020 A 
ATOM     26  C17 UNL     1      20.562   2.574  30.935  0.00  0.00    +0.025 A 
ATOM     27  C18 UNL     1      20.173   2.874  32.243  0.00  0.00    +0.111 A 
ATOM     28  N3  UNL     1      19.821   1.876  33.096  0.00  0.00    -0.263 NA
ATOM     29  C19 UNL     1      19.833   0.573  32.713  0.00  0.00    +0.111 A 
ATOM     30  C20 UNL     1      20.212   0.229  31.415  0.00  0.00    +0.025 A 
ENDBRANCH  18  25
ENDBRANCH   3  18
TORSDOF 5
ENDMDL
MODEL 4
REMARK VINA RESULT:    -6.693      4.678      7.880
REMARK INTER + INTRA:          -9.775
REMARK INTER:                  -8.704
REMARK INTRA:                  -1.071
REMARK UNBOUND:                -1.125
REMARK  Name = /home/qwerty/github/datacon2025hack/step_04_hit_selection/docking/ligands/lig_470.pdb
REMARK  5 active torsions:
REMARK  status: ('A' for Active; 'I' for Inactive)
REMARK    1  A    between atoms: C1_2  and  C8_13
REMARK    2  A    between atoms: N1_3  and  C2_4
REMARK    3  A    between atoms: N2_15  and  C9_16
REMARK    4  A    between atoms: C9_16  and  C10_17
REMARK    5  A    between atoms: C9_16  and  C16_23
REMARK                            x       y       z     vdW  Elec       q    Type
REMARK                         _______ _______ _______ _____ _____    ______ ____
ROOT
ATOM      1  C8  UNL     1      20.863   2.161  27.096  0.00  0.00    +0.300 C 
ATOM      2  O2  UNL     1      21.922   2.656  26.623  0.00  0.00    -0.265 OA
ATOM      3  N2  UNL     1      20.857   1.630  28.432  0.00  0.00    -0.297 N 
ATOM      4  H4  UNL     1      19.989   1.158  28.777  0.00  0.00    +0.150 HD
ENDROOT
BRANCH   1   6
ATOM      5  O1  UNL     1      18.939   3.180  26.170  0.00  0.00    -0.265 OA
ATOM      6  C1  UNL     1      19.639   2.137  26.272  0.00  0.00    +0.303 C 
ATOM      7  N1  UNL     1      19.271   0.946  25.554  0.00  0.00    -0.275 N 
ATOM      8  H1  UNL     1      19.995   0.201  25.432  0.00  0.00    +0.155 HD
BRANCH   7   9
ATOM      9  C2  UNL     1      18.011   0.772  24.882  0.00  0.00    +0.072 A 
ATOM     10  C3  UNL     1      17.838   1.167  23.542  0.00  0.00    +0.065 A 
ATOM     11  C4  UNL     1      16.600   1.010  22.912  0.00  0.00    +0.139 A 
ATOM     12  F1  UNL     1      16.452   1.393  21.619  0.00  0.00    -0.204 F 
ATOM     13  C5  UNL     1      15.517   0.468  23.616  0.00  0.00    +0.056 A 
ATOM     14 BR1  UNL     1      13.819   0.247  22.765  0.00  0.00    -0.047 Br
ATOM     15  C6  UNL     1      15.676   0.092  24.954  0.00  0.00    +0.058 A 
ATOM     16  C7  UNL     1      16.912   0.252  25.588  0.00  0.00    +0.146 A 
ATOM     17  F2  UNL     1      17.044  -0.124  26.886  0.00  0.00    -0.204 F 
ENDBRANCH   7   9
ENDBRANCH   1   6
BRANCH   3  18
ATOM     18  C9  UNL     1      22.013   1.770  29.328  0.00  0.00    +0.134 C 
BRANCH  18  19
ATOM     19  C10 UNL     1      21.579   1.927  30.772  0.00  0.00    -0.023 A 
ATOM     20  C11 UNL     1      22.181   2.917  31.571  0.00  0.00    +0.006 A 
ATOM     21  C12 UNL     1      21.832   3.050  32.918  0.00  0.00    +0.000 A 
ATOM     22  C13 UNL     1      20.890   2.189  33.486  0.00  0.00    +0.000 A 
ATOM     23  C14 UNL     1      20.295   1.193  32.708  0.00  0.00    +0.000 A 
ATOM     24  C15 UNL     1      20.640   1.057  31.359  0.00  0.00    +0.006 A 
ENDBRANCH  18  19
BRANCH  18  25
ATOM     25  C16 UNL     1      22.957   0.589  29.197  0.00  0.00    -0.020 A 
ATOM     26  C17 UNL     1      22.458  -0.677  28.848  0.00  0.00    +0.025 A 
ATOM     27  C18 UNL     1      23.339  -1.750  28.700  0.00  0.00    +0.111 A 
ATOM     28  N3  UNL     1      24.673  -1.570  28.890  0.00  0.00    -0.263 NA
ATOM     29  C19 UNL     1      25.187  -0.357  29.223  0.00  0.00    +0.111 A 
ATOM     30  C20 UNL     1      24.343   0.743  29.378  0.00  0.00    +0.025 A 
ENDBRANCH  18  25
ENDBRANCH   3  18
TORSDOF 5
ENDMDL
MODEL 5
REMARK VINA RESULT:    -6.670     14.423     16.073
REMARK INTER + INTRA:          -9.745
REMARK INTER:                  -8.780
REMARK INTRA:                  -0.965
REMARK UNBOUND:                -1.125
REMARK  Name = /home/qwerty/github/datacon2025hack/step_04_hit_selection/docking/ligands/lig_470.pdb
REMARK  5 active torsions:
REMARK  status: ('A' for Active; 'I' for Inactive)
REMARK    1  A    between atoms: C1_2  and  C8_13
REMARK    2  A    between atoms: N1_3  and  C2_4
REMARK    3  A    between atoms: N2_15  and  C9_16
REMARK    4  A    between atoms: C9_16  and  C10_17
REMARK    5  A    between atoms: C9_16  and  C16_23
REMARK                            x       y       z     vdW  Elec       q    Type
REMARK                         _______ _______ _______ _____ _____    ______ ____
ROOT
ATOM      1  C8  UNL     1      10.966  13.453  29.696  0.00  0.00    +0.300 C 
ATOM      2  O2  UNL     1      11.159  14.328  28.809  0.00  0.00    -0.265 OA
ATOM      3  N2  UNL     1       9.837  12.567  29.595  0.00  0.00    -0.297 N 
ATOM      4  H4  UNL     1       9.655  11.900  30.380  0.00  0.00    +0.150 HD
ENDROOT
BRANCH   1   6
ATOM      5  O1  UNL     1      13.133  13.178  30.605  0.00  0.00    -0.265 OA
ATOM      6  C1  UNL     1      11.905  13.346  30.830  0.00  0.00    +0.303 C 
ATOM      7  N1  UNL     1      11.429  13.479  32.182  0.00  0.00    -0.275 N 
ATOM      8  H1  UNL     1      10.477  13.885  32.331  0.00  0.00    +0.155 HD
BRANCH   7   9
ATOM      9  C2  UNL     1      12.232  13.206  33.344  0.00  0.00    +0.072 A 
ATOM     10  C3  UNL     1      13.240  14.096  33.759  0.00  0.00    +0.065 A 
ATOM     11  C4  UNL     1      14.025  13.805  34.879  0.00  0.00    +0.139 A 
ATOM     12  F1  UNL     1      14.990  14.675  35.266  0.00  0.00    -0.204 F 
ATOM     13  C5  UNL     1      13.819  12.616  35.590  0.00  0.00    +0.056 A 
ATOM     14 BR1  UNL     1      14.885  12.207  37.124  0.00  0.00    -0.047 Br
ATOM     15  C6  UNL     1      12.833  11.717  35.172  0.00  0.00    +0.058 A 
ATOM     16  C7  UNL     1      12.049  12.004  34.050  0.00  0.00    +0.146 A 
ATOM     17  F2  UNL     1      11.094  11.119  33.664  0.00  0.00    -0.204 F 
ENDBRANCH   7   9
ENDBRANCH   1   6
BRANCH   3  18
ATOM     18  C9  UNL     1       8.970  12.550  28.409  0.00  0.00    +0.134 C 
BRANCH  18  19
ATOM     19  C10 UNL     1       8.365  11.178  28.185  0.00  0.00    -0.023 A 
ATOM     20  C11 UNL     1       8.357  10.630  26.889  0.00  0.00    +0.006 A 
ATOM     21  C12 UNL     1       7.764   9.388  26.648  0.00  0.00    +0.000 A 
ATOM     22  C13 UNL     1       7.160   8.685  27.694  0.00  0.00    +0.000 A 
ATOM     23  C14 UNL     1       7.148   9.225  28.983  0.00  0.00    +0.000 A 
ATOM     24  C15 UNL     1       7.743  10.466  29.229  0.00  0.00    +0.006 A 
ENDBRANCH  18  19
BRANCH  18  25
ATOM     25  C16 UNL     1       7.869  13.589  28.519  0.00  0.00    -0.020 A 
ATOM     26  C17 UNL     1       7.340  13.926  29.776  0.00  0.00    +0.025 A 
ATOM     27  C18 UNL     1       6.348  14.906  29.868  0.00  0.00    +0.111 A 
ATOM     28  N3  UNL     1       5.899  15.531  28.747  0.00  0.00    -0.263 NA
ATOM     29  C19 UNL     1       6.394  15.230  27.518  0.00  0.00    +0.111 A 
ATOM     30  C20 UNL     1       7.388  14.261  27.381  0.00  0.00    +0.025 A 
ENDBRANCH  18  25
ENDBRANCH   3  18
TORSDOF 5
ENDMDL
MODEL 6
REMARK VINA RESULT:    -6.607     14.374     16.135
REMARK INTER + INTRA:          -9.663
REMARK INTER:                  -8.786
REMARK INTRA:                  -0.877
REMARK UNBOUND:                -1.125
REMARK  Name = /home/qwerty/github/datacon2025hack/step_04_hit_selection/docking/ligands/lig_470.pdb
REMARK  5 active torsions:
REMARK  status: ('A' for Active; 'I' for Inactive)
REMARK    1  A    between atoms: C1_2  and  C8_13
REMARK    2  A    between atoms: N1_3  and  C2_4
REMARK    3  A    between atoms: N2_15  and  C9_16
REMARK    4  A    between atoms: C9_16  and  C10_17
REMARK    5  A    between atoms: C9_16  and  C16_23
REMARK                            x       y       z     vdW  Elec       q    Type
REMARK                         _______ _______ _______ _____ _____    ______ ____
ROOT
ATOM      1  C8  UNL     1       8.491  10.085  27.523  0.00  0.00    +0.300 C 
ATOM      2  O2  UNL     1       7.865  10.276  26.445  0.00  0.00    -0.265 OA
ATOM      3  N2  UNL     1       9.327  11.126  28.059  0.00  0.00    -0.297 N 
ATOM      4  H4  UNL     1       9.894  10.920  28.914  0.00  0.00    +0.150 HD
ENDROOT
BRANCH   1   6
ATOM      5  O1  UNL     1       9.290   8.391  28.967  0.00  0.00    -0.265 OA
ATOM      6  C1  UNL     1       8.355   8.795  28.226  0.00  0.00    +0.303 C 
ATOM      7  N1  UNL     1       7.145   8.026  28.104  0.00  0.00    -0.275 N 
ATOM      8  H1  UNL     1       6.297   8.501  27.719  0.00  0.00    +0.155 HD
BRANCH   7   9
ATOM      9  C2  UNL     1       6.996   6.683  28.598  0.00  0.00    +0.072 A 
ATOM     10  C3  UNL     1       7.077   5.575  27.734  0.00  0.00    +0.065 A 
ATOM     11  C4  UNL     1       6.909   4.278  28.228  0.00  0.00    +0.139 A 
ATOM     12  F1  UNL     1       6.992   3.222  27.382  0.00  0.00    -0.204 F 
ATOM     13  C5  UNL     1       6.647   4.074  29.589  0.00  0.00    +0.056 A 
ATOM     14 BR1  UNL     1       6.417   2.304  30.278  0.00  0.00    -0.047 Br
ATOM     15  C6  UNL     1       6.546   5.171  30.450  0.00  0.00    +0.058 A 
ATOM     16  C7  UNL     1       6.709   6.469  29.958  0.00  0.00    +0.146 A 
ATOM     17  F2  UNL     1       6.611   7.520  30.813  0.00  0.00    -0.204 F 
ENDBRANCH   7   9
ENDBRANCH   1   6
BRANCH   3  18
ATOM     18  C9  UNL     1       9.369  12.469  27.465  0.00  0.00    +0.134 C 
BRANCH  18  19
ATOM     19  C10 UNL     1       8.323  13.379  28.078  0.00  0.00    -0.023 A 
ATOM     20  C11 UNL     1       8.064  13.303  29.459  0.00  0.00    +0.006 A 
ATOM     21  C12 UNL     1       7.072  14.099  30.039  0.00  0.00    +0.000 A 
ATOM     22  C13 UNL     1       6.318  14.968  29.246  0.00  0.00    +0.000 A 
ATOM     23  C14 UNL     1       6.556  15.043  27.871  0.00  0.00    +0.000 A 
ATOM     24  C15 UNL     1       7.549  14.251  27.287  0.00  0.00    +0.006 A 
ENDBRANCH  18  19
BRANCH  18  25
ATOM     25  C16 UNL     1      10.745  13.091  27.611  0.00  0.00    -0.020 A 
ATOM     26  C17 UNL     1      10.873  14.457  27.917  0.00  0.00    +0.025 A 
ATOM     27  C18 UNL     1      12.144  15.013  28.079  0.00  0.00    +0.111 A 
ATOM     28  N3  UNL     1      13.251  14.236  27.946  0.00  0.00    -0.263 NA
ATOM     29  C19 UNL     1      13.162  12.911  27.656  0.00  0.00    +0.111 A 
ATOM     30  C20 UNL     1      11.911  12.315  27.488  0.00  0.00    +0.025 A 
ENDBRANCH  18  25
ENDBRANCH   3  18
TORSDOF 5
ENDMDL
MODEL 7
REMARK VINA RESULT:    -6.587      5.380      8.716
REMARK INTER + INTRA:          -9.638
REMARK INTER:                  -8.458
REMARK INTRA:                  -1.179
REMARK UNBOUND:                -1.125
REMARK  Name = /home/qwerty/github/datacon2025hack/step_04_hit_selection/docking/ligands/lig_470.pdb
REMARK  5 active torsions:
REMARK  status: ('A' for Active; 'I' for Inactive)
REMARK    1  A    between atoms: C1_2  and  C8_13
REMARK    2  A    between atoms: N1_3  and  C2_4
REMARK    3  A    between atoms: N2_15  and  C9_16
REMARK    4  A    between atoms: C9_16  and  C10_17
REMARK    5  A    between atoms: C9_16  and  C16_23
REMARK                            x       y       z     vdW  Elec       q    Type
REMARK                         _______ _______ _______ _____ _____    ______ ____
ROOT
ATOM      1  C8  UNL     1      20.226   1.362  26.443  0.00  0.00    +0.300 C 
ATOM      2  O2  UNL     1      19.592   0.281  26.301  0.00  0.00    -0.265 OA
ATOM      3  N2  UNL     1      20.899   1.639  27.683  0.00  0.00    -0.297 N 
ATOM      4  H4  UNL     1      21.355   2.573  27.806  0.00  0.00    +0.150 HD
ENDROOT
BRANCH   1   6
ATOM      5  O1  UNL     1      20.267   1.911  24.142  0.00  0.00    -0.265 OA
ATOM      6  C1  UNL     1      20.274   2.331  25.330  0.00  0.00    +0.303 C 
ATOM      7  N1  UNL     1      20.279   3.744  25.599  0.00  0.00    -0.275 N 
ATOM      8  H1  UNL     1      20.009   4.065  26.557  0.00  0.00    +0.155 HD
BRANCH   7   9
ATOM      9  C2  UNL     1      20.510   4.749  24.596  0.00  0.00    +0.072 A 
ATOM     10  C3  UNL     1      21.814   5.163  24.265  0.00  0.00    +0.065 A 
ATOM     11  C4  UNL     1      22.018   6.157  23.302  0.00  0.00    +0.139 A 
ATOM     12  F1  UNL     1      23.281   6.542  22.994  0.00  0.00    -0.204 F 
ATOM     13  C5  UNL     1      20.922   6.755  22.667  0.00  0.00    +0.056 A 
ATOM     14 BR1  UNL     1      21.189   8.113  21.347  0.00  0.00    -0.047 Br
ATOM     15  C6  UNL     1      19.623   6.362  23.004  0.00  0.00    +0.058 A 
ATOM     16  C7  UNL     1      19.415   5.372  23.970  0.00  0.00    +0.146 A 
ATOM     17  F2  UNL     1      18.146   5.004  24.279  0.00  0.00    -0.204 F 
ENDBRANCH   7   9
ENDBRANCH   1   6
BRANCH   3  18
ATOM     18  C9  UNL     1      20.995   0.638  28.754  0.00  0.00    +0.134 C 
BRANCH  18  19
ATOM     19  C10 UNL     1      22.417   0.140  28.922  0.00  0.00    -0.023 A 
ATOM     20  C11 UNL     1      23.448   1.064  29.172  0.00  0.00    +0.006 A 
ATOM     21  C12 UNL     1      24.773   0.635  29.284  0.00  0.00    +0.000 A 
ATOM     22  C13 UNL     1      25.087  -0.718  29.134  0.00  0.00    +0.000 A 
ATOM     23  C14 UNL     1      24.074  -1.645  28.872  0.00  0.00    +0.000 A 
ATOM     24  C15 UNL     1      22.746  -1.220  28.761  0.00  0.00    +0.006 A 
ENDBRANCH  18  19
BRANCH  18  25
ATOM     25  C16 UNL     1      20.482   1.190  30.071  0.00  0.00    -0.020 A 
ATOM     26  C17 UNL     1      19.918   2.476  30.125  0.00  0.00    +0.025 A 
ATOM     27  C18 UNL     1      19.421   2.962  31.336  0.00  0.00    +0.111 A 
ATOM     28  N3  UNL     1      19.480   2.194  32.456  0.00  0.00    -0.263 NA
ATOM     29  C19 UNL     1      20.014   0.945  32.436  0.00  0.00    +0.111 A 
ATOM     30  C20 UNL     1      20.519   0.419  31.247  0.00  0.00    +0.025 A 
ENDBRANCH  18  25
ENDBRANCH   3  18
TORSDOF 5
ENDMDL
MODEL 8
REMARK VINA RESULT:    -6.578      5.433      8.817
REMARK INTER + INTRA:          -9.625
REMARK INTER:                  -8.821
REMARK INTRA:                  -0.804
REMARK UNBOUND:                -1.125
REMARK  Name = /home/qwerty/github/datacon2025hack/step_04_hit_selection/docking/ligands/lig_470.pdb
REMARK  5 active torsions:
REMARK  status: ('A' for Active; 'I' for Inactive)
REMARK    1  A    between atoms: C1_2  and  C8_13
REMARK    2  A    between atoms: N1_3  and  C2_4
REMARK    3  A    between atoms: N2_15  and  C9_16
REMARK    4  A    between atoms: C9_16  and  C10_17
REMARK    5  A    between atoms: C9_16  and  C16_23
REMARK                            x       y       z     vdW  Elec       q    Type
REMARK                         _______ _______ _______ _____ _____    ______ ____
ROOT
ATOM      1  C8  UNL     1      20.664   2.024  26.254  0.00  0.00    +0.300 C 
ATOM      2  O2  UNL     1      21.221   3.146  26.399  0.00  0.00    -0.265 OA
ATOM      3  N2  UNL     1      20.756   1.040  27.299  0.00  0.00    -0.297 N 
ATOM      4  H4  UNL     1      20.351   0.091  27.128  0.00  0.00    +0.150 HD
ENDROOT
BRANCH   1   6
ATOM      5  O1  UNL     1      20.524   1.754  23.908  0.00  0.00    -0.265 OA
ATOM      6  C1  UNL     1      19.919   1.734  25.013  0.00  0.00    +0.303 C 
ATOM      7  N1  UNL     1      18.525   1.383  25.070  0.00  0.00    -0.275 N 
ATOM      8  H1  UNL     1      18.124   1.106  25.995  0.00  0.00    +0.155 HD
BRANCH   7   9
ATOM      9  C2  UNL     1      17.681   1.266  23.910  0.00  0.00    +0.072 A 
ATOM     10  C3  UNL     1      17.357   0.008  23.368  0.00  0.00    +0.065 A 
ATOM     11  C4  UNL     1      16.553  -0.085  22.228  0.00  0.00    +0.139 A 
ATOM     12  F1  UNL     1      16.249  -1.305  21.720  0.00  0.00    -0.204 F 
ATOM     13  C5  UNL     1      16.073   1.077  21.611  0.00  0.00    +0.056 A 
ATOM     14 BR1  UNL     1      14.970   0.962  20.052  0.00  0.00    -0.047 Br
ATOM     15  C6  UNL     1      16.406   2.330  22.133  0.00  0.00    +0.058 A 
ATOM     16  C7  UNL     1      17.214   2.428  23.270  0.00  0.00    +0.146 A 
ATOM     17  F2  UNL     1      17.522   3.655  23.762  0.00  0.00    -0.204 F 
ENDBRANCH   7   9
ENDBRANCH   1   6
BRANCH   3  18
ATOM     18  C9  UNL     1      21.362   1.347  28.602  0.00  0.00    +0.134 C 
BRANCH  18  19
ATOM     19  C10 UNL     1      20.381   1.126  29.736  0.00  0.00    -0.023 A 
ATOM     20  C11 UNL     1      20.842   0.595  30.955  0.00  0.00    +0.006 A 
ATOM     21  C12 UNL     1      19.949   0.339  31.999  0.00  0.00    +0.000 A 
ATOM     22  C13 UNL     1      18.586   0.595  31.834  0.00  0.00    +0.000 A 
ATOM     23  C14 UNL     1      18.113   1.109  30.624  0.00  0.00    +0.000 A 
ATOM     24  C15 UNL     1      19.003   1.370  29.577  0.00  0.00    +0.006 A 
ENDBRANCH  18  19
BRANCH  18  25
ATOM     25  C16 UNL     1      22.615   0.522  28.834  0.00  0.00    -0.020 A 
ATOM     26  C17 UNL     1      22.585  -0.871  28.655  0.00  0.00    +0.025 A 
ATOM     27  C18 UNL     1      23.751  -1.617  28.841  0.00  0.00    +0.111 A 
ATOM     28  N3  UNL     1      24.909  -0.998  29.191  0.00  0.00    -0.263 NA
ATOM     29  C19 UNL     1      24.972   0.348  29.367  0.00  0.00    +0.111 A 
ATOM     30  C20 UNL     1      23.832   1.132  29.188  0.00  0.00    +0.025 A 
ENDBRANCH  18  25
ENDBRANCH   3  18
TORSDOF 5
ENDMDL
MODEL 9
REMARK VINA RESULT:    -6.484      3.967      5.621
REMARK INTER + INTRA:          -9.504
REMARK INTER:                  -8.538
REMARK INTRA:                  -0.965
REMARK UNBOUND:                -1.125
REMARK  Name = /home/qwerty/github/datacon2025hack/step_04_hit_selection/docking/ligands/lig_470.pdb
REMARK  5 active torsions:
REMARK  status: ('A' for Active; 'I' for Inactive)
REMARK    1  A    between atoms: C1_2  and  C8_13
REMARK    2  A    between atoms: N1_3  and  C2_4
REMARK    3  A    between atoms: N2_15  and  C9_16
REMARK    4  A    between atoms: C9_16  and  C10_17
REMARK    5  A    between atoms: C9_16  and  C16_23
REMARK                            x       y       z     vdW  Elec       q    Type
REMARK                         _______ _______ _______ _____ _____    ______ ____
ROOT
ATOM      1  C8  UNL     1      21.424   2.068  31.337  0.00  0.00    +0.300 C 
ATOM      2  O2  UNL     1      21.062   0.905  31.665  0.00  0.00    -0.265 OA
ATOM      3  N2  UNL     1      21.835   2.335  29.985  0.00  0.00    -0.297 N 
ATOM      4  H4  UNL     1      22.201   3.287  29.754  0.00  0.00    +0.150 HD
ENDROOT
BRANCH   1   6
ATOM      5  O1  UNL     1      21.020   2.896  33.516  0.00  0.00    -0.265 OA
ATOM      6  C1  UNL     1      21.417   3.145  32.346  0.00  0.00    +0.303 C 
ATOM      7  N1  UNL     1      21.905   4.456  32.011  0.00  0.00    -0.275 N 
ATOM      8  H1  UNL     1      22.475   4.562  31.140  0.00  0.00    +0.155 HD
BRANCH   7   9
ATOM      9  C2  UNL     1      21.766   5.605  32.865  0.00  0.00    +0.072 A 
ATOM     10  C3  UNL     1      20.530   6.265  33.005  0.00  0.00    +0.065 A 
ATOM     11  C4  UNL     1      20.418   7.393  33.823  0.00  0.00    +0.139 A 
ATOM     12  F1  UNL     1      19.219   8.014  33.948  0.00  0.00    -0.204 F 
ATOM     13  C5  UNL     1      21.541   7.881  34.503  0.00  0.00    +0.056 A 
ATOM     14 BR1  UNL     1      21.401   9.422  35.627  0.00  0.00    -0.047 Br
ATOM     15  C6  UNL     1      22.777   7.243  34.354  0.00  0.00    +0.058 A 
ATOM     16  C7  UNL     1      22.893   6.117  33.532  0.00  0.00    +0.146 A 
ATOM     17  F2  UNL     1      24.101   5.511  33.405  0.00  0.00    -0.204 F 
ENDBRANCH   7   9
ENDBRANCH   1   6
BRANCH   3  18
ATOM     18  C9  UNL     1      21.714   1.325  28.925  0.00  0.00    +0.134 C 
BRANCH  18  19
ATOM     19  C10 UNL     1      21.655   1.967  27.552  0.00  0.00    -0.023 A 
ATOM     20  C11 UNL     1      20.748   1.472  26.597  0.00  0.00    +0.006 A 
ATOM     21  C12 UNL     1      20.708   2.016  25.310  0.00  0.00    +0.000 A 
ATOM     22  C13 UNL     1      21.580   3.049  24.958  0.00  0.00    +0.000 A 
ATOM     23  C14 UNL     1      22.495   3.540  25.893  0.00  0.00    +0.000 A 
ATOM     24  C15 UNL     1      22.538   3.000  27.182  0.00  0.00    +0.006 A 
ENDBRANCH  18  19
BRANCH  18  25
ATOM     25  C16 UNL     1      22.858   0.330  28.981  0.00  0.00    -0.020 A 
ATOM     26  C17 UNL     1      22.623  -1.030  28.717  0.00  0.00    +0.025 A 
ATOM     27  C18 UNL     1      23.689  -1.933  28.741  0.00  0.00    +0.111 A 
ATOM     28  N3  UNL     1      24.947  -1.497  29.016  0.00  0.00    -0.263 NA
ATOM     29  C19 UNL     1      25.208  -0.189  29.270  0.00  0.00    +0.111 A 
ATOM     30  C20 UNL     1      24.173   0.748  29.253  0.00  0.00    +0.025 A 
ENDBRANCH  18  25
ENDBRANCH   3  18
TORSDOF 5
ENDMDL
