REMARK  Name = /home/qwerty/github/datacon2025hack/step_04_hit_selection/docking/ligands/lig_501.pdb
REMARK  4 active torsions:
REMARK  status: ('A' for Active; 'I' for Inactive)
REMARK    1  A    between atoms: C1_2  and  C2_3
REMARK    2  A    between atoms: C10_17  and  C11_18
REMARK    3  A    between atoms: C14_22  and  C15_23
REMARK    4  A    between atoms: C15_23  and  N6_24
REMARK                            x       y       z     vdW  Elec       q    Type
REMARK                         _______ _______ _______ _____ _____    ______ ____
ROOT
ATOM      1  O1  UNL     1      -6.381   1.080  -1.600  0.00  0.00    -0.270 OA
ATOM      2  C1  UNL     1      -5.517   0.680  -0.772  0.00  0.00    +0.251 C 
ATOM      3  N2  UNL     1      -4.302   1.432  -0.574  0.00  0.00    -0.293 N 
ATOM      4  C7  UNL     1      -4.256   2.841  -1.023  0.00  0.00    +0.114 C 
ATOM      5  C8  UNL     1      -3.337   3.692  -0.133  0.00  0.00    +0.074 C 
ATOM      6  C9  UNL     1      -2.038   2.986   0.030  0.00  0.00    +0.043 A 
ATOM      7  N3  UNL     1      -0.827   3.547   0.176  0.00  0.00    -0.281 N 
ATOM      8  N4  UNL     1       0.084   2.588   0.234  0.00  0.00    -0.173 NA
ATOM      9  C10 UNL     1      -0.549   1.395   0.143  0.00  0.00    +0.099 A 
ATOM     10  C22 UNL     1      -1.915   1.627   0.015  0.00  0.00    +0.018 A 
ATOM     11  C23 UNL     1      -3.070   0.698  -0.206  0.00  0.00    +0.147 C 
ATOM     12  H7  UNL     1      -0.614   4.569   0.213  0.00  0.00    +0.189 HD
ENDROOT
BRANCH   2  13
ATOM     13  C2  UNL     1      -5.775  -0.569  -0.026  0.00  0.00    +0.087 A 
ATOM     14  C3  UNL     1      -5.911  -1.796  -0.704  0.00  0.00    +0.057 A 
ATOM     15 CL1  UNL     1      -5.748  -1.907  -2.454  0.00  0.00    -0.083 Cl
ATOM     16  C4  UNL     1      -6.148  -2.966   0.021  0.00  0.00    +0.040 A 
ATOM     17  C5  UNL     1      -6.252  -2.906   1.409  0.00  0.00    +0.113 A 
ATOM     18  N1  UNL     1      -6.128  -1.716   2.050  0.00  0.00    -0.247 NA
ATOM     19  C6  UNL     1      -5.895  -0.556   1.379  0.00  0.00    +0.120 A 
ATOM     20 BR1  UNL     1      -5.780   1.066   2.394  0.00  0.00    -0.028 Br
ENDBRANCH   2  13
BRANCH   9  21
ATOM     21  C11 UNL     1       0.169   0.100   0.107  0.00  0.00    +0.021 A 
ATOM     22  C12 UNL     1      -0.408  -1.085   0.590  0.00  0.00    +0.120 A 
ATOM     23  N5  UNL     1       0.287  -2.252   0.554  0.00  0.00    -0.262 NA
ATOM     24  C13 UNL     1       1.549  -2.321   0.057  0.00  0.00    +0.115 A 
ATOM     25  C14 UNL     1       2.177  -1.169  -0.432  0.00  0.00    -0.015 A 
ATOM     26  C21 UNL     1       1.480   0.047  -0.392  0.00  0.00    +0.018 A 
BRANCH  25  27
ATOM     27  C15 UNL     1       3.592  -1.233  -0.946  0.00  0.00    +0.121 C 
BRANCH  27  28
ATOM     28  N6  UNL     1       4.551  -1.421   0.163  0.00  0.00    -0.298 NA
ATOM     29  C16 UNL     1       5.902  -1.788  -0.342  0.00  0.00    +0.085 C 
ATOM     30  C17 UNL     1       6.859  -0.589  -0.400  0.00  0.00    +0.015 C 
ATOM     31  C18 UNL     1       7.060   0.028   0.994  0.00  0.00    +0.002 C 
ATOM     32  C19 UNL     1       5.837  -0.164   1.907  0.00  0.00    +0.015 C 
ATOM     33  C20 UNL     1       4.547  -0.253   1.084  0.00  0.00    +0.085 C 
ENDBRANCH  27  28
ENDBRANCH  25  27
ENDBRANCH   9  21
TORSDOF 4
