REMARK  Name = /home/qwerty/github/datacon2025hack/step_04_hit_selection/docking/ligands/lig_531.pdb
REMARK  10 active torsions:
REMARK  status: ('A' for Active; 'I' for Inactive)
REMARK    1  A    between atoms: C1_1  and  O1_2
REMARK    2  A    between atoms: O1_2  and  C2_3
REMARK    3  A    between atoms: C5_6  and  C6_7
REMARK    4  A    between atoms: C6_7  and  C7_8
REMARK    5  A    between atoms: C7_8  and  C8_9
REMARK    6  A    between atoms: C7_8  and  C9_10
REMARK    7  A    between atoms: C9_10  and  N1_11
REMARK    8  A    between atoms: N2_14  and  C11_15
REMARK    9  A    between atoms: C13_17  and  C14_18
REMARK   10  A    between atoms: C21_27  and  C22_28
REMARK                            x       y       z     vdW  Elec       q    Type
REMARK                         _______ _______ _______ _____ _____    ______ ____
ROOT
ATOM      1  N1  UNL     1       0.602  -0.591  -0.131  0.00  0.00    -0.299 N 
ATOM      2  C10 UNL     1      -0.720  -0.071   0.060  0.00  0.00    +0.304 C 
ATOM      3  O2  UNL     1      -1.287   0.572  -0.866  0.00  0.00    -0.253 OA
ATOM      4  N2  UNL     1      -1.382  -0.264   1.318  0.00  0.00    -0.269 N 
ATOM      5  H14 UNL     1       1.008  -1.208   0.608  0.00  0.00    +0.150 HD
ATOM      6  H15 UNL     1      -0.810  -0.618   2.117  0.00  0.00    +0.156 HD
ENDROOT
BRANCH   4   7
ATOM      7  C11 UNL     1      -2.757   0.092   1.556  0.00  0.00    +0.038 A 
ATOM      8  C12 UNL     1      -3.738  -0.207   0.594  0.00  0.00    +0.032 A 
ATOM      9  C13 UNL     1      -5.090   0.102   0.819  0.00  0.00    -0.015 A 
ATOM     10  C19 UNL     1      -5.457   0.702   2.033  0.00  0.00    +0.009 A 
ATOM     11  C20 UNL     1      -4.495   0.988   3.002  0.00  0.00    +0.006 A 
ATOM     12  C21 UNL     1      -3.141   0.693   2.775  0.00  0.00    -0.029 A 
ATOM     13  C22 UNL     1      -2.126   1.014   3.837  0.00  0.00    +0.045 C 
BRANCH   9  14
ATOM     14  C14 UNL     1      -6.116  -0.210  -0.209  0.00  0.00    +0.003 A 
ATOM     15  C15 UNL     1      -5.851  -0.011  -1.576  0.00  0.00    +0.119 A 
ATOM     16  N3  UNL     1      -6.798  -0.299  -2.509  0.00  0.00    -0.260 NA
ATOM     17  C16 UNL     1      -8.018  -0.786  -2.164  0.00  0.00    +0.149 A 
ATOM     18  C17 UNL     1      -8.329  -1.002  -0.821  0.00  0.00    +0.142 A 
ATOM     19  F1  UNL     1      -9.544  -1.492  -0.470  0.00  0.00    -0.204 F 
ATOM     20  C18 UNL     1      -7.377  -0.713   0.158  0.00  0.00    +0.050 A 
ENDBRANCH   9  14
ENDBRANCH   4   7
BRANCH   1  21
ATOM     21  C9  UNL     1       1.369  -0.376  -1.358  0.00  0.00    +0.109 C 
BRANCH  21  22
ATOM     22  C7  UNL     1       1.870   1.081  -1.462  0.00  0.00    +0.007 C 
ATOM     23  C8  UNL     1       2.538   1.320  -2.824  0.00  0.00    +0.009 C 
BRANCH  22  24
ATOM     24  C6  UNL     1       2.787   1.495  -0.284  0.00  0.00    +0.040 C 
BRANCH  24  28
ATOM     25  C2  UNL     1       6.500  -0.726  -0.074  0.00  0.00    +0.120 A 
ATOM     26  C3  UNL     1       6.412   0.441  -0.857  0.00  0.00    +0.046 A 
ATOM     27  C4  UNL     1       5.214   1.158  -0.920  0.00  0.00    +0.007 A 
ATOM     28  C5  UNL     1       4.084   0.721  -0.209  0.00  0.00    -0.047 A 
ATOM     29  C23 UNL     1       4.178  -0.437   0.578  0.00  0.00    +0.007 A 
ATOM     30  C24 UNL     1       5.376  -1.154   0.641  0.00  0.00    +0.046 A 
BRANCH  25  32
ATOM     31  C1  UNL     1       8.894  -1.163  -0.650  0.00  0.00    +0.277 C 
ATOM     32  O1  UNL     1       7.679  -1.481   0.021  0.00  0.00    -0.495 OA
ENDBRANCH  25  32
ENDBRANCH  24  28
ENDBRANCH  22  24
ENDBRANCH  21  22
ENDBRANCH   1  21
TORSDOF 7
