REMARK  Name = /home/qwerty/github/datacon2025hack/step_04_hit_selection/docking/ligands/lig_57.pdb
REMARK  9 active torsions:
REMARK  status: ('A' for Active; 'I' for Inactive)
REMARK    1  A    between atoms: C1_1  and  O1_2
REMARK    2  A    between atoms: O1_2  and  C2_3
REMARK    3  A    between atoms: C4_5  and  C5_6
REMARK    4  A    between atoms: C5_6  and  N1_7
REMARK    5  A    between atoms: C9_11  and  N2_12
REMARK    6  A    between atoms: C10_13  and  C11_15
REMARK    7  A    between atoms: C14_18  and  C15_19
REMARK    8  A    between atoms: C19_23  and  O3_24
REMARK    9  A    between atoms: C21_26  and  O4_27
REMARK                            x       y       z     vdW  Elec       q    Type
REMARK                         _______ _______ _______ _____ _____    ______ ____
ROOT
ATOM      1  N1  UNL     1       1.606   0.527   0.130  0.00  0.00    -0.296 NA
ATOM      2  C6  UNL     1       1.700   1.373  -1.082  0.00  0.00    +0.085 C 
ATOM      3  C7  UNL     1       0.693   0.964  -2.174  0.00  0.00    +0.017 C 
ATOM      4  C8  UNL     1      -0.652   0.487  -1.600  0.00  0.00    +0.025 C 
ATOM      5  C9  UNL     1      -0.878   1.031  -0.185  0.00  0.00    +0.087 C 
ATOM      6  C18 UNL     1       0.252   0.535   0.753  0.00  0.00    +0.107 C 
ENDROOT
BRANCH   5   7
ATOM      7  N2  UNL     1      -2.196   0.620   0.315  0.00  0.00    -0.307 N 
ATOM      8  C10 UNL     1      -3.415   1.194  -0.188  0.00  0.00    +0.244 C 
ATOM      9  O2  UNL     1      -3.365   2.217  -0.924  0.00  0.00    -0.270 OA
ATOM     10  H14 UNL     1      -2.254  -0.042   1.121  0.00  0.00    +0.149 HD
BRANCH   8  11
ATOM     11  C11 UNL     1      -4.735   0.615   0.162  0.00  0.00    +0.037 A 
ATOM     12  C12 UNL     1      -4.859  -0.736   0.533  0.00  0.00    +0.013 A 
ATOM     13  C13 UNL     1      -6.111  -1.271   0.853  0.00  0.00    +0.004 A 
ATOM     14  C14 UNL     1      -7.261  -0.472   0.789  0.00  0.00    -0.050 A 
ATOM     15  C15 UNL     1      -8.597  -1.037   1.170  0.00  0.00    +0.044 C 
ATOM     16  C16 UNL     1      -7.141   0.877   0.426  0.00  0.00    +0.004 A 
ATOM     17  C17 UNL     1      -5.891   1.413   0.105  0.00  0.00    +0.013 A 
ENDBRANCH   8  11
ENDBRANCH   5   7
BRANCH   1  18
ATOM     18  C5  UNL     1       2.127  -0.843  -0.083  0.00  0.00    +0.123 C 
BRANCH  18  21
ATOM     19  C2  UNL     1       5.859  -0.387   0.589  0.00  0.00    +0.162 A 
ATOM     20  C3  UNL     1       4.461  -0.433   0.756  0.00  0.00    +0.058 A 
ATOM     21  C4  UNL     1       3.623  -0.825  -0.300  0.00  0.00    +0.012 A 
ATOM     22  C19 UNL     1       4.189  -1.170  -1.541  0.00  0.00    +0.125 A 
ATOM     23  C20 UNL     1       5.579  -1.126  -1.708  0.00  0.00    +0.094 A 
ATOM     24  C21 UNL     1       6.412  -0.738  -0.655  0.00  0.00    +0.162 A 
BRANCH  19  26
ATOM     25  C1  UNL     1       6.292   0.384   2.931  0.00  0.00    +0.277 C 
ATOM     26  O1  UNL     1       6.720   0.001   1.628  0.00  0.00    -0.491 OA
ENDBRANCH  19  26
BRANCH  22  27
ATOM     27  O3  UNL     1       3.376  -1.553  -2.608  0.00  0.00    -0.506 OA
ATOM     28  H24 UNL     1       3.763  -1.801  -3.510  0.00  0.00    +0.292 HD
ENDBRANCH  22  27
BRANCH  24  29
ATOM     29  O4  UNL     1       7.791  -0.708  -0.864  0.00  0.00    -0.503 OA
ATOM     30  H26 UNL     1       8.442  -0.435  -0.138  0.00  0.00    +0.292 HD
ENDBRANCH  24  29
ENDBRANCH  18  21
ENDBRANCH   1  18
TORSDOF 7
