REMARK  Name = /home/qwerty/github/datacon2025hack/step_04_hit_selection/docking/ligands/lig_492.pdb
REMARK  8 active torsions:
REMARK  status: ('A' for Active; 'I' for Inactive)
REMARK    1  A    between atoms: C1_1  and  C2_2
REMARK    2  A    between atoms: C2_2  and  C3_3
REMARK    3  A    between atoms: C2_2  and  N1_4
REMARK    4  A    between atoms: N1_4  and  C4_5
REMARK    5  A    between atoms: N1_4  and  C5_6
REMARK    6  A    between atoms: C10_11  and  N2_12
REMARK    7  A    between atoms: C11_13  and  C12_15
REMARK    8  A    between atoms: C16_19  and  C17_20
REMARK                            x       y       z     vdW  Elec       q    Type
REMARK                         _______ _______ _______ _____ _____    ______ ____
ROOT
ATOM      1  N2  UNL     1      -0.385  -0.476   1.079  0.00  0.00    -0.280 N 
ATOM      2  C11 UNL     1       0.824  -0.934   0.452  0.00  0.00    +0.248 C 
ATOM      3  O1  UNL     1       0.831  -2.036  -0.162  0.00  0.00    -0.270 OA
ATOM      4  H15 UNL     1      -0.493   0.545   1.267  0.00  0.00    +0.155 HD
ENDROOT
BRANCH   1  10
ATOM      5  C5  UNL     1      -2.829  -0.833   1.114  0.00  0.00    +0.051 A 
ATOM      6  C6  UNL     1      -3.931  -1.656   1.402  0.00  0.00    +0.025 A 
ATOM      7  C7  UNL     1      -3.739  -2.954   1.879  0.00  0.00    +0.002 A 
ATOM      8  C8  UNL     1      -2.447  -3.442   2.077  0.00  0.00    +0.002 A 
ATOM      9  C9  UNL     1      -1.342  -2.633   1.798  0.00  0.00    +0.025 A 
ATOM     10  C10 UNL     1      -1.521  -1.327   1.309  0.00  0.00    +0.055 A 
BRANCH   5  11
ATOM     11  N1  UNL     1      -3.044   0.487   0.583  0.00  0.00    -0.329 N 
ATOM     12  C4  UNL     1      -3.907   1.410   1.331  0.00  0.00    +0.129 C 
BRANCH  11  14
ATOM     13  C1  UNL     1      -3.962   0.577  -1.714  0.00  0.00    +0.027 C 
ATOM     14  C2  UNL     1      -2.716   0.733  -0.836  0.00  0.00    +0.067 C 
ATOM     15  C3  UNL     1      -2.066   2.107  -1.040  0.00  0.00    +0.027 C 
ENDBRANCH  11  14
ENDBRANCH   5  11
ENDBRANCH   1  10
BRANCH   2  16
ATOM     16  C12 UNL     1       2.054  -0.104   0.473  0.00  0.00    +0.038 A 
ATOM     17  C13 UNL     1       2.250   0.870   1.467  0.00  0.00    +0.013 A 
ATOM     18  C14 UNL     1       3.411   1.643   1.479  0.00  0.00    +0.001 A 
ATOM     19  C15 UNL     1       4.393   1.454   0.506  0.00  0.00    +0.011 A 
ATOM     20  C16 UNL     1       4.227   0.481  -0.493  0.00  0.00    +0.020 A 
ATOM     21  C20 UNL     1       3.053  -0.297  -0.500  0.00  0.00    +0.024 A 
BRANCH  20  22
ATOM     22  C17 UNL     1       5.284   0.295  -1.513  0.00  0.00    +0.155 A 
ATOM     23  C18 UNL     1       5.308  -0.602  -2.563  0.00  0.00    +0.160 A 
ATOM     24  N3  UNL     1       6.454  -0.439  -3.249  0.00  0.00    -0.224 NA
ATOM     25  C19 UNL     1       7.084   0.554  -2.589  0.00  0.00    +0.308 A 
ATOM     26  O2  UNL     1       6.394   0.990  -1.560  0.00  0.00    -0.442 OA
ENDBRANCH  20  22
ENDBRANCH   2  16
TORSDOF 5
