REMARK  Name = /home/qwerty/github/datacon2025hack/step_04_hit_selection/docking/ligands/lig_517.pdb
REMARK  7 active torsions:
REMARK  status: ('A' for Active; 'I' for Inactive)
REMARK    1  A    between atoms: C1_1  and  C2_2
REMARK    2  A    between atoms: N1_4  and  C4_5
REMARK    3  A    between atoms: C7_8  and  N2_9
REMARK    4  A    between atoms: C8_10  and  C9_12
REMARK    5  A    between atoms: C13_16  and  C14_17
REMARK    6  A    between atoms: N4_20  and  C16_21
REMARK    7  A    between atoms: C22_27  and  C23_28
REMARK                            x       y       z     vdW  Elec       q    Type
REMARK                         _______ _______ _______ _____ _____    ______ ____
ROOT
ATOM      1  N2  UNL     1       0.968  -0.400   1.248  0.00  0.00    -0.282 N 
ATOM      2  C8  UNL     1       1.963   0.433   0.624  0.00  0.00    +0.248 C 
ATOM      3  O1  UNL     1       1.624   1.258  -0.268  0.00  0.00    -0.270 OA
ATOM      4  H9  UNL     1       1.234  -0.983   2.072  0.00  0.00    +0.155 HD
ENDROOT
BRANCH   1   8
ATOM      5  C4  UNL     1      -3.132  -0.579   0.109  0.00  0.00    +0.030 A 
ATOM      6  C5  UNL     1      -2.135  -0.440  -0.870  0.00  0.00    +0.025 A 
ATOM      7  C6  UNL     1      -0.787  -0.379  -0.506  0.00  0.00    +0.025 A 
ATOM      8  C7  UNL     1      -0.413  -0.435   0.848  0.00  0.00    +0.034 A 
ATOM      9  C19 UNL     1      -1.407  -0.591   1.824  0.00  0.00    +0.025 A 
ATOM     10  C20 UNL     1      -2.755  -0.652   1.460  0.00  0.00    +0.025 A 
BRANCH   5  14
ATOM     11  C1  UNL     1      -7.902  -2.007   0.690  0.00  0.00    +0.039 C 
ATOM     12  C2  UNL     1      -6.739  -1.015   0.753  0.00  0.00    +0.133 C 
ATOM     13  C3  UNL     1      -5.415  -1.663   0.269  0.00  0.00    +0.136 C 
ATOM     14  N1  UNL     1      -4.522  -0.630  -0.263  0.00  0.00    -0.325 N 
ATOM     15  C21 UNL     1      -5.069   0.339  -1.219  0.00  0.00    +0.136 C 
ATOM     16  C22 UNL     1      -6.605   0.247  -1.241  0.00  0.00    +0.133 C 
ATOM     17  C23 UNL     1      -7.210   1.456  -1.952  0.00  0.00    +0.039 C 
ATOM     18  O2  UNL     1      -7.095   0.195   0.086  0.00  0.00    -0.371 OA
ENDBRANCH   5  14
ENDBRANCH   1   8
BRANCH   2  19
ATOM     19  C9  UNL     1       3.391   0.349   1.016  0.00  0.00    +0.038 A 
ATOM     20  C10 UNL     1       3.770   0.008   2.325  0.00  0.00    +0.013 A 
ATOM     21  C11 UNL     1       5.120  -0.062   2.673  0.00  0.00    +0.001 A 
ATOM     22  C12 UNL     1       6.107   0.213   1.726  0.00  0.00    +0.008 A 
ATOM     23  C13 UNL     1       5.756   0.571   0.412  0.00  0.00    -0.014 A 
ATOM     24  C18 UNL     1       4.392   0.639   0.070  0.00  0.00    +0.021 A 
BRANCH  23  25
ATOM     25  C14 UNL     1       6.806   0.869  -0.596  0.00  0.00    +0.020 A 
ATOM     26  C15 UNL     1       6.645   1.467  -1.839  0.00  0.00    +0.142 A 
ATOM     27  N3  UNL     1       7.844   1.573  -2.445  0.00  0.00    -0.179 NA
ATOM     28  N4  UNL     1       8.749   1.049  -1.635  0.00  0.00    -0.274 N 
ATOM     29  C16 UNL     1      10.178   1.034  -1.915  0.00  0.00    +0.172 C 
ATOM     30  C17 UNL     1       8.165   0.625  -0.499  0.00  0.00    +0.116 A 
ENDBRANCH  23  25
ENDBRANCH   2  19
TORSDOF 4
