REMARK  Name = /home/qwerty/github/datacon2025hack/step_04_hit_selection/docking/ligands/lig_778.pdb
REMARK  7 active torsions:
REMARK  status: ('A' for Active; 'I' for Inactive)
REMARK    1  A    between atoms: C1_1  and  O1_2
REMARK    2  A    between atoms: O1_2  and  C2_3
REMARK    3  A    between atoms: C6_7  and  C7_8
REMARK    4  A    between atoms: C10_13  and  N2_14
REMARK    5  A    between atoms: C11_15  and  C12_17
REMARK    6  A    between atoms: C14_19  and  C15_20
REMARK    7  A    between atoms: C16_21  and  C17_22
REMARK                            x       y       z     vdW  Elec       q    Type
REMARK                         _______ _______ _______ _____ _____    ______ ____
ROOT
ATOM      1  C7  UNL     1      -3.018  -1.122  -0.193  0.00  0.00    +0.265 C 
ATOM      2  O2  UNL     1      -3.189  -2.371  -0.192  0.00  0.00    -0.268 OA
ATOM      3  N1  UNL     1      -1.753  -0.579   0.224  0.00  0.00    -0.294 N 
ATOM      4  C8  UNL     1      -1.622   0.629   1.025  0.00  0.00    +0.110 C 
ATOM      5  C9  UNL     1      -0.134   0.771   1.310  0.00  0.00    +0.043 C 
ATOM      6  C10 UNL     1       0.460  -0.623   1.091  0.00  0.00    +0.092 C 
ATOM      7  C18 UNL     1      -0.511  -1.330   0.140  0.00  0.00    +0.130 C 
ENDROOT
BRANCH   1  12
ATOM      8  C2  UNL     1      -6.486   0.118  -0.711  0.00  0.00    +0.215 A 
ATOM      9  C3  UNL     1      -6.290   1.298  -1.433  0.00  0.00    +0.067 A 
ATOM     10  C4  UNL     1      -4.992   1.692  -1.761  0.00  0.00    +0.007 A 
ATOM     11  C5  UNL     1      -3.905   0.913  -1.360  0.00  0.00    +0.033 A 
ATOM     12  C6  UNL     1      -4.133  -0.254  -0.615  0.00  0.00    +0.129 A 
ATOM     13  N3  UNL     1      -5.411  -0.626  -0.328  0.00  0.00    -0.208 NA
BRANCH   8  15
ATOM     14  C1  UNL     1      -8.066  -1.471   0.340  0.00  0.00    +0.279 C 
ATOM     15  O1  UNL     1      -7.787  -0.284  -0.393  0.00  0.00    -0.480 OA
ENDBRANCH   8  15
ENDBRANCH   1  12
BRANCH   6  16
ATOM     16  N2  UNL     1       1.822  -0.549   0.549  0.00  0.00    -0.304 N 
ATOM     17  C11 UNL     1       2.923  -0.075   1.342  0.00  0.00    +0.280 C 
ATOM     18  O3  UNL     1       2.742   0.227   2.553  0.00  0.00    -0.267 OA
ATOM     19  H12 UNL     1       2.008  -0.896  -0.417  0.00  0.00    +0.149 HD
BRANCH  17  20
ATOM     20  C12 UNL     1       4.274   0.064   0.773  0.00  0.00    +0.190 A 
ATOM     21  C13 UNL     1       4.650  -0.151  -0.544  0.00  0.00    +0.058 A 
ATOM     22  C14 UNL     1       6.005   0.102  -0.585  0.00  0.00    -0.009 A 
ATOM     23  C15 UNL     1       6.881   0.063  -1.796  0.00  0.00    +0.047 C 
ATOM     24  C16 UNL     1       6.370   0.470   0.697  0.00  0.00    +0.106 A 
ATOM     25  C17 UNL     1       7.740   0.853   1.152  0.00  0.00    +0.086 C 
ATOM     26  O4  UNL     1       5.319   0.432   1.483  0.00  0.00    -0.455 OA
ENDBRANCH  17  20
ENDBRANCH   6  16
TORSDOF 4
