REMARK  Name = /home/qwerty/github/datacon2025hack/step_04_hit_selection/docking/ligands/lig_192.pdb
REMARK  6 active torsions:
REMARK  status: ('A' for Active; 'I' for Inactive)
REMARK    1  A    between atoms: C1_1  and  C2_2
REMARK    2  A    between atoms: C2_2  and  C3_3
REMARK    3  A    between atoms: C2_2  and  C4_4
REMARK    4  A    between atoms: C4_4  and  C5_5
REMARK    5  A    between atoms: C8_8  and  C9_9
REMARK    6  A    between atoms: N2_16  and  C14_17
REMARK                            x       y       z     vdW  Elec       q    Type
REMARK                         _______ _______ _______ _____ _____    ______ ____
ROOT
ATOM      1  C9  UNL     1       1.079   0.913   1.553  0.00  0.00    +0.247 C 
ATOM      2  O1  UNL     1       1.129   1.695   2.540  0.00  0.00    -0.270 OA
ATOM      3  N1  UNL     1      -0.191   0.630   0.959  0.00  0.00    -0.296 N 
ATOM      4  C10 UNL     1      -1.592   1.047   1.211  0.00  0.00    +0.119 C 
ATOM      5  C11 UNL     1      -2.179   0.090   0.243  0.00  0.00    +0.028 C 
ATOM      6  C12 UNL     1      -0.779  -0.324  -0.016  0.00  0.00    +0.119 C 
ATOM      7  C13 UNL     1      -3.103   0.537  -0.860  0.00  0.00    +0.096 C 
ATOM      8  N2  UNL     1      -4.135  -0.443  -0.449  0.00  0.00    -0.298 NA
ATOM      9  C19 UNL     1      -3.245  -0.898   0.645  0.00  0.00    +0.096 C 
ENDROOT
BRANCH   1  13
ATOM     10  C5  UNL     1       4.708  -0.927   0.167  0.00  0.00    -0.047 A 
ATOM     11  C6  UNL     1       4.517  -0.664   1.532  0.00  0.00    +0.004 A 
ATOM     12  C7  UNL     1       3.337  -0.062   1.977  0.00  0.00    +0.013 A 
ATOM     13  C8  UNL     1       2.321   0.274   1.067  0.00  0.00    +0.037 A 
ATOM     14  C20 UNL     1       2.520   0.022  -0.300  0.00  0.00    +0.013 A 
ATOM     15  C21 UNL     1       3.700  -0.579  -0.745  0.00  0.00    +0.004 A 
BRANCH  10  16
ATOM     16  C4  UNL     1       5.990  -1.566  -0.316  0.00  0.00    +0.038 C 
BRANCH  16  18
ATOM     17  C1  UNL     1       7.548   0.276   0.538  0.00  0.00    +0.007 C 
ATOM     18  C2  UNL     1       7.100  -0.550  -0.675  0.00  0.00    -0.013 C 
ATOM     19  C3  UNL     1       6.697   0.367  -1.838  0.00  0.00    +0.007 C 
ENDBRANCH  16  18
ENDBRANCH  10  16
ENDBRANCH   1  13
BRANCH   8  20
ATOM     20  C14 UNL     1      -5.354   0.219   0.068  0.00  0.00    +0.057 C 
ATOM     21  C15 UNL     1      -6.155   0.860  -1.062  0.00  0.00    +0.019 C 
ATOM     22  C16 UNL     1      -7.608   0.843  -0.607  0.00  0.00    +0.002 C 
ATOM     23  C17 UNL     1      -7.711  -0.208   0.496  0.00  0.00    +0.002 C 
ATOM     24  C18 UNL     1      -6.318  -0.796   0.674  0.00  0.00    +0.019 C 
ENDBRANCH   8  20
TORSDOF 4
