REMARK  Name = /home/qwerty/github/datacon2025hack/step_04_hit_selection/docking/ligands/lig_537.pdb
REMARK  4 active torsions:
REMARK  status: ('A' for Active; 'I' for Inactive)
REMARK    1  A    between atoms: C1_1  and  C2_2
REMARK    2  A    between atoms: N1_4  and  C3_5
REMARK    3  A    between atoms: C7_10  and  N2_11
REMARK    4  A    between atoms: C13_19  and  C14_20
REMARK                            x       y       z     vdW  Elec       q    Type
REMARK                         _______ _______ _______ _____ _____    ______ ____
ROOT
ATOM      1  N2  UNL     1       0.487  -0.770   0.373  0.00  0.00    -0.267 N 
ATOM      2  C8  UNL     1      -0.758  -0.568  -0.313  0.00  0.00    +0.307 C 
ATOM      3  O2  UNL     1      -0.811   0.212  -1.304  0.00  0.00    -0.252 OA
ATOM      4  N3  UNL     1      -1.944  -1.256   0.132  0.00  0.00    -0.278 N 
ATOM      5  C9  UNL     1      -1.806  -2.676   0.500  0.00  0.00    +0.110 C 
ATOM      6  C10 UNL     1      -3.145  -3.430   0.410  0.00  0.00    +0.019 C 
ATOM      7  C11 UNL     1      -3.913  -3.065  -0.875  0.00  0.00    +0.004 C 
ATOM      8  C12 UNL     1      -4.021  -1.540  -1.132  0.00  0.00    +0.027 C 
ATOM      9  C13 UNL     1      -3.307  -0.713  -0.046  0.00  0.00    +0.109 C 
ATOM     10  H7  UNL     1       0.452  -1.135   1.351  0.00  0.00    +0.156 HD
ENDROOT
BRANCH   1  16
ATOM     11  C3  UNL     1       3.906   0.754   0.296  0.00  0.00    +0.035 A 
ATOM     12  C4  UNL     1       4.244   0.587  -1.058  0.00  0.00    +0.026 A 
ATOM     13  C5  UNL     1       3.361  -0.052  -1.931  0.00  0.00    +0.042 A 
ATOM     14  C6  UNL     1       2.123  -0.510  -1.472  0.00  0.00    +0.145 A 
ATOM     15  F1  UNL     1       1.310  -1.182  -2.326  0.00  0.00    -0.204 F 
ATOM     16  C7  UNL     1       1.751  -0.308  -0.130  0.00  0.00    +0.072 A 
ATOM     17  C19 UNL     1       2.653   0.312   0.747  0.00  0.00    +0.049 A 
BRANCH  11  21
ATOM     18  C1  UNL     1       7.053   2.224   2.028  0.00  0.00    +0.109 C 
ATOM     19  C2  UNL     1       6.223   1.342   1.153  0.00  0.00    +0.214 C 
ATOM     20  O1  UNL     1       6.791   0.480   0.429  0.00  0.00    -0.276 OA
ATOM     21  N1  UNL     1       4.791   1.419   1.215  0.00  0.00    -0.286 N 
ATOM     22  H4  UNL     1       4.367   1.923   2.027  0.00  0.00    +0.155 HD
ENDBRANCH  11  21
ENDBRANCH   1  16
BRANCH   9  23
ATOM     23  C14 UNL     1      -3.341   0.801  -0.231  0.00  0.00    -0.009 A 
ATOM     24  C15 UNL     1      -2.970   1.618   0.850  0.00  0.00    +0.008 A 
ATOM     25  C16 UNL     1      -2.969   3.007   0.719  0.00  0.00    +0.020 A 
ATOM     26  C17 UNL     1      -3.339   3.579  -0.497  0.00  0.00    +0.111 A 
ATOM     27  N4  UNL     1      -3.696   2.785  -1.540  0.00  0.00    -0.263 NA
ATOM     28  C18 UNL     1      -3.706   1.428  -1.440  0.00  0.00    +0.116 A 
ENDBRANCH   9  23
TORSDOF 3
