REMARK  Name = /home/qwerty/github/datacon2025hack/step_04_hit_selection/docking/ligands/lig_108.pdb
REMARK  3 active torsions:
REMARK  status: ('A' for Active; 'I' for Inactive)
REMARK    1  A    between atoms: C1_1  and  C2_2
REMARK    2  A    between atoms: C7_9  and  C8_11
REMARK    3  A    between atoms: C11_14  and  N3_15
REMARK                            x       y       z     vdW  Elec       q    Type
REMARK                         _______ _______ _______ _____ _____    ______ ____
ROOT
ATOM      1  C1  UNL     1       6.325   2.095   2.276  0.00  0.00    +0.045 C 
ATOM      2  C2  UNL     1       5.675   1.364   1.140  0.00  0.00    -0.031 A 
ATOM      3  C3  UNL     1       6.418   1.021  -0.013  0.00  0.00    +0.114 A 
ATOM      4  N1  UNL     1       5.828   0.338  -1.037  0.00  0.00    -0.258 NA
ATOM      5  C4  UNL     1       4.526  -0.033  -0.940  0.00  0.00    +0.064 A 
ATOM      6  C5  UNL     1       3.780   0.248   0.165  0.00  0.00    +0.058 A 
ATOM      7  C6  UNL     1       4.329   0.960   1.232  0.00  0.00    +0.030 A 
ATOM      8  N2  UNL     1       2.451  -0.229   0.026  0.00  0.00    -0.265 N 
ATOM      9  C7  UNL     1       1.530  -0.452   1.108  0.00  0.00    +0.251 C 
ATOM     10  O1  UNL     1       1.974  -0.684   2.265  0.00  0.00    -0.270 OA
ATOM     11  C18 UNL     1       2.336  -0.878  -1.286  0.00  0.00    +0.120 C 
ATOM     12  C19 UNL     1       3.728  -0.760  -1.957  0.00  0.00    +0.076 C 
ENDROOT
BRANCH   9  13
ATOM     13  C8  UNL     1       0.069  -0.448   0.880  0.00  0.00    +0.037 A 
ATOM     14  C9  UNL     1      -0.771  -1.250   1.669  0.00  0.00    +0.015 A 
ATOM     15  C10 UNL     1      -2.153  -1.245   1.464  0.00  0.00    +0.024 A 
ATOM     16  C11 UNL     1      -2.722  -0.432   0.470  0.00  0.00    +0.030 A 
ATOM     17  C16 UNL     1      -1.885   0.386  -0.303  0.00  0.00    +0.024 A 
ATOM     18  C17 UNL     1      -0.502   0.382  -0.098  0.00  0.00    +0.015 A 
BRANCH  16  19
ATOM     19  N3  UNL     1      -4.146  -0.425   0.251  0.00  0.00    -0.326 N 
ATOM     20  C12 UNL     1      -5.070  -0.499   1.387  0.00  0.00    +0.133 C 
ATOM     21  C13 UNL     1      -6.401   0.163   1.016  0.00  0.00    +0.178 C 
ATOM     22  O2  UNL     1      -6.910  -0.371  -0.192  0.00  0.00    -0.377 OA
ATOM     23  C14 UNL     1      -6.040  -0.050  -1.261  0.00  0.00    +0.178 C 
ATOM     24  C15 UNL     1      -4.681  -0.732  -1.080  0.00  0.00    +0.133 C 
ENDBRANCH  16  19
ENDBRANCH   9  13
TORSDOF 2
