REMARK  Name = /home/qwerty/github/datacon2025hack/step_04_hit_selection/docking/ligands/lig_242.pdb
REMARK  8 active torsions:
REMARK  status: ('A' for Active; 'I' for Inactive)
REMARK    1  A    between atoms: C1_1  and  C2_2
REMARK    2  A    between atoms: C2_2  and  C3_3
REMARK    3  A    between atoms: C2_2  and  C4_4
REMARK    4  A    between atoms: N1_6  and  C5_7
REMARK    5  A    between atoms: C8_10  and  C9_11
REMARK    6  A    between atoms: C9_11  and  N2_12
REMARK    7  A    between atoms: N3_15  and  C11_16
REMARK    8  A    between atoms: N4_26  and  C20_27
REMARK                            x       y       z     vdW  Elec       q    Type
REMARK                         _______ _______ _______ _____ _____    ______ ____
ROOT
ATOM      1  N2  UNL     1      -0.264   0.205  -3.590  0.00  0.00    -0.295 N 
ATOM      2  C10 UNL     1      -1.115   0.321  -2.443  0.00  0.00    +0.304 C 
ATOM      3  O2  UNL     1      -1.019   1.324  -1.685  0.00  0.00    -0.252 OA
ATOM      4  N3  UNL     1      -2.052  -0.725  -2.145  0.00  0.00    -0.269 N 
ATOM      5  H13 UNL     1      -0.380  -0.618  -4.224  0.00  0.00    +0.151 HD
ATOM      6  H14 UNL     1      -1.904  -1.653  -2.605  0.00  0.00    +0.156 HD
ENDROOT
BRANCH   4   7
ATOM      7  C11 UNL     1      -3.100  -0.613  -1.167  0.00  0.00    +0.035 A 
ATOM      8  C12 UNL     1      -3.784   0.596  -0.965  0.00  0.00    +0.025 A 
ATOM      9  C13 UNL     1      -4.822   0.675  -0.033  0.00  0.00    +0.025 A 
ATOM     10  C14 UNL     1      -5.206  -0.457   0.711  0.00  0.00    +0.039 A 
ATOM     11  C15 UNL     1      -4.512  -1.670   0.513  0.00  0.00    -0.024 A 
ATOM     12  C16 UNL     1      -3.486  -1.746  -0.440  0.00  0.00    +0.028 A 
ATOM     13  C17 UNL     1      -4.931  -2.901   1.273  0.00  0.00    +0.046 C 
ATOM     14  C18 UNL     1      -5.365  -2.549   2.698  0.00  0.00    +0.101 C 
ATOM     15  C19 UNL     1      -6.368  -1.433   2.682  0.00  0.00    +0.220 C 
ATOM     16  O3  UNL     1      -7.250  -1.384   3.582  0.00  0.00    -0.275 OA
ATOM     17  N4  UNL     1      -6.283  -0.402   1.677  0.00  0.00    -0.274 N 
ATOM     18  C20 UNL     1      -7.250   0.704   1.675  0.00  0.00    +0.138 C 
ENDBRANCH   4   7
BRANCH   1  19
ATOM     19  C9  UNL     1       0.745   1.207  -3.927  0.00  0.00    +0.141 C 
BRANCH  19  23
ATOM     20  C5  UNL     1       4.199   0.665  -1.390  0.00  0.00    +0.033 A 
ATOM     21  C6  UNL     1       3.995  -0.165  -2.500  0.00  0.00    +0.023 A 
ATOM     22  C7  UNL     1       2.876   0.010  -3.319  0.00  0.00    +0.007 A 
ATOM     23  C8  UNL     1       1.957   1.037  -3.053  0.00  0.00    -0.030 A 
ATOM     24  C21 UNL     1       2.165   1.878  -1.949  0.00  0.00    +0.007 A 
ATOM     25  C22 UNL     1       3.280   1.697  -1.126  0.00  0.00    +0.023 A 
BRANCH  20  28
ATOM     26  C4  UNL     1       5.388   0.699   0.845  0.00  0.00    +0.220 C 
ATOM     27  O1  UNL     1       4.308   0.746   1.497  0.00  0.00    -0.275 OA
ATOM     28  N1  UNL     1       5.366   0.480  -0.573  0.00  0.00    -0.285 N 
ATOM     29  H8  UNL     1       6.227   0.093  -1.024  0.00  0.00    +0.155 HD
BRANCH  26  31
ATOM     30  C1  UNL     1       7.040  -0.609   2.173  0.00  0.00    +0.017 C 
ATOM     31  C2  UNL     1       6.706   0.760   1.572  0.00  0.00    +0.069 C 
ATOM     32  C3  UNL     1       6.691   1.844   2.655  0.00  0.00    +0.017 C 
ENDBRANCH  26  31
ENDBRANCH  20  28
ENDBRANCH  19  23
ENDBRANCH   1  19
TORSDOF 5
