MODEL 1
REMARK VINA RESULT:    -6.505      0.000      0.000
REMARK INTER + INTRA:          -9.056
REMARK INTER:                  -8.406
REMARK INTRA:                  -0.650
REMARK UNBOUND:                -0.650
REMARK  Name = /home/qwerty/github/datacon2025hack/step_04_hit_selection/docking/ligands/lig_589.pdb
REMARK  6 active torsions:
REMARK  status: ('A' for Active; 'I' for Inactive)
REMARK    1  A    between atoms: C1_1  and  O1_2
REMARK    2  A    between atoms: O1_2  and  C2_3
REMARK    3  A    between atoms: C10_12  and  N1_13
REMARK    4  A    between atoms: C11_14  and  C12_16
REMARK    5  A    between atoms: N2_18  and  C13_19
REMARK    6  A    between atoms: C16_22  and  N3_23
REMARK                            x       y       z     vdW  Elec       q    Type
REMARK                         _______ _______ _______ _____ _____    ______ ____
ROOT
ATOM      1  N1  UNL     1      19.846   7.928  20.173  0.00  0.00    -0.301 N 
ATOM      2  C11 UNL     1      20.723   6.792  20.102  0.00  0.00    +0.300 C 
ATOM      3  O3  UNL     1      21.057   6.324  18.980  0.00  0.00    -0.265 OA
ATOM      4  H12 UNL     1      19.567   8.293  21.113  0.00  0.00    +0.150 HD
ENDROOT
BRANCH   1  14
ATOM      5  C2  UNL     1      19.757  12.841  19.242  0.00  0.00    +0.124 A 
ATOM      6  C3  UNL     1      20.832  12.025  18.840  0.00  0.00    +0.046 A 
ATOM      7  C4  UNL     1      20.670  10.640  18.747  0.00  0.00    +0.012 A 
ATOM      8  C5  UNL     1      19.433  10.050  19.045  0.00  0.00    +0.015 A 
ATOM      9  C6  UNL     1      18.362  10.862  19.465  0.00  0.00    +0.129 A 
ATOM     10  C7  UNL     1      18.527  12.249  19.551  0.00  0.00    +0.091 A 
ATOM     11  O2  UNL     1      17.120  10.294  19.773  0.00  0.00    -0.491 OA
ATOM     12  C8  UNL     1      16.932   8.883  19.876  0.00  0.00    +0.231 C 
ATOM     13  C9  UNL     1      17.785   8.155  18.833  0.00  0.00    +0.068 C 
ATOM     14  C10 UNL     1      19.269   8.547  18.975  0.00  0.00    +0.110 C 
BRANCH   5  16
ATOM     15  C1  UNL     1      20.042  14.938  20.574  0.00  0.00    +0.277 C 
ATOM     16  O1  UNL     1      19.869  14.236  19.347  0.00  0.00    -0.495 OA
ENDBRANCH   5  16
ENDBRANCH   1  14
BRANCH   2  17
ATOM     17  C12 UNL     1      21.245   6.169  21.334  0.00  0.00    +0.303 C 
ATOM     18  O4  UNL     1      22.485   5.967  21.450  0.00  0.00    -0.265 OA
ATOM     19  N2  UNL     1      20.355   5.832  22.411  0.00  0.00    -0.276 N 
ATOM     20  H13 UNL     1      19.414   6.287  22.434  0.00  0.00    +0.155 HD
BRANCH  19  21
ATOM     21  C13 UNL     1      20.720   5.000  23.525  0.00  0.00    +0.052 A 
ATOM     22  C14 UNL     1      21.305   5.532  24.686  0.00  0.00    +0.028 A 
ATOM     23  C15 UNL     1      21.670   4.689  25.737  0.00  0.00    +0.050 A 
ATOM     24  C16 UNL     1      21.461   3.307  25.619  0.00  0.00    +0.156 A 
ATOM     25  N6  UNL     1      20.913   2.810  24.475  0.00  0.00    -0.234 NA
ATOM     26  C19 UNL     1      20.551   3.612  23.439  0.00  0.00    +0.136 A 
BRANCH  24  27
ATOM     27  N3  UNL     1      21.826   2.415  26.684  0.00  0.00    -0.202 N 
ATOM     28  C17 UNL     1      21.188   1.288  27.046  0.00  0.00    +0.226 A 
ATOM     29  N4  UNL     1      21.802   0.694  28.089  0.00  0.00    -0.222 NA
ATOM     30  C18 UNL     1      22.840   1.525  28.327  0.00  0.00    +0.245 A 
ATOM     31  N5  UNL     1      22.867   2.573  27.483  0.00  0.00    -0.152 NA
ENDBRANCH  24  27
ENDBRANCH  19  21
ENDBRANCH   2  17
TORSDOF 5
ENDMDL
MODEL 2
REMARK VINA RESULT:    -6.278      1.494      1.951
REMARK INTER + INTRA:          -8.763
REMARK INTER:                  -8.176
REMARK INTRA:                  -0.588
REMARK UNBOUND:                -0.650
REMARK  Name = /home/qwerty/github/datacon2025hack/step_04_hit_selection/docking/ligands/lig_589.pdb
REMARK  6 active torsions:
REMARK  status: ('A' for Active; 'I' for Inactive)
REMARK    1  A    between atoms: C1_1  and  O1_2
REMARK    2  A    between atoms: O1_2  and  C2_3
REMARK    3  A    between atoms: C10_12  and  N1_13
REMARK    4  A    between atoms: C11_14  and  C12_16
REMARK    5  A    between atoms: N2_18  and  C13_19
REMARK    6  A    between atoms: C16_22  and  N3_23
REMARK                            x       y       z     vdW  Elec       q    Type
REMARK                         _______ _______ _______ _____ _____    ______ ____
ROOT
ATOM      1  N1  UNL     1      19.811   6.596  20.751  0.00  0.00    -0.301 N 
ATOM      2  C11 UNL     1      20.689   5.551  21.196  0.00  0.00    +0.300 C 
ATOM      3  O3  UNL     1      21.545   5.068  20.406  0.00  0.00    -0.265 OA
ATOM      4  H12 UNL     1      19.096   6.974  21.415  0.00  0.00    +0.150 HD
ENDROOT
BRANCH   1  14
ATOM      5  C2  UNL     1      19.513  11.418  19.455  0.00  0.00    +0.124 A 
ATOM      6  C3  UNL     1      20.747  10.788  19.710  0.00  0.00    +0.046 A 
ATOM      7  C4  UNL     1      20.849   9.395  19.676  0.00  0.00    +0.012 A 
ATOM      8  C5  UNL     1      19.725   8.611  19.378  0.00  0.00    +0.015 A 
ATOM      9  C6  UNL     1      18.486   9.237  19.142  0.00  0.00    +0.129 A 
ATOM     10  C7  UNL     1      18.390  10.632  19.171  0.00  0.00    +0.091 A 
ATOM     11  O2  UNL     1      17.350   8.473  18.848  0.00  0.00    -0.491 OA
ATOM     12  C8  UNL     1      17.335   7.051  18.973  0.00  0.00    +0.231 C 
ATOM     13  C9  UNL     1      18.688   6.466  18.555  0.00  0.00    +0.068 C 
ATOM     14  C10 UNL     1      19.830   7.100  19.373  0.00  0.00    +0.110 C 
BRANCH   5  16
ATOM     15  C1  UNL     1      20.312  13.733  18.949  0.00  0.00    +0.277 C 
ATOM     16  O1  UNL     1      19.361  12.813  19.476  0.00  0.00    -0.495 OA
ENDBRANCH   5  16
ENDBRANCH   1  14
BRANCH   2  17
ATOM     17  C12 UNL     1      20.606   5.039  22.578  0.00  0.00    +0.303 C 
ATOM     18  O4  UNL     1      20.093   5.759  23.477  0.00  0.00    -0.265 OA
ATOM     19  N2  UNL     1      21.066   3.712  22.889  0.00  0.00    -0.276 N 
ATOM     20  H13 UNL     1      21.182   3.033  22.103  0.00  0.00    +0.155 HD
BRANCH  19  21
ATOM     21  C13 UNL     1      21.265   3.225  24.228  0.00  0.00    +0.052 A 
ATOM     22  C14 UNL     1      22.307   3.698  25.041  0.00  0.00    +0.028 A 
ATOM     23  C15 UNL     1      22.484   3.182  26.326  0.00  0.00    +0.050 A 
ATOM     24  C16 UNL     1      21.622   2.179  26.792  0.00  0.00    +0.156 A 
ATOM     25  N6  UNL     1      20.631   1.719  25.978  0.00  0.00    -0.234 NA
ATOM     26  C19 UNL     1      20.441   2.206  24.724  0.00  0.00    +0.136 A 
BRANCH  24  27
ATOM     27  N3  UNL     1      21.779   1.629  28.110  0.00  0.00    -0.202 N 
ATOM     28  C17 UNL     1      21.869   2.314  29.264  0.00  0.00    +0.226 A 
ATOM     29  N4  UNL     1      22.011   1.483  30.315  0.00  0.00    -0.222 NA
ATOM     30  C18 UNL     1      21.999   0.266  29.727  0.00  0.00    +0.245 A 
ATOM     31  N5  UNL     1      21.860   0.341  28.390  0.00  0.00    -0.152 NA
ENDBRANCH  24  27
ENDBRANCH  19  21
ENDBRANCH   2  17
TORSDOF 5
ENDMDL
MODEL 3
REMARK VINA RESULT:    -6.247     10.437     13.129
REMARK INTER + INTRA:          -8.724
REMARK INTER:                  -8.115
REMARK INTRA:                  -0.609
REMARK UNBOUND:                -0.650
REMARK  Name = /home/qwerty/github/datacon2025hack/step_04_hit_selection/docking/ligands/lig_589.pdb
REMARK  6 active torsions:
REMARK  status: ('A' for Active; 'I' for Inactive)
REMARK    1  A    between atoms: C1_1  and  O1_2
REMARK    2  A    between atoms: O1_2  and  C2_3
REMARK    3  A    between atoms: C10_12  and  N1_13
REMARK    4  A    between atoms: C11_14  and  C12_16
REMARK    5  A    between atoms: N2_18  and  C13_19
REMARK    6  A    between atoms: C16_22  and  N3_23
REMARK                            x       y       z     vdW  Elec       q    Type
REMARK                         _______ _______ _______ _____ _____    ______ ____
ROOT
ATOM      1  N1  UNL     1      19.291  15.348  29.042  0.00  0.00    -0.301 N 
ATOM      2  C11 UNL     1      18.208  16.168  29.510  0.00  0.00    +0.300 C 
ATOM      3  O3  UNL     1      18.439  17.127  30.295  0.00  0.00    -0.265 OA
ATOM      4  H12 UNL     1      19.080  14.547  28.403  0.00  0.00    +0.150 HD
ENDROOT
BRANCH   1  14
ATOM      5  C2  UNL     1      23.309  15.258  26.064  0.00  0.00    +0.124 A 
ATOM      6  C3  UNL     1      22.590  16.443  26.313  0.00  0.00    +0.046 A 
ATOM      7  C4  UNL     1      21.746  16.538  27.423  0.00  0.00    +0.012 A 
ATOM      8  C5  UNL     1      21.614  15.456  28.305  0.00  0.00    +0.015 A 
ATOM      9  C6  UNL     1      22.316  14.263  28.048  0.00  0.00    +0.129 A 
ATOM     10  C7  UNL     1      23.165  14.175  26.940  0.00  0.00    +0.091 A 
ATOM     11  O2  UNL     1      22.193  13.168  28.912  0.00  0.00    -0.491 OA
ATOM     12  C8  UNL     1      21.221  13.126  29.956  0.00  0.00    +0.231 C 
ATOM     13  C9  UNL     1      21.041  14.517  30.573  0.00  0.00    +0.068 C 
ATOM     14  C10 UNL     1      20.674  15.549  29.488  0.00  0.00    +0.110 C 
BRANCH   5  16
ATOM     15  C1  UNL     1      23.986  14.170  23.917  0.00  0.00    +0.277 C 
ATOM     16  O1  UNL     1      24.170  15.116  24.966  0.00  0.00    -0.495 OA
ENDBRANCH   5  16
ENDBRANCH   1  14
BRANCH   2  17
ATOM     17  C12 UNL     1      16.824  15.903  29.073  0.00  0.00    +0.303 C 
ATOM     18  O4  UNL     1      16.285  16.663  28.222  0.00  0.00    -0.265 OA
ATOM     19  N2  UNL     1      16.107  14.765  29.582  0.00  0.00    -0.276 N 
ATOM     20  H13 UNL     1      16.657  13.991  30.018  0.00  0.00    +0.155 HD
BRANCH  19  21
ATOM     21  C13 UNL     1      14.691  14.570  29.421  0.00  0.00    +0.052 A 
ATOM     22  C14 UNL     1      13.777  14.925  30.426  0.00  0.00    +0.028 A 
ATOM     23  C15 UNL     1      12.412  14.697  30.244  0.00  0.00    +0.050 A 
ATOM     24  C16 UNL     1      11.963  14.098  29.057  0.00  0.00    +0.156 A 
ATOM     25  N6  UNL     1      12.870  13.741  28.106  0.00  0.00    -0.234 NA
ATOM     26  C19 UNL     1      14.203  13.953  28.261  0.00  0.00    +0.136 A 
BRANCH  24  27
ATOM     27  N3  UNL     1      10.564  13.851  28.842  0.00  0.00    -0.202 N 
ATOM     28  C17 UNL     1       9.655  13.502  29.770  0.00  0.00    +0.226 A 
ATOM     29  N4  UNL     1       8.434  13.350  29.222  0.00  0.00    -0.222 NA
ATOM     30  C18 UNL     1       8.662  13.628  27.919  0.00  0.00    +0.245 A 
ATOM     31  N5  UNL     1       9.951  13.933  27.675  0.00  0.00    -0.152 NA
ENDBRANCH  24  27
ENDBRANCH  19  21
ENDBRANCH   2  17
TORSDOF 5
ENDMDL
MODEL 4
REMARK VINA RESULT:    -6.125     14.215     16.616
REMARK INTER + INTRA:          -8.566
REMARK INTER:                  -7.884
REMARK INTRA:                  -0.682
REMARK UNBOUND:                -0.650
REMARK  Name = /home/qwerty/github/datacon2025hack/step_04_hit_selection/docking/ligands/lig_589.pdb
REMARK  6 active torsions:
REMARK  status: ('A' for Active; 'I' for Inactive)
REMARK    1  A    between atoms: C1_1  and  O1_2
REMARK    2  A    between atoms: O1_2  and  C2_3
REMARK    3  A    between atoms: C10_12  and  N1_13
REMARK    4  A    between atoms: C11_14  and  C12_16
REMARK    5  A    between atoms: N2_18  and  C13_19
REMARK    6  A    between atoms: C16_22  and  N3_23
REMARK                            x       y       z     vdW  Elec       q    Type
REMARK                         _______ _______ _______ _____ _____    ______ ____
ROOT
ATOM      1  N1  UNL     1      11.592  13.611  33.754  0.00  0.00    -0.301 N 
ATOM      2  C11 UNL     1      11.736  14.425  32.580  0.00  0.00    +0.300 C 
ATOM      3  O3  UNL     1      12.033  15.646  32.692  0.00  0.00    -0.265 OA
ATOM      4  H12 UNL     1      11.330  12.604  33.642  0.00  0.00    +0.150 HD
ENDROOT
BRANCH   1  14
ATOM      5  C2  UNL     1      15.686  13.258  36.606  0.00  0.00    +0.124 A 
ATOM      6  C3  UNL     1      15.487  14.330  35.715  0.00  0.00    +0.046 A 
ATOM      7  C4  UNL     1      14.206  14.624  35.238  0.00  0.00    +0.012 A 
ATOM      8  C5  UNL     1      13.105  13.860  35.650  0.00  0.00    +0.015 A 
ATOM      9  C6  UNL     1      13.304  12.775  36.526  0.00  0.00    +0.129 A 
ATOM     10  C7  UNL     1      14.587  12.489  37.005  0.00  0.00    +0.091 A 
ATOM     11  O2  UNL     1      12.220  11.995  36.946  0.00  0.00    -0.491 OA
ATOM     12  C8  UNL     1      10.922  12.120  36.366  0.00  0.00    +0.231 C 
ATOM     13  C9  UNL     1      10.629  13.585  36.027  0.00  0.00    +0.068 C 
ATOM     14  C10 UNL     1      11.724  14.159  35.108  0.00  0.00    +0.110 C 
BRANCH   5  16
ATOM     15  C1  UNL     1      18.008  12.371  36.337  0.00  0.00    +0.277 C 
ATOM     16  O1  UNL     1      16.951  12.925  37.113  0.00  0.00    -0.495 OA
ENDBRANCH   5  16
ENDBRANCH   1  14
BRANCH   2  17
ATOM     17  C12 UNL     1      11.549  13.845  31.236  0.00  0.00    +0.303 C 
ATOM     18  O4  UNL     1      12.029  14.437  30.231  0.00  0.00    -0.265 OA
ATOM     19  N2  UNL     1      10.861  12.592  31.076  0.00  0.00    -0.276 N 
ATOM     20  H13 UNL     1      10.760  11.974  31.913  0.00  0.00    +0.155 HD
BRANCH  19  21
ATOM     21  C13 UNL     1      10.407  12.081  29.811  0.00  0.00    +0.052 A 
ATOM     22  C14 UNL     1       9.209  12.518  29.223  0.00  0.00    +0.028 A 
ATOM     23  C15 UNL     1       8.788  11.980  28.005  0.00  0.00    +0.050 A 
ATOM     24  C16 UNL     1       9.562  10.991  27.382  0.00  0.00    +0.156 A 
ATOM     25  N6  UNL     1      10.709  10.566  27.982  0.00  0.00    -0.234 NA
ATOM     26  C19 UNL     1      11.139  11.075  29.166  0.00  0.00    +0.136 A 
BRANCH  24  27
ATOM     27  N3  UNL     1       9.155  10.419  26.129  0.00  0.00    -0.202 N 
ATOM     28  C17 UNL     1       9.956  10.029  25.122  0.00  0.00    +0.226 A 
ATOM     29  N4  UNL     1       9.240   9.537  24.092  0.00  0.00    -0.222 NA
ATOM     30  C18 UNL     1       7.970   9.653  24.539  0.00  0.00    +0.245 A 
ATOM     31  N5  UNL     1       7.904  10.187  25.773  0.00  0.00    -0.152 NA
ENDBRANCH  24  27
ENDBRANCH  19  21
ENDBRANCH   2  17
TORSDOF 5
ENDMDL
MODEL 5
REMARK VINA RESULT:    -5.958      5.581     12.398
REMARK INTER + INTRA:          -8.350
REMARK INTER:                  -7.661
REMARK INTRA:                  -0.689
REMARK UNBOUND:                -0.650
REMARK  Name = /home/qwerty/github/datacon2025hack/step_04_hit_selection/docking/ligands/lig_589.pdb
REMARK  6 active torsions:
REMARK  status: ('A' for Active; 'I' for Inactive)
REMARK    1  A    between atoms: C1_1  and  O1_2
REMARK    2  A    between atoms: O1_2  and  C2_3
REMARK    3  A    between atoms: C10_12  and  N1_13
REMARK    4  A    between atoms: C11_14  and  C12_16
REMARK    5  A    between atoms: N2_18  and  C13_19
REMARK    6  A    between atoms: C16_22  and  N3_23
REMARK                            x       y       z     vdW  Elec       q    Type
REMARK                         _______ _______ _______ _____ _____    ______ ____
ROOT
ATOM      1  N1  UNL     1      21.519   2.641  30.253  0.00  0.00    -0.301 N 
ATOM      2  C11 UNL     1      22.169   2.125  29.080  0.00  0.00    +0.300 C 
ATOM      3  O3  UNL     1      23.031   1.211  29.189  0.00  0.00    -0.265 OA
ATOM      4  H12 UNL     1      20.818   3.410  30.145  0.00  0.00    +0.150 HD
ENDROOT
BRANCH   1  14
ATOM      5  C2  UNL     1      18.264   0.718  33.528  0.00  0.00    +0.124 A 
ATOM      6  C3  UNL     1      18.955  -0.087  32.602  0.00  0.00    +0.046 A 
ATOM      7  C4  UNL     1      20.118   0.383  31.987  0.00  0.00    +0.012 A 
ATOM      8  C5  UNL     1      20.615   1.658  32.294  0.00  0.00    +0.015 A 
ATOM      9  C6  UNL     1      19.916   2.472  33.206  0.00  0.00    +0.129 A 
ATOM     10  C7  UNL     1      18.755   1.995  33.823  0.00  0.00    +0.091 A 
ATOM     11  O2  UNL     1      20.391   3.751  33.522  0.00  0.00    -0.491 OA
ATOM     12  C8  UNL     1      21.462   4.365  32.805  0.00  0.00    +0.231 C 
ATOM     13  C9  UNL     1      22.508   3.318  32.411  0.00  0.00    +0.068 C 
ATOM     14  C10 UNL     1      21.857   2.178  31.603  0.00  0.00    +0.110 C 
BRANCH   5  16
ATOM     15  C1  UNL     1      16.973   0.102  35.579  0.00  0.00    +0.277 C 
ATOM     16  O1  UNL     1      17.094   0.290  34.173  0.00  0.00    -0.495 OA
ENDBRANCH   5  16
ENDBRANCH   1  14
BRANCH   2  17
ATOM     17  C12 UNL     1      21.833   2.651  27.743  0.00  0.00    +0.303 C 
ATOM     18  O4  UNL     1      21.592   1.846  26.802  0.00  0.00    -0.265 OA
ATOM     19  N2  UNL     1      21.739   4.069  27.523  0.00  0.00    -0.276 N 
ATOM     20  H13 UNL     1      21.623   4.690  28.355  0.00  0.00    +0.155 HD
BRANCH  19  21
ATOM     21  C13 UNL     1      21.675   4.677  26.221  0.00  0.00    +0.052 A 
ATOM     22  C14 UNL     1      22.832   4.954  25.476  0.00  0.00    +0.028 A 
ATOM     23  C15 UNL     1      22.731   5.568  24.227  0.00  0.00    +0.050 A 
ATOM     24  C16 UNL     1      21.468   5.920  23.729  0.00  0.00    +0.156 A 
ATOM     25  N6  UNL     1      20.360   5.663  24.479  0.00  0.00    -0.234 NA
ATOM     26  C19 UNL     1      20.434   5.065  25.698  0.00  0.00    +0.136 A 
BRANCH  24  27
ATOM     27  N3  UNL     1      21.333   6.553  22.447  0.00  0.00    -0.202 N 
ATOM     28  C17 UNL     1      22.329   6.966  21.643  0.00  0.00    +0.226 A 
ATOM     29  N4  UNL     1      21.846   7.519  20.513  0.00  0.00    -0.222 NA
ATOM     30  C18 UNL     1      20.510   7.413  20.685  0.00  0.00    +0.245 A 
ATOM     31  N5  UNL     1      20.185   6.829  21.854  0.00  0.00    -0.152 NA
ENDBRANCH  24  27
ENDBRANCH  19  21
ENDBRANCH   2  17
TORSDOF 5
ENDMDL
MODEL 6
REMARK VINA RESULT:    -5.878      8.815     11.766
REMARK INTER + INTRA:          -8.246
REMARK INTER:                  -7.581
REMARK INTRA:                  -0.665
REMARK UNBOUND:                -0.650
REMARK  Name = /home/qwerty/github/datacon2025hack/step_04_hit_selection/docking/ligands/lig_589.pdb
REMARK  6 active torsions:
REMARK  status: ('A' for Active; 'I' for Inactive)
REMARK    1  A    between atoms: C1_1  and  O1_2
REMARK    2  A    between atoms: O1_2  and  C2_3
REMARK    3  A    between atoms: C10_12  and  N1_13
REMARK    4  A    between atoms: C11_14  and  C12_16
REMARK    5  A    between atoms: N2_18  and  C13_19
REMARK    6  A    between atoms: C16_22  and  N3_23
REMARK                            x       y       z     vdW  Elec       q    Type
REMARK                         _______ _______ _______ _____ _____    ______ ____
ROOT
ATOM      1  N1  UNL     1      20.181  15.167  26.324  0.00  0.00    -0.301 N 
ATOM      2  C11 UNL     1      18.931  15.875  26.339  0.00  0.00    +0.300 C 
ATOM      3  O3  UNL     1      18.861  17.038  25.858  0.00  0.00    -0.265 OA
ATOM      4  H12 UNL     1      20.224  14.208  26.742  0.00  0.00    +0.150 HD
ENDROOT
BRANCH   1  14
ATOM      5  C2  UNL     1      22.511  13.795  22.116  0.00  0.00    +0.124 A 
ATOM      6  C3  UNL     1      21.509  14.786  22.126  0.00  0.00    +0.046 A 
ATOM      7  C4  UNL     1      21.163  15.427  23.318  0.00  0.00    +0.012 A 
ATOM      8  C5  UNL     1      21.815  15.097  24.515  0.00  0.00    +0.015 A 
ATOM      9  C6  UNL     1      22.803  14.093  24.511  0.00  0.00    +0.129 A 
ATOM     10  C7  UNL     1      23.151  13.458  23.314  0.00  0.00    +0.091 A 
ATOM     11  O2  UNL     1      23.463  13.743  25.695  0.00  0.00    -0.491 OA
ATOM     12  C8  UNL     1      23.040  14.220  26.972  0.00  0.00    +0.231 C 
ATOM     13  C9  UNL     1      22.539  15.663  26.862  0.00  0.00    +0.068 C 
ATOM     14  C10 UNL     1      21.416  15.769  25.811  0.00  0.00    +0.110 C 
BRANCH   5  16
ATOM     15  C1  UNL     1      23.460  13.763  19.803  0.00  0.00    +0.277 C 
ATOM     16  O1  UNL     1      22.895  13.126  20.944  0.00  0.00    -0.495 OA
ENDBRANCH   5  16
ENDBRANCH   1  14
BRANCH   2  17
ATOM     17  C12 UNL     1      17.721  15.250  26.907  0.00  0.00    +0.303 C 
ATOM     18  O4  UNL     1      17.678  13.998  27.052  0.00  0.00    -0.265 OA
ATOM     19  N2  UNL     1      16.615  16.065  27.332  0.00  0.00    -0.276 N 
ATOM     20  H13 UNL     1      16.788  17.081  27.503  0.00  0.00    +0.155 HD
BRANCH  19  21
ATOM     21  C13 UNL     1      15.312  15.547  27.651  0.00  0.00    +0.052 A 
ATOM     22  C14 UNL     1      14.321  15.378  26.670  0.00  0.00    +0.028 A 
ATOM     23  C15 UNL     1      13.060  14.896  27.022  0.00  0.00    +0.050 A 
ATOM     24  C16 UNL     1      12.784  14.595  28.364  0.00  0.00    +0.156 A 
ATOM     25  N6  UNL     1      13.753  14.788  29.303  0.00  0.00    -0.234 NA
ATOM     26  C19 UNL     1      14.988  15.256  28.983  0.00  0.00    +0.136 A 
BRANCH  24  27
ATOM     27  N3  UNL     1      11.495  14.098  28.757  0.00  0.00    -0.202 N 
ATOM     28  C17 UNL     1      11.115  13.730  29.993  0.00  0.00    +0.226 A 
ATOM     29  N4  UNL     1       9.835  13.310  30.005  0.00  0.00    -0.222 NA
ATOM     30  C18 UNL     1       9.472  13.447  28.710  0.00  0.00    +0.245 A 
ATOM     31  N5  UNL     1      10.470  13.923  27.942  0.00  0.00    -0.152 NA
ENDBRANCH  24  27
ENDBRANCH  19  21
ENDBRANCH   2  17
TORSDOF 5
ENDMDL
MODEL 7
REMARK VINA RESULT:    -5.872      9.587     12.816
REMARK INTER + INTRA:          -8.238
REMARK INTER:                  -7.627
REMARK INTRA:                  -0.611
REMARK UNBOUND:                -0.650
REMARK  Name = /home/qwerty/github/datacon2025hack/step_04_hit_selection/docking/ligands/lig_589.pdb
REMARK  6 active torsions:
REMARK  status: ('A' for Active; 'I' for Inactive)
REMARK    1  A    between atoms: C1_1  and  O1_2
REMARK    2  A    between atoms: O1_2  and  C2_3
REMARK    3  A    between atoms: C10_12  and  N1_13
REMARK    4  A    between atoms: C11_14  and  C12_16
REMARK    5  A    between atoms: N2_18  and  C13_19
REMARK    6  A    between atoms: C16_22  and  N3_23
REMARK                            x       y       z     vdW  Elec       q    Type
REMARK                         _______ _______ _______ _____ _____    ______ ____
ROOT
ATOM      1  N1  UNL     1      11.908   4.766  21.280  0.00  0.00    -0.301 N 
ATOM      2  C11 UNL     1      10.719   5.569  21.212  0.00  0.00    +0.300 C 
ATOM      3  O3  UNL     1       9.896   5.397  20.272  0.00  0.00    -0.265 OA
ATOM      4  H12 UNL     1      12.587   4.932  22.058  0.00  0.00    +0.150 HD
ENDROOT
BRANCH   1  14
ATOM      5  C2  UNL     1      14.459   0.542  22.101  0.00  0.00    +0.124 A 
ATOM      6  C3  UNL     1      13.056   0.602  22.218  0.00  0.00    +0.046 A 
ATOM      7  C4  UNL     1      12.341   1.640  21.615  0.00  0.00    +0.012 A 
ATOM      8  C5  UNL     1      13.012   2.628  20.880  0.00  0.00    +0.015 A 
ATOM      9  C6  UNL     1      14.416   2.581  20.778  0.00  0.00    +0.129 A 
ATOM     10  C7  UNL     1      15.127   1.536  21.377  0.00  0.00    +0.091 A 
ATOM     11  O2  UNL     1      15.107   3.560  20.054  0.00  0.00    -0.491 OA
ATOM     12  C8  UNL     1      14.469   4.741  19.568  0.00  0.00    +0.231 C 
ATOM     13  C9  UNL     1      13.040   4.425  19.113  0.00  0.00    +0.068 C 
ATOM     14  C10 UNL     1      12.239   3.770  20.256  0.00  0.00    +0.110 C 
BRANCH   5  16
ATOM     15  C1  UNL     1      16.126  -1.317  21.972  0.00  0.00    +0.277 C 
ATOM     16  O1  UNL     1      15.220  -0.482  22.685  0.00  0.00    -0.495 OA
ENDBRANCH   5  16
ENDBRANCH   1  14
BRANCH   2  17
ATOM     17  C12 UNL     1      10.445   6.593  22.239  0.00  0.00    +0.303 C 
ATOM     18  O4  UNL     1      11.393   7.301  22.678  0.00  0.00    -0.265 OA
ATOM     19  N2  UNL     1       9.103   6.812  22.706  0.00  0.00    -0.276 N 
ATOM     20  H13 UNL     1       8.313   6.459  22.119  0.00  0.00    +0.155 HD
BRANCH  19  21
ATOM     21  C13 UNL     1       8.774   7.591  23.869  0.00  0.00    +0.052 A 
ATOM     22  C14 UNL     1       8.506   8.967  23.788  0.00  0.00    +0.028 A 
ATOM     23  C15 UNL     1       8.216   9.695  24.943  0.00  0.00    +0.050 A 
ATOM     24  C16 UNL     1       8.208   9.045  26.186  0.00  0.00    +0.156 A 
ATOM     25  N6  UNL     1       8.493   7.714  26.244  0.00  0.00    -0.234 NA
ATOM     26  C19 UNL     1       8.779   6.986  25.133  0.00  0.00    +0.136 A 
BRANCH  24  27
ATOM     27  N3  UNL     1       7.912   9.767  27.391  0.00  0.00    -0.202 N 
ATOM     28  C17 UNL     1       8.186  11.060  27.644  0.00  0.00    +0.226 A 
ATOM     29  N4  UNL     1       7.771  11.414  28.876  0.00  0.00    -0.222 NA
ATOM     30  C18 UNL     1       7.234  10.265  29.344  0.00  0.00    +0.245 A 
ATOM     31  N5  UNL     1       7.314   9.258  28.453  0.00  0.00    -0.152 NA
ENDBRANCH  24  27
ENDBRANCH  19  21
ENDBRANCH   2  17
TORSDOF 5
ENDMDL
MODEL 8
REMARK VINA RESULT:    -5.818      7.639      9.832
REMARK INTER + INTRA:          -8.169
REMARK INTER:                  -7.547
REMARK INTRA:                  -0.621
REMARK UNBOUND:                -0.650
REMARK  Name = /home/qwerty/github/datacon2025hack/step_04_hit_selection/docking/ligands/lig_589.pdb
REMARK  6 active torsions:
REMARK  status: ('A' for Active; 'I' for Inactive)
REMARK    1  A    between atoms: C1_1  and  O1_2
REMARK    2  A    between atoms: O1_2  and  C2_3
REMARK    3  A    between atoms: C10_12  and  N1_13
REMARK    4  A    between atoms: C11_14  and  C12_16
REMARK    5  A    between atoms: N2_18  and  C13_19
REMARK    6  A    between atoms: C16_22  and  N3_23
REMARK                            x       y       z     vdW  Elec       q    Type
REMARK                         _______ _______ _______ _____ _____    ______ ____
ROOT
ATOM      1  N1  UNL     1      11.028   8.560  22.047  0.00  0.00    -0.301 N 
ATOM      2  C11 UNL     1      12.355   8.263  21.585  0.00  0.00    +0.300 C 
ATOM      3  O3  UNL     1      13.191   9.195  21.429  0.00  0.00    -0.265 OA
ATOM      4  H12 UNL     1      10.343   7.776  22.156  0.00  0.00    +0.150 HD
ENDROOT
BRANCH   1  14
ATOM      5  C2  UNL     1       8.545  10.058  26.123  0.00  0.00    +0.124 A 
ATOM      6  C3  UNL     1       9.953  10.063  26.062  0.00  0.00    +0.046 A 
ATOM      7  C4  UNL     1      10.606  10.030  24.827  0.00  0.00    +0.012 A 
ATOM      8  C5  UNL     1       9.867  10.001  23.636  0.00  0.00    +0.015 A 
ATOM      9  C6  UNL     1       8.460   9.976  23.695  0.00  0.00    +0.129 A 
ATOM     10  C7  UNL     1       7.810  10.016  24.933  0.00  0.00    +0.091 A 
ATOM     11  O2  UNL     1       7.702   9.941  22.518  0.00  0.00    -0.491 OA
ATOM     12  C8  UNL     1       8.293   9.725  21.238  0.00  0.00    +0.231 C 
ATOM     13  C9  UNL     1       9.659  10.413  21.159  0.00  0.00    +0.068 C 
ATOM     14  C10 UNL     1      10.576   9.932  22.301  0.00  0.00    +0.110 C 
BRANCH   5  16
ATOM     15  C1  UNL     1       8.337  10.689  28.534  0.00  0.00    +0.277 C 
ATOM     16  O1  UNL     1       7.845  10.092  27.338  0.00  0.00    -0.495 OA
ENDBRANCH   5  16
ENDBRANCH   1  14
BRANCH   2  17
ATOM     17  C12 UNL     1      12.756   6.873  21.297  0.00  0.00    +0.303 C 
ATOM     18  O4  UNL     1      11.869   5.986  21.160  0.00  0.00    -0.265 OA
ATOM     19  N2  UNL     1      14.145   6.537  21.132  0.00  0.00    -0.276 N 
ATOM     20  H13 UNL     1      14.819   7.310  20.931  0.00  0.00    +0.155 HD
BRANCH  19  21
ATOM     21  C13 UNL     1      14.648   5.190  21.107  0.00  0.00    +0.052 A 
ATOM     22  C14 UNL     1      14.989   4.549  19.906  0.00  0.00    +0.028 A 
ATOM     23  C15 UNL     1      15.450   3.231  19.920  0.00  0.00    +0.050 A 
ATOM     24  C16 UNL     1      15.557   2.549  21.141  0.00  0.00    +0.156 A 
ATOM     25  N6  UNL     1      15.199   3.183  22.292  0.00  0.00    -0.234 NA
ATOM     26  C19 UNL     1      14.747   4.465  22.302  0.00  0.00    +0.136 A 
BRANCH  24  27
ATOM     27  N3  UNL     1      16.029   1.193  21.186  0.00  0.00    -0.202 N 
ATOM     28  C17 UNL     1      16.111   0.333  20.155  0.00  0.00    +0.226 A 
ATOM     29  N4  UNL     1      16.598  -0.859  20.553  0.00  0.00    -0.222 NA
ATOM     30  C18 UNL     1      16.803  -0.663  21.874  0.00  0.00    +0.245 A 
ATOM     31  N5  UNL     1      16.461   0.577  22.272  0.00  0.00    -0.152 NA
ENDBRANCH  24  27
ENDBRANCH  19  21
ENDBRANCH   2  17
TORSDOF 5
ENDMDL
MODEL 9
REMARK VINA RESULT:    -5.787      6.558     10.354
REMARK INTER + INTRA:          -8.129
REMARK INTER:                  -7.524
REMARK INTRA:                  -0.605
REMARK UNBOUND:                -0.650
REMARK  Name = /home/qwerty/github/datacon2025hack/step_04_hit_selection/docking/ligands/lig_589.pdb
REMARK  6 active torsions:
REMARK  status: ('A' for Active; 'I' for Inactive)
REMARK    1  A    between atoms: C1_1  and  O1_2
REMARK    2  A    between atoms: O1_2  and  C2_3
REMARK    3  A    between atoms: C10_12  and  N1_13
REMARK    4  A    between atoms: C11_14  and  C12_16
REMARK    5  A    between atoms: N2_18  and  C13_19
REMARK    6  A    between atoms: C16_22  and  N3_23
REMARK                            x       y       z     vdW  Elec       q    Type
REMARK                         _______ _______ _______ _____ _____    ______ ____
ROOT
ATOM      1  N1  UNL     1      21.673   2.731  28.792  0.00  0.00    -0.301 N 
ATOM      2  C11 UNL     1      22.165   2.135  30.003  0.00  0.00    +0.300 C 
ATOM      3  O3  UNL     1      22.852   1.078  29.950  0.00  0.00    -0.265 OA
ATOM      4  H12 UNL     1      21.091   3.599  28.855  0.00  0.00    +0.150 HD
ENDROOT
BRANCH   1  14
ATOM      5  C2  UNL     1      21.683   5.216  24.452  0.00  0.00    +0.124 A 
ATOM      6  C3  UNL     1      22.854   5.044  25.216  0.00  0.00    +0.046 A 
ATOM      7  C4  UNL     1      22.922   4.040  26.186  0.00  0.00    +0.012 A 
ATOM      8  C5  UNL     1      21.829   3.189  26.401  0.00  0.00    +0.015 A 
ATOM      9  C6  UNL     1      20.651   3.372  25.652  0.00  0.00    +0.129 A 
ATOM     10  C7  UNL     1      20.589   4.374  24.678  0.00  0.00    +0.091 A 
ATOM     11  O2  UNL     1      19.545   2.537  25.855  0.00  0.00    -0.491 OA
ATOM     12  C8  UNL     1      19.475   1.616  26.942  0.00  0.00    +0.231 C 
ATOM     13  C9  UNL     1      20.856   1.012  27.218  0.00  0.00    +0.068 C 
ATOM     14  C10 UNL     1      21.893   2.124  27.475  0.00  0.00    +0.110 C 
BRANCH   5  16
ATOM     15  C1  UNL     1      22.462   6.356  22.366  0.00  0.00    +0.277 C 
ATOM     16  O1  UNL     1      21.568   6.208  23.465  0.00  0.00    -0.495 OA
ENDBRANCH   5  16
ENDBRANCH   1  14
BRANCH   2  17
ATOM     17  C12 UNL     1      21.882   2.752  31.312  0.00  0.00    +0.303 C 
ATOM     18  O4  UNL     1      21.429   2.040  32.250  0.00  0.00    -0.265 OA
ATOM     19  N2  UNL     1      22.159   4.146  31.533  0.00  0.00    -0.276 N 
ATOM     20  H13 UNL     1      22.813   4.629  30.877  0.00  0.00    +0.155 HD
BRANCH  19  21
ATOM     21  C13 UNL     1      21.685   4.889  32.670  0.00  0.00    +0.052 A 
ATOM     22  C14 UNL     1      22.509   5.157  33.775  0.00  0.00    +0.028 A 
ATOM     23  C15 UNL     1      22.006   5.859  34.871  0.00  0.00    +0.050 A 
ATOM     24  C16 UNL     1      20.669   6.282  34.867  0.00  0.00    +0.156 A 
ATOM     25  N6  UNL     1      19.881   5.991  33.794  0.00  0.00    -0.234 NA
ATOM     26  C19 UNL     1      20.349   5.309  32.716  0.00  0.00    +0.136 A 
BRANCH  24  27
ATOM     27  N3  UNL     1      20.124   7.007  35.981  0.00  0.00    -0.202 N 
ATOM     28  C17 UNL     1      19.471   6.491  37.037  0.00  0.00    +0.226 A 
ATOM     29  N4  UNL     1      19.095   7.457  37.897  0.00  0.00    -0.222 NA
ATOM     30  C18 UNL     1      19.560   8.576  37.299  0.00  0.00    +0.245 A 
ATOM     31  N5  UNL     1      20.185   8.318  36.135  0.00  0.00    -0.152 NA
ENDBRANCH  24  27
ENDBRANCH  19  21
ENDBRANCH   2  17
TORSDOF 5
ENDMDL
