REMARK  Name = /home/qwerty/github/datacon2025hack/step_04_hit_selection/docking/ligands/lig_335.pdb
REMARK  9 active torsions:
REMARK  status: ('A' for Active; 'I' for Inactive)
REMARK    1  A    between atoms: C1_1  and  C2_2
REMARK    2  A    between atoms: N1_4  and  C3_5
REMARK    3  A    between atoms: C3_5  and  C4_6
REMARK    4  A    between atoms: C3_5  and  C9_11
REMARK    5  A    between atoms: C4_6  and  C5_7
REMARK    6  A    between atoms: N2_13  and  C10_14
REMARK    7  A    between atoms: C13_17  and  C14_18
REMARK    8  A    between atoms: C14_18  and  N3_19
REMARK    9  A    between atoms: N4_22  and  C17_23
REMARK                            x       y       z     vdW  Elec       q    Type
REMARK                         _______ _______ _______ _____ _____    ______ ____
ROOT
ATOM      1  C10 UNL     1       1.222   0.343  -0.238  0.00  0.00    +0.033 A 
ATOM      2  C11 UNL     1       0.213   1.094   0.382  0.00  0.00    +0.023 A 
ATOM      3  C12 UNL     1      -1.114   0.976  -0.038  0.00  0.00    +0.007 A 
ATOM      4  C13 UNL     1      -1.456   0.084  -1.068  0.00  0.00    -0.033 A 
ATOM      5  C24 UNL     1      -0.452  -0.693  -1.665  0.00  0.00    +0.007 A 
ATOM      6  C25 UNL     1       0.878  -0.562  -1.257  0.00  0.00    +0.023 A 
ENDROOT
BRANCH   1   9
ATOM      7  C9  UNL     1       3.703   0.496  -0.684  0.00  0.00    +0.238 C 
ATOM      8  O2  UNL     1       3.526   0.647  -1.925  0.00  0.00    -0.273 OA
ATOM      9  N2  UNL     1       2.579   0.470   0.212  0.00  0.00    -0.284 N 
ATOM     10  H15 UNL     1       2.747   0.682   1.221  0.00  0.00    +0.155 HD
BRANCH   7  11
ATOM     11  C3  UNL     1       5.107   0.427  -0.145  0.00  0.00    +0.159 C 
BRANCH  11  15
ATOM     12  C1  UNL     1       5.285  -3.267   1.101  0.00  0.00    +0.109 C 
ATOM     13  C2  UNL     1       5.212  -2.092   0.179  0.00  0.00    +0.211 C 
ATOM     14  O1  UNL     1       5.085  -2.282  -1.061  0.00  0.00    -0.276 OA
ATOM     15  N1  UNL     1       5.235  -0.760   0.711  0.00  0.00    -0.304 N 
ATOM     16  H4  UNL     1       5.339  -0.648   1.745  0.00  0.00    +0.149 HD
ENDBRANCH  11  15
BRANCH  11  17
ATOM     17  C4  UNL     1       5.437   1.729   0.639  0.00  0.00    +0.035 C 
BRANCH  17  18
ATOM     18  C5  UNL     1       6.923   2.170   0.662  0.00  0.00    -0.009 C 
ATOM     19  C6  UNL     1       7.505   2.509  -0.709  0.00  0.00    +0.003 C 
ATOM     20  C7  UNL     1       8.549   1.415  -0.530  0.00  0.00    +0.001 C 
ATOM     21  C8  UNL     1       7.986   1.086   0.846  0.00  0.00    +0.003 C 
ENDBRANCH  17  18
ENDBRANCH  11  17
ENDBRANCH   7  11
ENDBRANCH   1   9
BRANCH   4  22
ATOM     22  C14 UNL     1      -2.889  -0.071  -1.502  0.00  0.00    +0.119 C 
BRANCH  22  23
ATOM     23  N3  UNL     1      -3.477  -1.306  -0.938  0.00  0.00    -0.295 NA
ATOM     24  C15 UNL     1      -3.740  -1.231   0.514  0.00  0.00    +0.103 C 
ATOM     25  C16 UNL     1      -4.906  -0.293   0.862  0.00  0.00    +0.122 C 
ATOM     26  N4  UNL     1      -6.080  -0.560   0.018  0.00  0.00    -0.313 N 
ATOM     27  C22 UNL     1      -5.876  -0.793  -1.420  0.00  0.00    +0.122 C 
ATOM     28  C23 UNL     1      -4.690  -1.734  -1.662  0.00  0.00    +0.103 C 
BRANCH  26  29
ATOM     29  C17 UNL     1      -7.391  -0.229   0.530  0.00  0.00    +0.121 A 
ATOM     30  C18 UNL     1      -8.380   0.345  -0.294  0.00  0.00    +0.043 A 
ATOM     31  C19 UNL     1      -9.626   0.669   0.249  0.00  0.00    +0.005 A 
ATOM     32  C20 UNL     1      -9.881   0.434   1.601  0.00  0.00    +0.020 A 
ATOM     33  C21 UNL     1      -8.881  -0.128   2.394  0.00  0.00    +0.113 A 
ATOM     34  N5  UNL     1      -7.674  -0.442   1.848  0.00  0.00    -0.240 NA
ENDBRANCH  26  29
ENDBRANCH  22  23
ENDBRANCH   4  22
TORSDOF 8
