MODEL 1
REMARK VINA RESULT:    -5.587      0.000      0.000
REMARK INTER + INTRA:          -8.280
REMARK INTER:                  -7.220
REMARK INTRA:                  -1.060
REMARK UNBOUND:                -1.060
REMARK  Name = /home/qwerty/github/datacon2025hack/step_04_hit_selection/docking/ligands/lig_307.pdb
REMARK  8 active torsions:
REMARK  status: ('A' for Active; 'I' for Inactive)
REMARK    1  A    between atoms: C1_1  and  C2_2
REMARK    2  A    between atoms: C2_2  and  C3_3
REMARK    3  A    between atoms: C3_3  and  C4_4
REMARK    4  A    between atoms: C3_3  and  C5_5
REMARK    5  A    between atoms: N6_19  and  C13_20
REMARK    6  A    between atoms: C13_20  and  C14_21
REMARK    7  A    between atoms: N7_24  and  C17_25
REMARK    8  A    between atoms: C17_25  and  C18_26
REMARK                            x       y       z     vdW  Elec       q    Type
REMARK                         _______ _______ _______ _____ _____    ______ ____
ROOT
ATOM      1  C5  UNL     1      22.516   7.304  33.696  0.00  0.00    +0.138 A 
ATOM      2  N1  UNL     1      22.702   8.245  34.644  0.00  0.00    -0.132 NA
ATOM      3  N2  UNL     1      21.761   8.077  35.559  0.00  0.00    -0.113 NA
ATOM      4  C6  UNL     1      21.000   7.044  35.154  0.00  0.00    +0.220 A 
ATOM      5  N3  UNL     1      19.882   6.554  35.918  0.00  0.00    -0.296 N 
ATOM      6  C7  UNL     1      19.969   6.578  37.388  0.00  0.00    +0.127 C 
ATOM      7  C8  UNL     1      19.009   7.633  37.938  0.00  0.00    +0.128 C 
ATOM      8  N4  UNL     1      17.707   7.481  37.295  0.00  0.00    -0.278 N 
ATOM      9  C9  UNL     1      16.668   8.434  37.283  0.00  0.00    +0.303 C 
ATOM     10  O1  UNL     1      16.643   9.456  38.017  0.00  0.00    -0.253 OA
ATOM     11  N5  UNL     1      15.666   8.128  36.341  0.00  0.00    -0.297 N 
ATOM     12  C10 UNL     1      16.049   6.900  35.654  0.00  0.00    +0.129 C 
ATOM     13  C11 UNL     1      17.406   6.469  36.286  0.00  0.00    +0.112 C 
ATOM     14  C12 UNL     1      18.565   6.386  35.269  0.00  0.00    +0.132 C 
ATOM     15  N6  UNL     1      21.439   6.529  33.980  0.00  0.00    -0.299 N 
ATOM     16  H14 UNL     1      14.803   8.687  36.161  0.00  0.00    +0.150 HD
ENDROOT
BRANCH   1  17
ATOM     17  C3  UNL     1      23.385   7.178  32.460  0.00  0.00    +0.054 C 
ATOM     18  C4  UNL     1      22.957   8.199  31.397  0.00  0.00    +0.015 C 
BRANCH  17  20
ATOM     19  C1  UNL     1      25.510   5.942  33.314  0.00  0.00    +0.004 C 
ATOM     20  C2  UNL     1      24.900   7.243  32.779  0.00  0.00    +0.007 C 
ENDBRANCH  17  20
ENDBRANCH   1  17
BRANCH  15  21
ATOM     21  C13 UNL     1      20.943   5.356  33.248  0.00  0.00    +0.131 C 
BRANCH  21  22
ATOM     22  C14 UNL     1      21.744   4.084  33.610  0.00  0.00    +0.024 C 
ATOM     23  C15 UNL     1      22.661   3.637  32.481  0.00  0.00    +0.022 C 
ATOM     24  C16 UNL     1      21.861   2.601  31.696  0.00  0.00    +0.085 C 
ATOM     25  N7  UNL     1      20.634   2.302  32.453  0.00  0.00    -0.302 NA
ATOM     26  C19 UNL     1      20.817   2.889  33.788  0.00  0.00    +0.089 C 
BRANCH  25  27
ATOM     27  C17 UNL     1      20.357   0.852  32.502  0.00  0.00    +0.081 C 
ATOM     28  C18 UNL     1      20.349   0.249  31.100  0.00  0.00    +0.020 C 
ENDBRANCH  25  27
ENDBRANCH  21  22
ENDBRANCH  15  21
TORSDOF 5
ENDMDL
MODEL 2
REMARK VINA RESULT:    -5.512      5.563     10.433
REMARK INTER + INTRA:          -8.183
REMARK INTER:                  -7.630
REMARK INTRA:                  -0.552
REMARK UNBOUND:                -1.060
REMARK  Name = /home/qwerty/github/datacon2025hack/step_04_hit_selection/docking/ligands/lig_307.pdb
REMARK  8 active torsions:
REMARK  status: ('A' for Active; 'I' for Inactive)
REMARK    1  A    between atoms: C1_1  and  C2_2
REMARK    2  A    between atoms: C2_2  and  C3_3
REMARK    3  A    between atoms: C3_3  and  C4_4
REMARK    4  A    between atoms: C3_3  and  C5_5
REMARK    5  A    between atoms: N6_19  and  C13_20
REMARK    6  A    between atoms: C13_20  and  C14_21
REMARK    7  A    between atoms: N7_24  and  C17_25
REMARK    8  A    between atoms: C17_25  and  C18_26
REMARK                            x       y       z     vdW  Elec       q    Type
REMARK                         _______ _______ _______ _____ _____    ______ ____
ROOT
ATOM      1  C5  UNL     1      13.797  10.488  36.312  0.00  0.00    +0.138 A 
ATOM      2  N1  UNL     1      14.208   9.232  36.045  0.00  0.00    -0.132 NA
ATOM      3  N2  UNL     1      15.508   9.181  36.284  0.00  0.00    -0.113 NA
ATOM      4  C6  UNL     1      15.882  10.411  36.680  0.00  0.00    +0.220 A 
ATOM      5  N3  UNL     1      17.236  10.731  37.052  0.00  0.00    -0.296 N 
ATOM      6  C7  UNL     1      18.037   9.707  37.743  0.00  0.00    +0.127 C 
ATOM      7  C8  UNL     1      19.136   9.202  36.807  0.00  0.00    +0.128 C 
ATOM      8  N4  UNL     1      19.803  10.343  36.187  0.00  0.00    -0.278 N 
ATOM      9  C9  UNL     1      20.631  10.306  35.047  0.00  0.00    +0.303 C 
ATOM     10  O1  UNL     1      21.085   9.245  34.543  0.00  0.00    -0.253 OA
ATOM     11  N5  UNL     1      20.879  11.587  34.518  0.00  0.00    -0.297 N 
ATOM     12  C10 UNL     1      20.165  12.562  35.334  0.00  0.00    +0.129 C 
ATOM     13  C11 UNL     1      19.448  11.737  36.444  0.00  0.00    +0.112 C 
ATOM     14  C12 UNL     1      17.912  11.893  36.438  0.00  0.00    +0.132 C 
ATOM     15  N6  UNL     1      14.833  11.268  36.708  0.00  0.00    -0.299 N 
ATOM     16  H14 UNL     1      21.467  11.802  33.681  0.00  0.00    +0.150 HD
ENDROOT
BRANCH   1  17
ATOM     17  C3  UNL     1      12.364  10.954  36.140  0.00  0.00    +0.054 C 
ATOM     18  C4  UNL     1      11.841  10.577  34.747  0.00  0.00    +0.015 C 
BRANCH  17  20
ATOM     19  C1  UNL     1      10.535  11.559  37.890  0.00  0.00    +0.004 C 
ATOM     20  C2  UNL     1      11.432  10.474  37.281  0.00  0.00    +0.007 C 
ENDBRANCH  17  20
ENDBRANCH   1  17
BRANCH  15  21
ATOM     21  C13 UNL     1      14.799  12.667  37.158  0.00  0.00    +0.131 C 
BRANCH  21  22
ATOM     22  C14 UNL     1      15.287  13.628  36.050  0.00  0.00    +0.024 C 
ATOM     23  C15 UNL     1      14.918  15.076  36.338  0.00  0.00    +0.022 C 
ATOM     24  C16 UNL     1      13.599  15.311  35.607  0.00  0.00    +0.085 C 
ATOM     25  N7  UNL     1      13.329  14.135  34.762  0.00  0.00    -0.302 NA
ATOM     26  C19 UNL     1      14.572  13.351  34.735  0.00  0.00    +0.089 C 
BRANCH  25  27
ATOM     27  C17 UNL     1      12.868  14.520  33.414  0.00  0.00    +0.081 C 
ATOM     28  C18 UNL     1      11.371  14.269  33.255  0.00  0.00    +0.020 C 
ENDBRANCH  25  27
ENDBRANCH  21  22
ENDBRANCH  15  21
TORSDOF 5
ENDMDL
MODEL 3
REMARK VINA RESULT:    -5.510     10.524     14.114
REMARK INTER + INTRA:          -8.180
REMARK INTER:                  -7.073
REMARK INTRA:                  -1.107
REMARK UNBOUND:                -1.060
REMARK  Name = /home/qwerty/github/datacon2025hack/step_04_hit_selection/docking/ligands/lig_307.pdb
REMARK  8 active torsions:
REMARK  status: ('A' for Active; 'I' for Inactive)
REMARK    1  A    between atoms: C1_1  and  C2_2
REMARK    2  A    between atoms: C2_2  and  C3_3
REMARK    3  A    between atoms: C3_3  and  C4_4
REMARK    4  A    between atoms: C3_3  and  C5_5
REMARK    5  A    between atoms: N6_19  and  C13_20
REMARK    6  A    between atoms: C13_20  and  C14_21
REMARK    7  A    between atoms: N7_24  and  C17_25
REMARK    8  A    between atoms: C17_25  and  C18_26
REMARK                            x       y       z     vdW  Elec       q    Type
REMARK                         _______ _______ _______ _____ _____    ______ ____
ROOT
ATOM      1  C5  UNL     1      15.714  -0.452  24.047  0.00  0.00    +0.138 A 
ATOM      2  N1  UNL     1      14.923  -0.836  23.024  0.00  0.00    -0.132 NA
ATOM      3  N2  UNL     1      15.053   0.064  22.062  0.00  0.00    -0.113 NA
ATOM      4  C6  UNL     1      15.912   0.996  22.513  0.00  0.00    +0.220 A 
ATOM      5  N3  UNL     1      16.318   2.129  21.720  0.00  0.00    -0.296 N 
ATOM      6  C7  UNL     1      16.472   1.951  20.267  0.00  0.00    +0.127 C 
ATOM      7  C8  UNL     1      15.357   2.705  19.540  0.00  0.00    +0.128 C 
ATOM      8  N4  UNL     1      15.245   4.051  20.095  0.00  0.00    -0.278 N 
ATOM      9  C9  UNL     1      14.156   4.931  19.931  0.00  0.00    +0.303 C 
ATOM     10  O1  UNL     1      13.230   4.756  19.097  0.00  0.00    -0.253 OA
ATOM     11  N5  UNL     1      14.205   6.022  20.821  0.00  0.00    -0.297 N 
ATOM     12  C10 UNL     1      15.391   5.872  21.657  0.00  0.00    +0.129 C 
ATOM     13  C11 UNL     1      16.083   4.562  21.177  0.00  0.00    +0.112 C 
ATOM     14  C12 UNL     1      16.219   3.492  22.281  0.00  0.00    +0.132 C 
ATOM     15  N6  UNL     1      16.351   0.711  23.763  0.00  0.00    -0.299 N 
ATOM     16  H14 UNL     1      13.510   6.799  20.878  0.00  0.00    +0.150 HD
ENDROOT
BRANCH   1  17
ATOM     17  C3  UNL     1      15.825  -1.217  25.351  0.00  0.00    +0.054 C 
ATOM     18  C4  UNL     1      14.535  -2.002  25.624  0.00  0.00    +0.015 C 
BRANCH  17  20
ATOM     19  C1  UNL     1      17.435  -2.863  24.137  0.00  0.00    +0.004 C 
ATOM     20  C2  UNL     1      17.094  -2.104  25.425  0.00  0.00    +0.007 C 
ENDBRANCH  17  20
ENDBRANCH   1  17
BRANCH  15  21
ATOM     21  C13 UNL     1      17.350   1.423  24.572  0.00  0.00    +0.131 C 
BRANCH  21  22
ATOM     22  C14 UNL     1      18.785   1.155  24.062  0.00  0.00    +0.024 C 
ATOM     23  C15 UNL     1      19.645   0.450  25.101  0.00  0.00    +0.022 C 
ATOM     24  C16 UNL     1      20.387   1.563  25.834  0.00  0.00    +0.085 C 
ATOM     25  N7  UNL     1      20.141   2.826  25.117  0.00  0.00    -0.302 NA
ATOM     26  C19 UNL     1      19.533   2.459  23.830  0.00  0.00    +0.089 C 
BRANCH  25  27
ATOM     27  C17 UNL     1      21.376   3.619  24.958  0.00  0.00    +0.081 C 
ATOM     28  C18 UNL     1      22.476   3.108  25.884  0.00  0.00    +0.020 C 
ENDBRANCH  25  27
ENDBRANCH  21  22
ENDBRANCH  15  21
TORSDOF 5
ENDMDL
MODEL 4
REMARK VINA RESULT:    -5.452     13.352     15.145
REMARK INTER + INTRA:          -8.105
REMARK INTER:                  -7.113
REMARK INTRA:                  -0.992
REMARK UNBOUND:                -1.060
REMARK  Name = /home/qwerty/github/datacon2025hack/step_04_hit_selection/docking/ligands/lig_307.pdb
REMARK  8 active torsions:
REMARK  status: ('A' for Active; 'I' for Inactive)
REMARK    1  A    between atoms: C1_1  and  C2_2
REMARK    2  A    between atoms: C2_2  and  C3_3
REMARK    3  A    between atoms: C3_3  and  C4_4
REMARK    4  A    between atoms: C3_3  and  C5_5
REMARK    5  A    between atoms: N6_19  and  C13_20
REMARK    6  A    between atoms: C13_20  and  C14_21
REMARK    7  A    between atoms: N7_24  and  C17_25
REMARK    8  A    between atoms: C17_25  and  C18_26
REMARK                            x       y       z     vdW  Elec       q    Type
REMARK                         _______ _______ _______ _____ _____    ______ ____
ROOT
ATOM      1  C5  UNL     1      10.006   9.594  22.867  0.00  0.00    +0.138 A 
ATOM      2  N1  UNL     1      10.889  10.515  23.303  0.00  0.00    -0.132 NA
ATOM      3  N2  UNL     1      10.938  10.425  24.622  0.00  0.00    -0.113 NA
ATOM      4  C6  UNL     1      10.072   9.460  24.981  0.00  0.00    +0.220 A 
ATOM      5  N3  UNL     1       9.873   9.063  26.351  0.00  0.00    -0.296 N 
ATOM      6  C7  UNL     1      11.028   9.078  27.263  0.00  0.00    +0.127 C 
ATOM      7  C8  UNL     1      10.860  10.208  28.280  0.00  0.00    +0.128 C 
ATOM      8  N4  UNL     1       9.508  10.166  28.828  0.00  0.00    -0.278 N 
ATOM      9  C9  UNL     1       8.863  11.202  29.534  0.00  0.00    +0.303 C 
ATOM     10  O1  UNL     1       9.452  12.222  29.979  0.00  0.00    -0.253 OA
ATOM     11  N5  UNL     1       7.478  10.982  29.670  0.00  0.00    -0.297 N 
ATOM     12  C10 UNL     1       7.151   9.727  29.003  0.00  0.00    +0.129 C 
ATOM     13  C11 UNL     1       8.499   9.184  28.441  0.00  0.00    +0.112 C 
ATOM     14  C12 UNL     1       8.505   9.006  26.908  0.00  0.00    +0.132 C 
ATOM     15  N6  UNL     1       9.460   8.912  23.904  0.00  0.00    -0.299 N 
ATOM     16  H14 UNL     1       6.802  11.611  30.157  0.00  0.00    +0.150 HD
ENDROOT
BRANCH   1  17
ATOM     17  C3  UNL     1       9.654   9.398  21.405  0.00  0.00    +0.054 C 
ATOM     18  C4  UNL     1       8.705  10.506  20.929  0.00  0.00    +0.015 C 
BRANCH  17  20
ATOM     19  C1  UNL     1      11.003  10.261  19.353  0.00  0.00    +0.004 C 
ATOM     20  C2  UNL     1      10.902   9.247  20.499  0.00  0.00    +0.007 C 
ENDBRANCH  17  20
ENDBRANCH   1  17
BRANCH  15  21
ATOM     21  C13 UNL     1       8.518   7.784  23.856  0.00  0.00    +0.131 C 
BRANCH  21  22
ATOM     22  C14 UNL     1       9.218   6.482  23.406  0.00  0.00    +0.024 C 
ATOM     23  C15 UNL     1       8.512   5.821  22.232  0.00  0.00    +0.022 C 
ATOM     24  C16 UNL     1       7.566   4.797  22.851  0.00  0.00    +0.085 C 
ATOM     25  N7  UNL     1       7.865   4.712  24.292  0.00  0.00    -0.302 NA
ATOM     26  C19 UNL     1       9.138   5.418  24.492  0.00  0.00    +0.089 C 
BRANCH  25  27
ATOM     27  C17 UNL     1       7.908   3.314  24.763  0.00  0.00    +0.081 C 
ATOM     28  C18 UNL     1       9.022   2.536  24.066  0.00  0.00    +0.020 C 
ENDBRANCH  25  27
ENDBRANCH  21  22
ENDBRANCH  15  21
TORSDOF 5
ENDMDL
MODEL 5
REMARK VINA RESULT:    -5.448      2.693      6.233
REMARK INTER + INTRA:          -8.100
REMARK INTER:                  -6.889
REMARK INTRA:                  -1.210
REMARK UNBOUND:                -1.060
REMARK  Name = /home/qwerty/github/datacon2025hack/step_04_hit_selection/docking/ligands/lig_307.pdb
REMARK  8 active torsions:
REMARK  status: ('A' for Active; 'I' for Inactive)
REMARK    1  A    between atoms: C1_1  and  C2_2
REMARK    2  A    between atoms: C2_2  and  C3_3
REMARK    3  A    between atoms: C3_3  and  C4_4
REMARK    4  A    between atoms: C3_3  and  C5_5
REMARK    5  A    between atoms: N6_19  and  C13_20
REMARK    6  A    between atoms: C13_20  and  C14_21
REMARK    7  A    between atoms: N7_24  and  C17_25
REMARK    8  A    between atoms: C17_25  and  C18_26
REMARK                            x       y       z     vdW  Elec       q    Type
REMARK                         _______ _______ _______ _____ _____    ______ ____
ROOT
ATOM      1  C5  UNL     1      21.122   2.814  32.077  0.00  0.00    +0.138 A 
ATOM      2  N1  UNL     1      22.456   2.819  31.884  0.00  0.00    -0.132 NA
ATOM      3  N2  UNL     1      22.941   3.893  32.486  0.00  0.00    -0.113 NA
ATOM      4  C6  UNL     1      21.894   4.543  33.029  0.00  0.00    +0.220 A 
ATOM      5  N3  UNL     1      22.042   5.756  33.791  0.00  0.00    -0.296 N 
ATOM      6  C7  UNL     1      23.236   5.915  34.637  0.00  0.00    +0.127 C 
ATOM      7  C8  UNL     1      24.146   6.987  34.037  0.00  0.00    +0.128 C 
ATOM      8  N4  UNL     1      23.347   8.158  33.689  0.00  0.00    -0.278 N 
ATOM      9  C9  UNL     1      23.738   9.211  32.837  0.00  0.00    +0.303 C 
ATOM     10  O1  UNL     1      24.919   9.390  32.439  0.00  0.00    -0.253 OA
ATOM     11  N5  UNL     1      22.657  10.031  32.461  0.00  0.00    -0.297 N 
ATOM     12  C10 UNL     1      21.447   9.500  33.080  0.00  0.00    +0.129 C 
ATOM     13  C11 UNL     1      21.904   8.254  33.896  0.00  0.00    +0.112 C 
ATOM     14  C12 UNL     1      21.226   6.940  33.453  0.00  0.00    +0.132 C 
ATOM     15  N6  UNL     1      20.727   3.897  32.791  0.00  0.00    -0.299 N 
ATOM     16  H14 UNL     1      22.710  10.870  31.842  0.00  0.00    +0.150 HD
ENDROOT
BRANCH   1  17
ATOM     17  C3  UNL     1      20.200   1.748  31.519  0.00  0.00    +0.054 C 
ATOM     18  C4  UNL     1      20.620   1.368  30.093  0.00  0.00    +0.015 C 
BRANCH  17  20
ATOM     19  C1  UNL     1      18.701  -0.182  32.416  0.00  0.00    +0.004 C 
ATOM     20  C2  UNL     1      20.065   0.517  32.452  0.00  0.00    +0.007 C 
ENDBRANCH  17  20
ENDBRANCH   1  17
BRANCH  15  21
ATOM     21  C13 UNL     1      19.379   4.227  33.275  0.00  0.00    +0.131 C 
BRANCH  21  22
ATOM     22  C14 UNL     1      19.128   3.646  34.686  0.00  0.00    +0.024 C 
ATOM     23  C15 UNL     1      17.872   2.790  34.744  0.00  0.00    +0.022 C 
ATOM     24  C16 UNL     1      16.763   3.727  35.211  0.00  0.00    +0.085 C 
ATOM     25  N7  UNL     1      17.383   5.002  35.614  0.00  0.00    -0.302 NA
ATOM     26  C19 UNL     1      18.829   4.754  35.686  0.00  0.00    +0.089 C 
BRANCH  25  27
ATOM     27  C17 UNL     1      16.827   5.506  36.885  0.00  0.00    +0.081 C 
ATOM     28  C18 UNL     1      17.936   5.772  37.900  0.00  0.00    +0.020 C 
ENDBRANCH  25  27
ENDBRANCH  21  22
ENDBRANCH  15  21
TORSDOF 5
ENDMDL
MODEL 6
REMARK VINA RESULT:    -5.437     11.135     13.629
REMARK INTER + INTRA:          -8.086
REMARK INTER:                  -7.100
REMARK INTRA:                  -0.986
REMARK UNBOUND:                -1.060
REMARK  Name = /home/qwerty/github/datacon2025hack/step_04_hit_selection/docking/ligands/lig_307.pdb
REMARK  8 active torsions:
REMARK  status: ('A' for Active; 'I' for Inactive)
REMARK    1  A    between atoms: C1_1  and  C2_2
REMARK    2  A    between atoms: C2_2  and  C3_3
REMARK    3  A    between atoms: C3_3  and  C4_4
REMARK    4  A    between atoms: C3_3  and  C5_5
REMARK    5  A    between atoms: N6_19  and  C13_20
REMARK    6  A    between atoms: C13_20  and  C14_21
REMARK    7  A    between atoms: N7_24  and  C17_25
REMARK    8  A    between atoms: C17_25  and  C18_26
REMARK                            x       y       z     vdW  Elec       q    Type
REMARK                         _______ _______ _______ _____ _____    ______ ____
ROOT
ATOM      1  C5  UNL     1      13.317  14.090  29.268  0.00  0.00    +0.138 A 
ATOM      2  N1  UNL     1      12.947  14.296  27.988  0.00  0.00    -0.132 NA
ATOM      3  N2  UNL     1      11.695  13.884  27.866  0.00  0.00    -0.113 NA
ATOM      4  C6  UNL     1      11.317  13.417  29.070  0.00  0.00    +0.220 A 
ATOM      5  N3  UNL     1       9.996  12.903  29.326  0.00  0.00    -0.296 N 
ATOM      6  C7  UNL     1       8.853  13.526  28.639  0.00  0.00    +0.127 C 
ATOM      7  C8  UNL     1       8.290  12.553  27.602  0.00  0.00    +0.128 C 
ATOM      8  N4  UNL     1       8.136  11.236  28.212  0.00  0.00    -0.278 N 
ATOM      9  C9  UNL     1       7.958  10.016  27.528  0.00  0.00    +0.303 C 
ATOM     10  O1  UNL     1       7.686   9.933  26.301  0.00  0.00    -0.253 OA
ATOM     11  N5  UNL     1       8.140   8.897  28.363  0.00  0.00    -0.297 N 
ATOM     12  C10 UNL     1       8.478   9.377  29.698  0.00  0.00    +0.129 C 
ATOM     13  C11 UNL     1       8.477  10.932  29.600  0.00  0.00    +0.112 C 
ATOM     14  C12 UNL     1       9.834  11.577  29.956  0.00  0.00    +0.132 C 
ATOM     15  N6  UNL     1      12.313  13.525  29.983  0.00  0.00    -0.299 N 
ATOM     16  H14 UNL     1       8.054   7.897  28.075  0.00  0.00    +0.150 HD
ENDROOT
BRANCH   1  17
ATOM     17  C3  UNL     1      14.698  14.416  29.801  0.00  0.00    +0.054 C 
ATOM     18  C4  UNL     1      15.589  13.166  29.786  0.00  0.00    +0.015 C 
BRANCH  17  20
ATOM     19  C1  UNL     1      16.780  15.956  29.537  0.00  0.00    +0.004 C 
ATOM     20  C2  UNL     1      15.351  15.627  29.087  0.00  0.00    +0.007 C 
ENDBRANCH  17  20
ENDBRANCH   1  17
BRANCH  15  21
ATOM     21  C13 UNL     1      12.283  13.210  31.418  0.00  0.00    +0.131 C 
BRANCH  21  22
ATOM     22  C14 UNL     1      11.818  14.425  32.253  0.00  0.00    +0.024 C 
ATOM     23  C15 UNL     1      12.955  15.051  33.047  0.00  0.00    +0.022 C 
ATOM     24  C16 UNL     1      12.892  14.402  34.426  0.00  0.00    +0.085 C 
ATOM     25  N7  UNL     1      11.653  13.607  34.500  0.00  0.00    -0.302 NA
ATOM     26  C19 UNL     1      10.841  13.998  33.340  0.00  0.00    +0.089 C 
BRANCH  25  27
ATOM     27  C17 UNL     1      10.949  13.807  35.782  0.00  0.00    +0.081 C 
ATOM     28  C18 UNL     1       9.644  14.572  35.576  0.00  0.00    +0.020 C 
ENDBRANCH  25  27
ENDBRANCH  21  22
ENDBRANCH  15  21
TORSDOF 5
ENDMDL
MODEL 7
REMARK VINA RESULT:    -5.418      8.511     11.230
REMARK INTER + INTRA:          -8.061
REMARK INTER:                  -6.949
REMARK INTRA:                  -1.113
REMARK UNBOUND:                -1.060
REMARK  Name = /home/qwerty/github/datacon2025hack/step_04_hit_selection/docking/ligands/lig_307.pdb
REMARK  8 active torsions:
REMARK  status: ('A' for Active; 'I' for Inactive)
REMARK    1  A    between atoms: C1_1  and  C2_2
REMARK    2  A    between atoms: C2_2  and  C3_3
REMARK    3  A    between atoms: C3_3  and  C4_4
REMARK    4  A    between atoms: C3_3  and  C5_5
REMARK    5  A    between atoms: N6_19  and  C13_20
REMARK    6  A    between atoms: C13_20  and  C14_21
REMARK    7  A    between atoms: N7_24  and  C17_25
REMARK    8  A    between atoms: C17_25  and  C18_26
REMARK                            x       y       z     vdW  Elec       q    Type
REMARK                         _______ _______ _______ _____ _____    ______ ____
ROOT
ATOM      1  C5  UNL     1      15.840  14.537  29.992  0.00  0.00    +0.138 A 
ATOM      2  N1  UNL     1      16.995  14.051  30.490  0.00  0.00    -0.132 NA
ATOM      3  N2  UNL     1      16.694  13.334  31.561  0.00  0.00    -0.113 NA
ATOM      4  C6  UNL     1      15.359  13.401  31.715  0.00  0.00    +0.220 A 
ATOM      5  N3  UNL     1      14.662  12.715  32.772  0.00  0.00    -0.296 N 
ATOM      6  C7  UNL     1      15.161  11.400  33.207  0.00  0.00    +0.127 C 
ATOM      7  C8  UNL     1      15.764  11.520  34.607  0.00  0.00    +0.128 C 
ATOM      8  N4  UNL     1      14.845  12.263  35.465  0.00  0.00    -0.278 N 
ATOM      9  C9  UNL     1      15.159  12.856  36.704  0.00  0.00    +0.303 C 
ATOM     10  O1  UNL     1      16.221  12.632  37.342  0.00  0.00    -0.253 OA
ATOM     11  N5  UNL     1      14.161  13.747  37.144  0.00  0.00    -0.297 N 
ATOM     12  C10 UNL     1      13.106  13.780  36.137  0.00  0.00    +0.129 C 
ATOM     13  C11 UNL     1      13.560  12.794  35.019  0.00  0.00    +0.112 C 
ATOM     14  C12 UNL     1      13.721  13.459  33.635  0.00  0.00    +0.132 C 
ATOM     15  N6  UNL     1      14.781  14.154  30.748  0.00  0.00    -0.299 N 
ATOM     16  H14 UNL     1      14.176  14.296  38.033  0.00  0.00    +0.150 HD
ENDROOT
BRANCH   1  17
ATOM     17  C3  UNL     1      15.767  15.431  28.770  0.00  0.00    +0.054 C 
ATOM     18  C4  UNL     1      16.561  16.724  29.002  0.00  0.00    +0.015 C 
BRANCH  17  20
ATOM     19  C1  UNL     1      15.901  13.194  27.446  0.00  0.00    +0.004 C 
ATOM     20  C2  UNL     1      16.175  14.703  27.464  0.00  0.00    +0.007 C 
ENDBRANCH  17  20
ENDBRANCH   1  17
BRANCH  15  21
ATOM     21  C13 UNL     1      13.353  14.407  30.509  0.00  0.00    +0.131 C 
BRANCH  21  22
ATOM     22  C14 UNL     1      12.716  13.287  29.655  0.00  0.00    +0.024 C 
ATOM     23  C15 UNL     1      12.395  13.750  28.242  0.00  0.00    +0.022 C 
ATOM     24  C16 UNL     1      10.937  14.196  28.283  0.00  0.00    +0.085 C 
ATOM     25  N7  UNL     1      10.378  13.809  29.590  0.00  0.00    -0.302 NA
ATOM     26  C19 UNL     1      11.351  12.894  30.201  0.00  0.00    +0.089 C 
BRANCH  25  27
ATOM     27  C17 UNL     1       9.036  13.209  29.458  0.00  0.00    +0.081 C 
ATOM     28  C18 UNL     1       8.510  13.353  28.032  0.00  0.00    +0.020 C 
ENDBRANCH  25  27
ENDBRANCH  21  22
ENDBRANCH  15  21
TORSDOF 5
ENDMDL
MODEL 8
REMARK VINA RESULT:    -5.401     13.156     15.374
REMARK INTER + INTRA:          -8.040
REMARK INTER:                  -7.089
REMARK INTRA:                  -0.951
REMARK UNBOUND:                -1.060
REMARK  Name = /home/qwerty/github/datacon2025hack/step_04_hit_selection/docking/ligands/lig_307.pdb
REMARK  8 active torsions:
REMARK  status: ('A' for Active; 'I' for Inactive)
REMARK    1  A    between atoms: C1_1  and  C2_2
REMARK    2  A    between atoms: C2_2  and  C3_3
REMARK    3  A    between atoms: C3_3  and  C4_4
REMARK    4  A    between atoms: C3_3  and  C5_5
REMARK    5  A    between atoms: N6_19  and  C13_20
REMARK    6  A    between atoms: C13_20  and  C14_21
REMARK    7  A    between atoms: N7_24  and  C17_25
REMARK    8  A    between atoms: C17_25  and  C18_26
REMARK                            x       y       z     vdW  Elec       q    Type
REMARK                         _______ _______ _______ _____ _____    ______ ____
ROOT
ATOM      1  C5  UNL     1      14.103   2.899  20.806  0.00  0.00    +0.138 A 
ATOM      2  N1  UNL     1      13.669   3.606  19.742  0.00  0.00    -0.132 NA
ATOM      3  N2  UNL     1      12.648   4.344  20.146  0.00  0.00    -0.113 NA
ATOM      4  C6  UNL     1      12.459   4.070  21.450  0.00  0.00    +0.220 A 
ATOM      5  N3  UNL     1      11.439   4.712  22.239  0.00  0.00    -0.296 N 
ATOM      6  C7  UNL     1      11.115   6.121  21.961  0.00  0.00    +0.127 C 
ATOM      7  C8  UNL     1       9.725   6.210  21.331  0.00  0.00    +0.128 C 
ATOM      8  N4  UNL     1       8.793   5.394  22.104  0.00  0.00    -0.278 N 
ATOM      9  C9  UNL     1       7.520   4.958  21.683  0.00  0.00    +0.303 C 
ATOM     10  O1  UNL     1       6.926   5.403  20.666  0.00  0.00    -0.253 OA
ATOM     11  N5  UNL     1       6.992   3.952  22.514  0.00  0.00    -0.297 N 
ATOM     12  C10 UNL     1       7.968   3.668  23.560  0.00  0.00    +0.129 C 
ATOM     13  C11 UNL     1       9.167   4.626  23.289  0.00  0.00    +0.112 C 
ATOM     14  C12 UNL     1      10.501   3.892  23.034  0.00  0.00    +0.132 C 
ATOM     15  N6  UNL     1      13.353   3.160  21.905  0.00  0.00    -0.299 N 
ATOM     16  H14 UNL     1       6.065   3.484  22.399  0.00  0.00    +0.150 HD
ENDROOT
BRANCH   1  17
ATOM     17  C3  UNL     1      15.253   1.913  20.742  0.00  0.00    +0.054 C 
ATOM     18  C4  UNL     1      14.879   0.706  19.873  0.00  0.00    +0.015 C 
BRANCH  17  20
ATOM     19  C1  UNL     1      17.221   3.505  21.352  0.00  0.00    +0.004 C 
ATOM     20  C2  UNL     1      16.589   2.571  20.312  0.00  0.00    +0.007 C 
ENDBRANCH  17  20
ENDBRANCH   1  17
BRANCH  15  21
ATOM     21  C13 UNL     1      13.538   2.658  23.273  0.00  0.00    +0.131 C 
BRANCH  21  22
ATOM     22  C14 UNL     1      13.127   1.172  23.390  0.00  0.00    +0.024 C 
ATOM     23  C15 UNL     1      12.052   0.951  24.444  0.00  0.00    +0.022 C 
ATOM     24  C16 UNL     1      12.803   0.578  25.718  0.00  0.00    +0.085 C 
ATOM     25  N7  UNL     1      14.221   0.380  25.371  0.00  0.00    -0.302 NA
ATOM     26  C19 UNL     1      14.284   0.326  23.904  0.00  0.00    +0.089 C 
BRANCH  25  27
ATOM     27  C17 UNL     1      14.779  -0.828  26.010  0.00  0.00    +0.081 C 
ATOM     28  C18 UNL     1      13.930  -2.057  25.693  0.00  0.00    +0.020 C 
ENDBRANCH  25  27
ENDBRANCH  21  22
ENDBRANCH  15  21
TORSDOF 5
ENDMDL
MODEL 9
REMARK VINA RESULT:    -5.236     14.366     16.296
REMARK INTER + INTRA:          -7.826
REMARK INTER:                  -6.730
REMARK INTRA:                  -1.097
REMARK UNBOUND:                -1.060
REMARK  Name = /home/qwerty/github/datacon2025hack/step_04_hit_selection/docking/ligands/lig_307.pdb
REMARK  8 active torsions:
REMARK  status: ('A' for Active; 'I' for Inactive)
REMARK    1  A    between atoms: C1_1  and  C2_2
REMARK    2  A    between atoms: C2_2  and  C3_3
REMARK    3  A    between atoms: C3_3  and  C4_4
REMARK    4  A    between atoms: C3_3  and  C5_5
REMARK    5  A    between atoms: N6_19  and  C13_20
REMARK    6  A    between atoms: C13_20  and  C14_21
REMARK    7  A    between atoms: N7_24  and  C17_25
REMARK    8  A    between atoms: C17_25  and  C18_26
REMARK                            x       y       z     vdW  Elec       q    Type
REMARK                         _______ _______ _______ _____ _____    ______ ____
ROOT
ATOM      1  C5  UNL     1       8.500   9.686  26.786  0.00  0.00    +0.138 A 
ATOM      2  N1  UNL     1       8.210  10.720  25.970  0.00  0.00    -0.132 NA
ATOM      3  N2  UNL     1       8.287  10.277  24.726  0.00  0.00    -0.113 NA
ATOM      4  C6  UNL     1       8.637   8.979  24.793  0.00  0.00    +0.220 A 
ATOM      5  N3  UNL     1       8.794   8.154  23.623  0.00  0.00    -0.296 N 
ATOM      6  C7  UNL     1       7.901   8.383  22.476  0.00  0.00    +0.127 C 
ATOM      7  C8  UNL     1       8.700   8.987  21.320  0.00  0.00    +0.128 C 
ATOM      8  N4  UNL     1       9.931   8.225  21.136  0.00  0.00    -0.278 N 
ATOM      9  C9  UNL     1      11.066   8.639  20.409  0.00  0.00    +0.303 C 
ATOM     10  O1  UNL     1      11.081   9.632  19.636  0.00  0.00    -0.253 OA
ATOM     11  N5  UNL     1      12.192   7.831  20.661  0.00  0.00    -0.297 N 
ATOM     12  C10 UNL     1      11.811   6.810  21.630  0.00  0.00    +0.129 C 
ATOM     13  C11 UNL     1      10.308   7.071  21.948  0.00  0.00    +0.112 C 
ATOM     14  C12 UNL     1      10.032   7.370  23.438  0.00  0.00    +0.132 C 
ATOM     15  N6  UNL     1       8.786   8.567  26.075  0.00  0.00    -0.299 N 
ATOM     16  H14 UNL     1      13.138   7.946  20.233  0.00  0.00    +0.150 HD
ENDROOT
BRANCH   1  17
ATOM     17  C3  UNL     1       8.538   9.798  28.298  0.00  0.00    +0.054 C 
ATOM     18  C4  UNL     1       9.274  11.076  28.722  0.00  0.00    +0.015 C 
BRANCH  17  20
ATOM     19  C1  UNL     1       7.096   8.852  30.247  0.00  0.00    +0.004 C 
ATOM     20  C2  UNL     1       7.138   9.667  28.949  0.00  0.00    +0.007 C 
ENDBRANCH  17  20
ENDBRANCH   1  17
BRANCH  15  21
ATOM     21  C13 UNL     1       9.078   7.218  26.579  0.00  0.00    +0.131 C 
BRANCH  21  22
ATOM     22  C14 UNL     1       7.887   6.259  26.352  0.00  0.00    +0.024 C 
ATOM     23  C15 UNL     1       6.901   6.278  27.510  0.00  0.00    +0.022 C 
ATOM     24  C16 UNL     1       7.322   5.128  28.420  0.00  0.00    +0.085 C 
ATOM     25  N7  UNL     1       8.357   4.348  27.719  0.00  0.00    -0.302 NA
ATOM     26  C19 UNL     1       8.351   4.810  26.325  0.00  0.00    +0.089 C 
BRANCH  25  27
ATOM     27  C17 UNL     1       8.127   2.895  27.839  0.00  0.00    +0.081 C 
ATOM     28  C18 UNL     1       7.161   2.404  26.764  0.00  0.00    +0.020 C 
ENDBRANCH  25  27
ENDBRANCH  21  22
ENDBRANCH  15  21
TORSDOF 5
ENDMDL
