MODEL 1
REMARK VINA RESULT:    -7.142      0.000      0.000
REMARK INTER + INTRA:          -9.504
REMARK INTER:                  -8.813
REMARK INTRA:                  -0.691
REMARK UNBOUND:                -0.691
REMARK  Name = /home/qwerty/github/datacon2025hack/step_04_hit_selection/docking/ligands/lig_102.pdb
REMARK  6 active torsions:
REMARK  status: ('A' for Active; 'I' for Inactive)
REMARK    1  A    between atoms: C1_1  and  C2_2
REMARK    2  A    between atoms: C2_2  and  C3_3
REMARK    3  A    between atoms: C2_2  and  C4_4
REMARK    4  A    between atoms: C7_7  and  N1_8
REMARK    5  A    between atoms: C10_11  and  C11_12
REMARK    6  A    between atoms: C12_14  and  C13_15
REMARK                            x       y       z     vdW  Elec       q    Type
REMARK                         _______ _______ _______ _____ _____    ______ ____
ROOT
ATOM      1  N1  UNL     1      23.597  16.017  23.437  0.00  0.00    -0.271 N 
ATOM      2  C8  UNL     1      24.850  15.763  22.741  0.00  0.00    +0.115 C 
ATOM      3  C9  UNL     1      24.687  16.353  21.326  0.00  0.00    +0.042 C 
ATOM      4  C10 UNL     1      23.208  16.749  21.167  0.00  0.00    +0.165 C 
ATOM      5  C18 UNL     1      22.678  16.621  22.541  0.00  0.00    +0.232 C 
ATOM      6  O2  UNL     1      21.545  17.048  22.893  0.00  0.00    -0.274 OA
ENDROOT
BRANCH   1  10
ATOM      7  C4  UNL     1      22.697  14.602  27.362  0.00  0.00    -0.045 A 
ATOM      8  C5  UNL     1      23.365  13.780  26.440  0.00  0.00    +0.006 A 
ATOM      9  C6  UNL     1      23.658  14.246  25.155  0.00  0.00    +0.024 A 
ATOM     10  C7  UNL     1      23.300  15.547  24.768  0.00  0.00    +0.036 A 
ATOM     11  C19 UNL     1      22.622  16.367  25.686  0.00  0.00    +0.024 A 
ATOM     12  C20 UNL     1      22.328  15.901  26.971  0.00  0.00    +0.006 A 
BRANCH   7  14
ATOM     13  C1  UNL     1      23.604  13.375  29.362  0.00  0.00    +0.012 C 
ATOM     14  C2  UNL     1      22.388  14.085  28.756  0.00  0.00    +0.013 C 
ATOM     15  C3  UNL     1      21.896  15.213  29.671  0.00  0.00    +0.012 C 
ENDBRANCH   7  14
ENDBRANCH   1  10
BRANCH   4  16
ATOM     16  C11 UNL     1      22.476  15.818  20.245  0.00  0.00    +0.240 A 
ATOM     17  N2  UNL     1      21.961  14.633  20.627  0.00  0.00    -0.191 NA
ATOM     18  C12 UNL     1      21.429  14.188  19.469  0.00  0.00    +0.204 A 
ATOM     19  N4  UNL     1      21.616  15.053  18.451  0.00  0.00    -0.056 NA
ATOM     20  O1  UNL     1      22.268  16.047  18.972  0.00  0.00    -0.337 OA
BRANCH  18  21
ATOM     21  C13 UNL     1      20.729  12.894  19.329  0.00  0.00    +0.042 A 
ATOM     22  C14 UNL     1      21.452  11.695  19.210  0.00  0.00    +0.122 A 
ATOM     23  N3  UNL     1      20.798  10.509  19.086  0.00  0.00    -0.261 NA
ATOM     24  C15 UNL     1      19.440  10.437  19.074  0.00  0.00    +0.130 A 
ATOM     25  C16 UNL     1      18.678  11.601  19.188  0.00  0.00    +0.060 A 
ATOM     26 CL1  UNL     1      16.926  11.519  19.173  0.00  0.00    -0.082 Cl
ATOM     27  C17 UNL     1      19.326  12.834  19.315  0.00  0.00    +0.034 A 
ENDBRANCH  18  21
ENDBRANCH   4  16
TORSDOF 4
ENDMDL
MODEL 2
REMARK VINA RESULT:    -6.933      2.963      7.763
REMARK INTER + INTRA:          -9.245
REMARK INTER:                  -8.370
REMARK INTRA:                  -0.875
REMARK UNBOUND:                -0.691
REMARK  Name = /home/qwerty/github/datacon2025hack/step_04_hit_selection/docking/ligands/lig_102.pdb
REMARK  6 active torsions:
REMARK  status: ('A' for Active; 'I' for Inactive)
REMARK    1  A    between atoms: C1_1  and  C2_2
REMARK    2  A    between atoms: C2_2  and  C3_3
REMARK    3  A    between atoms: C2_2  and  C4_4
REMARK    4  A    between atoms: C7_7  and  N1_8
REMARK    5  A    between atoms: C10_11  and  C11_12
REMARK    6  A    between atoms: C12_14  and  C13_15
REMARK                            x       y       z     vdW  Elec       q    Type
REMARK                         _______ _______ _______ _____ _____    ______ ____
ROOT
ATOM      1  N1  UNL     1      21.803  14.096  19.953  0.00  0.00    -0.271 N 
ATOM      2  C8  UNL     1      21.647  15.520  19.694  0.00  0.00    +0.115 C 
ATOM      3  C9  UNL     1      22.997  16.176  20.046  0.00  0.00    +0.042 C 
ATOM      4  C10 UNL     1      23.857  15.101  20.737  0.00  0.00    +0.165 C 
ATOM      5  C18 UNL     1      23.087  13.861  20.509  0.00  0.00    +0.232 C 
ATOM      6  O2  UNL     1      23.542  12.707  20.739  0.00  0.00    -0.274 OA
ENDROOT
BRANCH   1  10
ATOM      7  C4  UNL     1      18.664  11.222  19.630  0.00  0.00    -0.045 A 
ATOM      8  C5  UNL     1      18.603  12.244  20.590  0.00  0.00    +0.006 A 
ATOM      9  C6  UNL     1      19.633  13.185  20.694  0.00  0.00    +0.024 A 
ATOM     10  C7  UNL     1      20.741  13.129  19.833  0.00  0.00    +0.036 A 
ATOM     11  C19 UNL     1      20.808  12.100  18.879  0.00  0.00    +0.024 A 
ATOM     12  C20 UNL     1      19.779  11.159  18.775  0.00  0.00    +0.006 A 
BRANCH   7  14
ATOM     13  C1  UNL     1      17.377   9.428  20.834  0.00  0.00    +0.012 C 
ATOM     14  C2  UNL     1      17.537  10.210  19.525  0.00  0.00    +0.013 C 
ATOM     15  C3  UNL     1      16.221  10.883  19.121  0.00  0.00    +0.012 C 
ENDBRANCH   7  14
ENDBRANCH   1  10
BRANCH   4  16
ATOM     16  C11 UNL     1      23.995  15.358  22.208  0.00  0.00    +0.240 A 
ATOM     17  N2  UNL     1      23.121  14.918  23.133  0.00  0.00    -0.191 NA
ATOM     18  C12 UNL     1      23.669  15.401  24.270  0.00  0.00    +0.204 A 
ATOM     19  N4  UNL     1      24.804  16.091  24.039  0.00  0.00    -0.056 NA
ATOM     20  O1  UNL     1      24.971  16.042  22.753  0.00  0.00    -0.337 OA
BRANCH  18  21
ATOM     21  C13 UNL     1      23.085  15.203  25.613  0.00  0.00    +0.042 A 
ATOM     22  C14 UNL     1      21.911  15.876  25.992  0.00  0.00    +0.122 A 
ATOM     23  N3  UNL     1      21.380  15.684  27.229  0.00  0.00    -0.261 NA
ATOM     24  C15 UNL     1      21.954  14.846  28.134  0.00  0.00    +0.130 A 
ATOM     25  C16 UNL     1      23.122  14.156  27.803  0.00  0.00    +0.060 A 
ATOM     26 CL1  UNL     1      23.869  13.073  28.963  0.00  0.00    -0.082 Cl
ATOM     27  C17 UNL     1      23.689  14.337  26.538  0.00  0.00    +0.034 A 
ENDBRANCH  18  21
ENDBRANCH   4  16
TORSDOF 4
ENDMDL
MODEL 3
REMARK VINA RESULT:    -6.861     11.814     15.401
REMARK INTER + INTRA:          -9.157
REMARK INTER:                  -8.216
REMARK INTRA:                  -0.941
REMARK UNBOUND:                -0.691
REMARK  Name = /home/qwerty/github/datacon2025hack/step_04_hit_selection/docking/ligands/lig_102.pdb
REMARK  6 active torsions:
REMARK  status: ('A' for Active; 'I' for Inactive)
REMARK    1  A    between atoms: C1_1  and  C2_2
REMARK    2  A    between atoms: C2_2  and  C3_3
REMARK    3  A    between atoms: C2_2  and  C4_4
REMARK    4  A    between atoms: C7_7  and  N1_8
REMARK    5  A    between atoms: C10_11  and  C11_12
REMARK    6  A    between atoms: C12_14  and  C13_15
REMARK                            x       y       z     vdW  Elec       q    Type
REMARK                         _______ _______ _______ _____ _____    ______ ____
ROOT
ATOM      1  N1  UNL     1      21.946   1.765  27.731  0.00  0.00    -0.271 N 
ATOM      2  C8  UNL     1      23.259   1.310  28.164  0.00  0.00    +0.115 C 
ATOM      3  C9  UNL     1      23.032   0.483  29.444  0.00  0.00    +0.042 C 
ATOM      4  C10 UNL     1      21.560   0.675  29.854  0.00  0.00    +0.165 C 
ATOM      5  C18 UNL     1      20.974   1.359  28.681  0.00  0.00    +0.232 C 
ATOM      6  O2  UNL     1      19.734   1.521  28.518  0.00  0.00    -0.274 OA
ENDROOT
BRANCH   1  10
ATOM      7  C4  UNL     1      21.301   4.349  24.396  0.00  0.00    -0.045 A 
ATOM      8  C5  UNL     1      20.834   3.025  24.376  0.00  0.00    +0.006 A 
ATOM      9  C6  UNL     1      21.046   2.180  25.470  0.00  0.00    +0.024 A 
ATOM     10  C7  UNL     1      21.721   2.645  26.611  0.00  0.00    +0.036 A 
ATOM     11  C19 UNL     1      22.199   3.966  26.627  0.00  0.00    +0.024 A 
ATOM     12  C20 UNL     1      21.987   4.811  25.533  0.00  0.00    +0.006 A 
BRANCH   7  14
ATOM     13  C1  UNL     1      22.288   6.131  22.920  0.00  0.00    +0.012 C 
ATOM     14  C2  UNL     1      21.061   5.257  23.202  0.00  0.00    +0.013 C 
ATOM     15  C3  UNL     1      20.661   4.450  21.962  0.00  0.00    +0.012 C 
ENDBRANCH   7  14
ENDBRANCH   1  10
BRANCH   4  16
ATOM     16  C11 UNL     1      21.427   1.541  31.072  0.00  0.00    +0.240 A 
ATOM     17  N2  UNL     1      22.079   2.707  31.240  0.00  0.00    -0.191 NA
ATOM     18  C12 UNL     1      21.643   3.084  32.461  0.00  0.00    +0.204 A 
ATOM     19  N4  UNL     1      20.781   2.194  32.995  0.00  0.00    -0.056 NA
ATOM     20  O1  UNL     1      20.675   1.255  32.106  0.00  0.00    -0.337 OA
BRANCH  18  21
ATOM     21  C13 UNL     1      22.069   4.326  33.140  0.00  0.00    +0.042 A 
ATOM     22  C14 UNL     1      21.279   4.898  34.152  0.00  0.00    +0.122 A 
ATOM     23  N3  UNL     1      21.682   6.040  34.772  0.00  0.00    -0.261 NA
ATOM     24  C15 UNL     1      22.846   6.661  34.444  0.00  0.00    +0.130 A 
ATOM     25  C16 UNL     1      23.663   6.131  33.444  0.00  0.00    +0.060 A 
ATOM     26 CL1  UNL     1      25.166   6.926  33.014  0.00  0.00    -0.082 Cl
ATOM     27  C17 UNL     1      23.272   4.960  32.789  0.00  0.00    +0.034 A 
ENDBRANCH  18  21
ENDBRANCH   4  16
TORSDOF 4
ENDMDL
MODEL 4
REMARK VINA RESULT:    -6.696     13.629     16.460
REMARK INTER + INTRA:          -8.952
REMARK INTER:                  -7.944
REMARK INTRA:                  -1.009
REMARK UNBOUND:                -0.691
REMARK  Name = /home/qwerty/github/datacon2025hack/step_04_hit_selection/docking/ligands/lig_102.pdb
REMARK  6 active torsions:
REMARK  status: ('A' for Active; 'I' for Inactive)
REMARK    1  A    between atoms: C1_1  and  C2_2
REMARK    2  A    between atoms: C2_2  and  C3_3
REMARK    3  A    between atoms: C2_2  and  C4_4
REMARK    4  A    between atoms: C7_7  and  N1_8
REMARK    5  A    between atoms: C10_11  and  C11_12
REMARK    6  A    between atoms: C12_14  and  C13_15
REMARK                            x       y       z     vdW  Elec       q    Type
REMARK                         _______ _______ _______ _____ _____    ______ ____
ROOT
ATOM      1  N1  UNL     1       8.785  11.734  27.626  0.00  0.00    -0.271 N 
ATOM      2  C8  UNL     1       7.932  12.901  27.795  0.00  0.00    +0.115 C 
ATOM      3  C9  UNL     1       8.870  14.124  27.820  0.00  0.00    +0.042 C 
ATOM      4  C10 UNL     1      10.312  13.588  27.890  0.00  0.00    +0.165 C 
ATOM      5  C18 UNL     1      10.143  12.141  27.637  0.00  0.00    +0.232 C 
ATOM      6  O2  UNL     1      11.104  11.358  27.407  0.00  0.00    -0.274 OA
ENDROOT
BRANCH   1  10
ATOM      7  C4  UNL     1       7.341   7.717  27.644  0.00  0.00    -0.045 A 
ATOM      8  C5  UNL     1       7.571   8.389  26.434  0.00  0.00    +0.006 A 
ATOM      9  C6  UNL     1       8.044   9.706  26.430  0.00  0.00    +0.024 A 
ATOM     10  C7  UNL     1       8.307  10.373  27.638  0.00  0.00    +0.036 A 
ATOM     11  C19 UNL     1       8.067   9.704  28.849  0.00  0.00    +0.024 A 
ATOM     12  C20 UNL     1       7.594   8.389  28.853  0.00  0.00    +0.006 A 
BRANCH   7  14
ATOM     13  C1  UNL     1       7.711   5.395  26.747  0.00  0.00    +0.012 C 
ATOM     14  C2  UNL     1       6.832   6.286  27.633  0.00  0.00    +0.013 C 
ATOM     15  C3  UNL     1       6.731   5.721  29.055  0.00  0.00    +0.012 C 
ENDBRANCH   7  14
ENDBRANCH   1  10
BRANCH   4  16
ATOM     16  C11 UNL     1      10.924  13.806  29.242  0.00  0.00    +0.240 A 
ATOM     17  N2  UNL     1      10.472  13.231  30.373  0.00  0.00    -0.191 NA
ATOM     18  C12 UNL     1      11.327  13.735  31.289  0.00  0.00    +0.204 A 
ATOM     19  N4  UNL     1      12.238  14.564  30.739  0.00  0.00    -0.056 NA
ATOM     20  O1  UNL     1      11.954  14.582  29.473  0.00  0.00    -0.337 OA
BRANCH  18  21
ATOM     21  C13 UNL     1      11.266  13.420  32.732  0.00  0.00    +0.042 A 
ATOM     22  C14 UNL     1      11.007  14.427  33.676  0.00  0.00    +0.122 A 
ATOM     23  N3  UNL     1      10.949  14.126  35.001  0.00  0.00    -0.261 NA
ATOM     24  C15 UNL     1      11.137  12.858  35.457  0.00  0.00    +0.130 A 
ATOM     25  C16 UNL     1      11.399  11.824  34.557  0.00  0.00    +0.060 A 
ATOM     26 CL1  UNL     1      11.642  10.186  35.135  0.00  0.00    -0.082 Cl
ATOM     27  C17 UNL     1      11.465  12.107  33.189  0.00  0.00    +0.034 A 
ENDBRANCH  18  21
ENDBRANCH   4  16
TORSDOF 4
ENDMDL
MODEL 5
REMARK VINA RESULT:    -6.691     12.130     13.844
REMARK INTER + INTRA:          -8.946
REMARK INTER:                  -7.944
REMARK INTRA:                  -1.002
REMARK UNBOUND:                -0.691
REMARK  Name = /home/qwerty/github/datacon2025hack/step_04_hit_selection/docking/ligands/lig_102.pdb
REMARK  6 active torsions:
REMARK  status: ('A' for Active; 'I' for Inactive)
REMARK    1  A    between atoms: C1_1  and  C2_2
REMARK    2  A    between atoms: C2_2  and  C3_3
REMARK    3  A    between atoms: C2_2  and  C4_4
REMARK    4  A    between atoms: C7_7  and  N1_8
REMARK    5  A    between atoms: C10_11  and  C11_12
REMARK    6  A    between atoms: C12_14  and  C13_15
REMARK                            x       y       z     vdW  Elec       q    Type
REMARK                         _______ _______ _______ _____ _____    ______ ____
ROOT
ATOM      1  N1  UNL     1       9.904  13.108  29.201  0.00  0.00    -0.271 N 
ATOM      2  C8  UNL     1       8.649  13.802  28.946  0.00  0.00    +0.115 C 
ATOM      3  C9  UNL     1       7.525  12.804  29.288  0.00  0.00    +0.042 C 
ATOM      4  C10 UNL     1       8.190  11.436  29.528  0.00  0.00    +0.165 C 
ATOM      5  C18 UNL     1       9.630  11.769  29.575  0.00  0.00    +0.232 C 
ATOM      6  O2  UNL     1      10.518  10.959  29.956  0.00  0.00    -0.274 OA
ENDROOT
BRANCH   1  10
ATOM      7  C4  UNL     1      13.769  14.717  28.373  0.00  0.00    -0.045 A 
ATOM      8  C5  UNL     1      12.966  14.216  27.337  0.00  0.00    +0.006 A 
ATOM      9  C6  UNL     1      11.699  13.690  27.610  0.00  0.00    +0.024 A 
ATOM     10  C7  UNL     1      11.206  13.663  28.925  0.00  0.00    +0.036 A 
ATOM     11  C19 UNL     1      12.014  14.154  29.964  0.00  0.00    +0.024 A 
ATOM     12  C20 UNL     1      13.280  14.680  29.691  0.00  0.00    +0.006 A 
BRANCH   7  14
ATOM     13  C1  UNL     1      15.772  15.917  29.309  0.00  0.00    +0.012 C 
ATOM     14  C2  UNL     1      15.141  15.290  28.061  0.00  0.00    +0.013 C 
ATOM     15  C3  UNL     1      16.062  14.226  27.453  0.00  0.00    +0.012 C 
ENDBRANCH   7  14
ENDBRANCH   1  10
BRANCH   4  16
ATOM     16  C11 UNL     1       7.920  10.479  28.405  0.00  0.00    +0.240 A 
ATOM     17  N2  UNL     1       8.379  10.645  27.149  0.00  0.00    -0.191 NA
ATOM     18  C12 UNL     1       7.873   9.555  26.534  0.00  0.00    +0.204 A 
ATOM     19  N4  UNL     1       7.151   8.781  27.370  0.00  0.00    -0.056 NA
ATOM     20  O1  UNL     1       7.204   9.387  28.516  0.00  0.00    -0.337 OA
BRANCH  18  21
ATOM     21  C13 UNL     1       8.079   9.248  25.102  0.00  0.00    +0.042 A 
ATOM     22  C14 UNL     1       8.464   7.961  24.692  0.00  0.00    +0.122 A 
ATOM     23  N3  UNL     1       8.648   7.689  23.372  0.00  0.00    -0.261 NA
ATOM     24  C15 UNL     1       8.468   8.636  22.413  0.00  0.00    +0.130 A 
ATOM     25  C16 UNL     1       8.087   9.930  22.772  0.00  0.00    +0.060 A 
ATOM     26 CL1  UNL     1       7.853  11.159  21.543  0.00  0.00    -0.082 Cl
ATOM     27  C17 UNL     1       7.893  10.237  24.123  0.00  0.00    +0.034 A 
ENDBRANCH  18  21
ENDBRANCH   4  16
TORSDOF 4
ENDMDL
MODEL 6
REMARK VINA RESULT:    -6.615     13.985     15.351
REMARK INTER + INTRA:          -8.852
REMARK INTER:                  -7.879
REMARK INTRA:                  -0.974
REMARK UNBOUND:                -0.691
REMARK  Name = /home/qwerty/github/datacon2025hack/step_04_hit_selection/docking/ligands/lig_102.pdb
REMARK  6 active torsions:
REMARK  status: ('A' for Active; 'I' for Inactive)
REMARK    1  A    between atoms: C1_1  and  C2_2
REMARK    2  A    between atoms: C2_2  and  C3_3
REMARK    3  A    between atoms: C2_2  and  C4_4
REMARK    4  A    between atoms: C7_7  and  N1_8
REMARK    5  A    between atoms: C10_11  and  C11_12
REMARK    6  A    between atoms: C12_14  and  C13_15
REMARK                            x       y       z     vdW  Elec       q    Type
REMARK                         _______ _______ _______ _____ _____    ______ ____
ROOT
ATOM      1  N1  UNL     1      21.076   1.112  30.333  0.00  0.00    -0.271 N 
ATOM      2  C8  UNL     1      21.823  -0.078  29.952  0.00  0.00    +0.115 C 
ATOM      3  C9  UNL     1      22.522   0.257  28.619  0.00  0.00    +0.042 C 
ATOM      4  C10 UNL     1      21.959   1.607  28.138  0.00  0.00    +0.165 C 
ATOM      5  C18 UNL     1      21.196   2.086  29.310  0.00  0.00    +0.232 C 
ATOM      6  O2  UNL     1      20.740   3.258  29.411  0.00  0.00    -0.274 OA
ENDROOT
BRANCH   1  10
ATOM      7  C4  UNL     1      18.534   1.328  33.755  0.00  0.00    -0.045 A 
ATOM      8  C5  UNL     1      19.779   1.975  33.746  0.00  0.00    +0.006 A 
ATOM      9  C6  UNL     1      20.611   1.903  32.624  0.00  0.00    +0.024 A 
ATOM     10  C7  UNL     1      20.209   1.190  31.482  0.00  0.00    +0.036 A 
ATOM     11  C19 UNL     1      18.967   0.533  31.494  0.00  0.00    +0.024 A 
ATOM     12  C20 UNL     1      18.136   0.605  32.616  0.00  0.00    +0.006 A 
BRANCH   7  14
ATOM     13  C1  UNL     1      16.913   0.091  35.228  0.00  0.00    +0.012 C 
ATOM     14  C2  UNL     1      17.639   1.418  34.979  0.00  0.00    +0.013 C 
ATOM     15  C3  UNL     1      18.433   1.852  36.216  0.00  0.00    +0.012 C 
ENDBRANCH   7  14
ENDBRANCH   1  10
BRANCH   4  16
ATOM     16  C11 UNL     1      21.044   1.443  26.961  0.00  0.00    +0.240 A 
ATOM     17  N2  UNL     1      19.946   0.663  26.966  0.00  0.00    -0.191 NA
ATOM     18  C12 UNL     1      19.485   0.844  25.709  0.00  0.00    +0.204 A 
ATOM     19  N4  UNL     1      20.263   1.681  24.992  0.00  0.00    -0.056 NA
ATOM     20  O1  UNL     1      21.216   2.028  25.801  0.00  0.00    -0.337 OA
BRANCH  18  21
ATOM     21  C13 UNL     1      18.271   0.190  25.176  0.00  0.00    +0.042 A 
ATOM     22  C14 UNL     1      17.195  -0.125  26.023  0.00  0.00    +0.122 A 
ATOM     23  N3  UNL     1      16.081  -0.723  25.522  0.00  0.00    -0.261 NA
ATOM     24  C15 UNL     1      15.966  -1.034  24.203  0.00  0.00    +0.130 A 
ATOM     25  C16 UNL     1      17.010  -0.742  23.323  0.00  0.00    +0.060 A 
ATOM     26 CL1  UNL     1      16.871  -1.140  21.620  0.00  0.00    -0.082 Cl
ATOM     27  C17 UNL     1      18.167  -0.129  23.812  0.00  0.00    +0.034 A 
ENDBRANCH  18  21
ENDBRANCH   4  16
TORSDOF 4
ENDMDL
MODEL 7
REMARK VINA RESULT:    -6.603     12.728     15.172
REMARK INTER + INTRA:          -8.838
REMARK INTER:                  -8.322
REMARK INTRA:                  -0.516
REMARK UNBOUND:                -0.691
REMARK  Name = /home/qwerty/github/datacon2025hack/step_04_hit_selection/docking/ligands/lig_102.pdb
REMARK  6 active torsions:
REMARK  status: ('A' for Active; 'I' for Inactive)
REMARK    1  A    between atoms: C1_1  and  C2_2
REMARK    2  A    between atoms: C2_2  and  C3_3
REMARK    3  A    between atoms: C2_2  and  C4_4
REMARK    4  A    between atoms: C7_7  and  N1_8
REMARK    5  A    between atoms: C10_11  and  C11_12
REMARK    6  A    between atoms: C12_14  and  C13_15
REMARK                            x       y       z     vdW  Elec       q    Type
REMARK                         _______ _______ _______ _____ _____    ______ ____
ROOT
ATOM      1  N1  UNL     1      19.855  11.350  34.262  0.00  0.00    -0.271 N 
ATOM      2  C8  UNL     1      19.015  11.383  33.074  0.00  0.00    +0.115 C 
ATOM      3  C9  UNL     1      18.186  12.679  33.164  0.00  0.00    +0.042 C 
ATOM      4  C10 UNL     1      18.419  13.269  34.567  0.00  0.00    +0.165 C 
ATOM      5  C18 UNL     1      19.538  12.457  35.090  0.00  0.00    +0.232 C 
ATOM      6  O2  UNL     1      20.177  12.745  36.138  0.00  0.00    -0.274 OA
ENDROOT
BRANCH   1  10
ATOM      7  C4  UNL     1      22.420   8.087  35.261  0.00  0.00    -0.045 A 
ATOM      8  C5  UNL     1      22.467   8.670  33.984  0.00  0.00    +0.006 A 
ATOM      9  C6  UNL     1      21.626   9.739  33.660  0.00  0.00    +0.024 A 
ATOM     10  C7  UNL     1      20.727  10.254  34.608  0.00  0.00    +0.036 A 
ATOM     11  C19 UNL     1      20.672   9.664  35.882  0.00  0.00    +0.024 A 
ATOM     12  C20 UNL     1      21.512   8.596  36.207  0.00  0.00    +0.006 A 
BRANCH   7  14
ATOM     13  C1  UNL     1      23.295   6.611  37.100  0.00  0.00    +0.012 C 
ATOM     14  C2  UNL     1      23.342   6.930  35.601  0.00  0.00    +0.013 C 
ATOM     15  C3  UNL     1      23.010   5.689  34.764  0.00  0.00    +0.012 C 
ENDBRANCH   7  14
ENDBRANCH   1  10
BRANCH   4  16
ATOM     16  C11 UNL     1      17.214  13.111  35.447  0.00  0.00    +0.240 A 
ATOM     17  N2  UNL     1      15.945  13.157  34.999  0.00  0.00    -0.191 NA
ATOM     18  C12 UNL     1      15.251  12.974  36.143  0.00  0.00    +0.204 A 
ATOM     19  N4  UNL     1      16.057  12.829  37.215  0.00  0.00    -0.056 NA
ATOM     20  O1  UNL     1      17.262  12.921  36.742  0.00  0.00    -0.337 OA
BRANCH  18  21
ATOM     21  C13 UNL     1      13.775  12.946  36.214  0.00  0.00    +0.042 A 
ATOM     22  C14 UNL     1      13.011  14.012  35.710  0.00  0.00    +0.122 A 
ATOM     23  N3  UNL     1      11.653  13.975  35.777  0.00  0.00    -0.261 NA
ATOM     24  C15 UNL     1      10.991  12.921  36.325  0.00  0.00    +0.130 A 
ATOM     25  C16 UNL     1      11.707  11.838  36.840  0.00  0.00    +0.060 A 
ATOM     26 CL1  UNL     1      10.863  10.474  37.549  0.00  0.00    -0.082 Cl
ATOM     27  C17 UNL     1      13.104  11.852  36.785  0.00  0.00    +0.034 A 
ENDBRANCH  18  21
ENDBRANCH   4  16
TORSDOF 4
ENDMDL
MODEL 8
REMARK VINA RESULT:    -6.574      2.699      3.242
REMARK INTER + INTRA:          -8.802
REMARK INTER:                  -7.838
REMARK INTRA:                  -0.964
REMARK UNBOUND:                -0.691
REMARK  Name = /home/qwerty/github/datacon2025hack/step_04_hit_selection/docking/ligands/lig_102.pdb
REMARK  6 active torsions:
REMARK  status: ('A' for Active; 'I' for Inactive)
REMARK    1  A    between atoms: C1_1  and  C2_2
REMARK    2  A    between atoms: C2_2  and  C3_3
REMARK    3  A    between atoms: C2_2  and  C4_4
REMARK    4  A    between atoms: C7_7  and  N1_8
REMARK    5  A    between atoms: C10_11  and  C11_12
REMARK    6  A    between atoms: C12_14  and  C13_15
REMARK                            x       y       z     vdW  Elec       q    Type
REMARK                         _______ _______ _______ _____ _____    ______ ____
ROOT
ATOM      1  N1  UNL     1      23.498  15.608  23.451  0.00  0.00    -0.271 N 
ATOM      2  C8  UNL     1      24.827  15.987  22.994  0.00  0.00    +0.115 C 
ATOM      3  C9  UNL     1      24.759  16.037  21.455  0.00  0.00    +0.042 C 
ATOM      4  C10 UNL     1      23.398  15.446  21.041  0.00  0.00    +0.165 C 
ATOM      5  C18 UNL     1      22.675  15.343  22.327  0.00  0.00    +0.232 C 
ATOM      6  O2  UNL     1      21.442  15.093  22.413  0.00  0.00    -0.274 OA
ENDROOT
BRANCH   1  10
ATOM      7  C4  UNL     1      22.500  14.917  27.543  0.00  0.00    -0.045 A 
ATOM      8  C5  UNL     1      22.133  16.115  26.909  0.00  0.00    +0.006 A 
ATOM      9  C6  UNL     1      22.461  16.339  25.568  0.00  0.00    +0.024 A 
ATOM     10  C7  UNL     1      23.154  15.365  24.830  0.00  0.00    +0.036 A 
ATOM     11  C19 UNL     1      23.531  14.171  25.467  0.00  0.00    +0.024 A 
ATOM     12  C20 UNL     1      23.203  13.947  26.807  0.00  0.00    +0.006 A 
BRANCH   7  14
ATOM     13  C1  UNL     1      20.665  14.267  29.137  0.00  0.00    +0.012 C 
ATOM     14  C2  UNL     1      22.134  14.685  28.998  0.00  0.00    +0.013 C 
ATOM     15  C3  UNL     1      23.063  13.654  29.648  0.00  0.00    +0.012 C 
ENDBRANCH   7  14
ENDBRANCH   1  10
BRANCH   4  16
ATOM     16  C11 UNL     1      23.544  14.087  20.423  0.00  0.00    +0.240 A 
ATOM     17  N2  UNL     1      23.718  12.954  21.131  0.00  0.00    -0.191 NA
ATOM     18  C12 UNL     1      23.801  12.034  20.146  0.00  0.00    +0.204 A 
ATOM     19  N4  UNL     1      23.685  12.583  18.920  0.00  0.00    -0.056 NA
ATOM     20  O1  UNL     1      23.529  13.853  19.134  0.00  0.00    -0.337 OA
BRANCH  18  21
ATOM     21  C13 UNL     1      24.004  10.589  20.385  0.00  0.00    +0.042 A 
ATOM     22  C14 UNL     1      25.292  10.029  20.339  0.00  0.00    +0.122 A 
ATOM     23  N3  UNL     1      25.469   8.699  20.564  0.00  0.00    -0.261 NA
ATOM     24  C15 UNL     1      24.424   7.873  20.838  0.00  0.00    +0.130 A 
ATOM     25  C16 UNL     1      23.126   8.384  20.892  0.00  0.00    +0.060 A 
ATOM     26 CL1  UNL     1      21.771   7.326  21.244  0.00  0.00    -0.082 Cl
ATOM     27  C17 UNL     1      22.916   9.747  20.663  0.00  0.00    +0.034 A 
ENDBRANCH  18  21
ENDBRANCH   4  16
TORSDOF 4
ENDMDL
MODEL 9
REMARK VINA RESULT:    -6.506     13.253     15.691
REMARK INTER + INTRA:          -8.718
REMARK INTER:                  -7.799
REMARK INTRA:                  -0.919
REMARK UNBOUND:                -0.691
REMARK  Name = /home/qwerty/github/datacon2025hack/step_04_hit_selection/docking/ligands/lig_102.pdb
REMARK  6 active torsions:
REMARK  status: ('A' for Active; 'I' for Inactive)
REMARK    1  A    between atoms: C1_1  and  C2_2
REMARK    2  A    between atoms: C2_2  and  C3_3
REMARK    3  A    between atoms: C2_2  and  C4_4
REMARK    4  A    between atoms: C7_7  and  N1_8
REMARK    5  A    between atoms: C10_11  and  C11_12
REMARK    6  A    between atoms: C12_14  and  C13_15
REMARK                            x       y       z     vdW  Elec       q    Type
REMARK                         _______ _______ _______ _____ _____    ______ ____
ROOT
ATOM      1  N1  UNL     1      16.575  10.655  37.128  0.00  0.00    -0.271 N 
ATOM      2  C8  UNL     1      16.881   9.691  38.176  0.00  0.00    +0.115 C 
ATOM      3  C9  UNL     1      18.414   9.696  38.336  0.00  0.00    +0.042 C 
ATOM      4  C10 UNL     1      18.989  10.533  37.178  0.00  0.00    +0.165 C 
ATOM      5  C18 UNL     1      17.786  11.164  36.594  0.00  0.00    +0.232 C 
ATOM      6  O2  UNL     1      17.832  12.094  35.743  0.00  0.00    -0.274 OA
ENDROOT
BRANCH   1  10
ATOM      7  C4  UNL     1      12.672  11.367  35.556  0.00  0.00    -0.045 A 
ATOM      8  C5  UNL     1      13.431  10.272  35.117  0.00  0.00    +0.006 A 
ATOM      9  C6  UNL     1      14.710  10.040  35.634  0.00  0.00    +0.024 A 
ATOM     10  C7  UNL     1      15.252  10.894  36.608  0.00  0.00    +0.036 A 
ATOM     11  C19 UNL     1      14.497  11.997  37.040  0.00  0.00    +0.024 A 
ATOM     12  C20 UNL     1      13.219  12.229  36.524  0.00  0.00    +0.006 A 
BRANCH   7  14
ATOM     13  C1  UNL     1      10.820  13.043  35.253  0.00  0.00    +0.012 C 
ATOM     14  C2  UNL     1      11.283  11.605  34.990  0.00  0.00    +0.013 C 
ATOM     15  C3  UNL     1      11.229  11.273  33.494  0.00  0.00    +0.012 C 
ENDBRANCH   7  14
ENDBRANCH   1  10
BRANCH   4  16
ATOM     16  C11 UNL     1      19.669   9.675  36.153  0.00  0.00    +0.240 A 
ATOM     17  N2  UNL     1      21.005   9.539  36.053  0.00  0.00    -0.191 NA
ATOM     18  C12 UNL     1      21.110   8.695  35.004  0.00  0.00    +0.204 A 
ATOM     19  N4  UNL     1      19.908   8.347  34.503  0.00  0.00    -0.056 NA
ATOM     20  O1  UNL     1      19.043   8.974  35.240  0.00  0.00    -0.337 OA
BRANCH  18  21
ATOM     21  C13 UNL     1      22.398   8.215  34.460  0.00  0.00    +0.042 A 
ATOM     22  C14 UNL     1      22.930   6.978  34.862  0.00  0.00    +0.122 A 
ATOM     23  N3  UNL     1      24.115   6.544  34.353  0.00  0.00    -0.261 NA
ATOM     24  C15 UNL     1      24.818   7.277  33.449  0.00  0.00    +0.130 A 
ATOM     25  C16 UNL     1      24.330   8.513  33.021  0.00  0.00    +0.060 A 
ATOM     26 CL1  UNL     1      25.231   9.466  31.856  0.00  0.00    -0.082 Cl
ATOM     27  C17 UNL     1      23.116   8.983  33.530  0.00  0.00    +0.034 A 
ENDBRANCH  18  21
ENDBRANCH   4  16
TORSDOF 4
ENDMDL
