MODEL 1
REMARK VINA RESULT:    -7.237      0.000      0.000
REMARK INTER + INTRA:         -10.492
REMARK INTER:                  -9.776
REMARK INTRA:                  -0.716
REMARK UNBOUND:                -0.716
REMARK  Name = /home/qwerty/github/datacon2025hack/step_04_hit_selection/docking/ligands/lig_207.pdb
REMARK  8 active torsions:
REMARK  status: ('A' for Active; 'I' for Inactive)
REMARK    1  A    between atoms: C1_1  and  O1_2
REMARK    2  A    between atoms: O1_2  and  C2_3
REMARK    3  A    between atoms: C2_3  and  C3_5
REMARK    4  A    between atoms: C11_15  and  C12_17
REMARK    5  A    between atoms: C14_19  and  C15_20
REMARK    6  A    between atoms: C17_22  and  C18_23
REMARK    7  A    between atoms: C21_26  and  O5_27
REMARK    8  A    between atoms: O5_27  and  C22_28
REMARK                            x       y       z     vdW  Elec       q    Type
REMARK                         _______ _______ _______ _____ _____    ______ ____
ROOT
ATOM      1  C12 UNL     1      17.641  15.967  27.755  0.00  0.00    +0.121 A 
ATOM      2  C13 UNL     1      16.646  15.337  27.034  0.00  0.00    +0.064 A 
ATOM      3  C14 UNL     1      15.522  15.465  27.829  0.00  0.00    +0.111 A 
ATOM      4  N4  UNL     1      15.829  16.147  28.951  0.00  0.00    -0.172 NA
ATOM      5  N5  UNL     1      17.115  16.451  28.896  0.00  0.00    -0.272 N 
ATOM      6  H21 UNL     1      17.609  17.009  29.626  0.00  0.00    +0.189 HD
ENDROOT
BRANCH   1  17
ATOM      7  C3  UNL     1      23.541  14.575  24.578  0.00  0.00    +0.062 A 
ATOM      8  C4  UNL     1      23.583  15.950  24.844  0.00  0.00    +0.015 A 
ATOM      9  C5  UNL     1      22.927  16.475  25.958  0.00  0.00    +0.009 A 
ATOM     10  C6  UNL     1      22.216  15.639  26.836  0.00  0.00    +0.012 A 
ATOM     11  C7  UNL     1      22.208  14.237  26.599  0.00  0.00    +0.126 A 
ATOM     12  C8  UNL     1      22.850  13.730  25.462  0.00  0.00    +0.061 A 
ATOM     13  O3  UNL     1      21.575  13.306  27.440  0.00  0.00    -0.490 OA
ATOM     14  C9  UNL     1      21.238  13.520  28.809  0.00  0.00    +0.248 C 
ATOM     15  C10 UNL     1      20.014  14.431  28.946  0.00  0.00    +0.149 C 
ATOM     16  N1  UNL     1      20.147  15.647  28.131  0.00  0.00    -0.289 N 
ATOM     17  C11 UNL     1      19.046  16.123  27.329  0.00  0.00    +0.265 C 
ATOM     18  O4  UNL     1      19.280  16.696  26.228  0.00  0.00    -0.268 OA
ATOM     19  C25 UNL     1      21.466  16.271  27.983  0.00  0.00    +0.147 C 
BRANCH   7  20
ATOM     20  C2  UNL     1      24.224  14.024  23.386  0.00  0.00    +0.339 C 
ATOM     21  O2  UNL     1      25.342  14.488  23.024  0.00  0.00    -0.245 OA
BRANCH  20  23
ATOM     22  C1  UNL     1      23.645  12.944  21.233  0.00  0.00    +0.280 C 
ATOM     23  O1  UNL     1      23.629  12.989  22.656  0.00  0.00    -0.464 OA
ENDBRANCH  20  23
ENDBRANCH   7  20
ENDBRANCH   1  17
BRANCH   3  24
ATOM     24  C15 UNL     1      14.182  14.938  27.532  0.00  0.00    +0.086 A 
ATOM     25  C16 UNL     1      13.307  14.390  28.446  0.00  0.00    +0.059 A 
ATOM     26  C17 UNL     1      12.206  14.022  27.686  0.00  0.00    +0.093 A 
ATOM     27  N2  UNL     1      12.427  14.339  26.392  0.00  0.00    -0.173 NA
ATOM     28  N3  UNL     1      13.624  14.894  26.309  0.00  0.00    -0.275 N 
ATOM     29  H20 UNL     1      14.049  15.231  25.415  0.00  0.00    +0.189 HD
BRANCH  26  30
ATOM     30  C18 UNL     1      10.968  13.362  28.171  0.00  0.00    +0.002 A 
ATOM     31  C19 UNL     1      11.052  12.294  29.081  0.00  0.00    +0.013 A 
ATOM     32  C20 UNL     1       9.894  11.669  29.554  0.00  0.00    +0.046 A 
ATOM     33  C21 UNL     1       8.632  12.095  29.127  0.00  0.00    +0.120 A 
ATOM     34  C23 UNL     1       8.541  13.159  28.211  0.00  0.00    +0.046 A 
ATOM     35  C24 UNL     1       9.699  13.786  27.739  0.00  0.00    +0.013 A 
BRANCH  33  36
ATOM     36  O5  UNL     1       7.501  11.437  29.634  0.00  0.00    -0.495 OA
ATOM     37  C22 UNL     1       7.248  10.043  29.483  0.00  0.00    +0.277 C 
ENDBRANCH  33  36
ENDBRANCH  26  30
ENDBRANCH   3  24
TORSDOF 6
ENDMDL
MODEL 2
REMARK VINA RESULT:    -7.235      9.333     12.211
REMARK INTER + INTRA:         -10.488
REMARK INTER:                  -9.787
REMARK INTRA:                  -0.702
REMARK UNBOUND:                -0.716
REMARK  Name = /home/qwerty/github/datacon2025hack/step_04_hit_selection/docking/ligands/lig_207.pdb
REMARK  8 active torsions:
REMARK  status: ('A' for Active; 'I' for Inactive)
REMARK    1  A    between atoms: C1_1  and  O1_2
REMARK    2  A    between atoms: O1_2  and  C2_3
REMARK    3  A    between atoms: C2_3  and  C3_5
REMARK    4  A    between atoms: C11_15  and  C12_17
REMARK    5  A    between atoms: C14_19  and  C15_20
REMARK    6  A    between atoms: C17_22  and  C18_23
REMARK    7  A    between atoms: C21_26  and  O5_27
REMARK    8  A    between atoms: O5_27  and  C22_28
REMARK                            x       y       z     vdW  Elec       q    Type
REMARK                         _______ _______ _______ _____ _____    ______ ____
ROOT
ATOM      1  C12 UNL     1      20.446   6.064  21.706  0.00  0.00    +0.121 A 
ATOM      2  C13 UNL     1      21.117   5.941  22.907  0.00  0.00    +0.064 A 
ATOM      3  C14 UNL     1      20.963   4.609  23.243  0.00  0.00    +0.111 A 
ATOM      4  N4  UNL     1      20.255   3.973  22.288  0.00  0.00    -0.172 NA
ATOM      5  N5  UNL     1      19.949   4.861  21.358  0.00  0.00    -0.272 N 
ATOM      6  H21 UNL     1      19.429   4.629  20.483  0.00  0.00    +0.189 HD
ENDROOT
BRANCH   1  17
ATOM      7  C3  UNL     1      19.667  12.724  20.336  0.00  0.00    +0.062 A 
ATOM      8  C4  UNL     1      20.304  12.189  19.208  0.00  0.00    +0.015 A 
ATOM      9  C5  UNL     1      20.082  10.864  18.832  0.00  0.00    +0.009 A 
ATOM     10  C6  UNL     1      19.216  10.041  19.572  0.00  0.00    +0.012 A 
ATOM     11  C7  UNL     1      18.530  10.589  20.690  0.00  0.00    +0.126 A 
ATOM     12  C8  UNL     1      18.783  11.913  21.068  0.00  0.00    +0.061 A 
ATOM     13  O3  UNL     1      17.602   9.873  21.467  0.00  0.00    -0.490 OA
ATOM     14  C9  UNL     1      16.895   8.707  21.048  0.00  0.00    +0.248 C 
ATOM     15  C10 UNL     1      17.803   7.474  21.048  0.00  0.00    +0.149 C 
ATOM     16  N1  UNL     1      19.069   7.730  20.346  0.00  0.00    -0.289 N 
ATOM     17  C11 UNL     1      20.326   7.301  20.910  0.00  0.00    +0.265 C 
ATOM     18  O4  UNL     1      21.363   7.996  20.719  0.00  0.00    -0.268 OA
ATOM     19  C25 UNL     1      19.071   8.596  19.162  0.00  0.00    +0.147 C 
BRANCH   7  20
ATOM     20  C2  UNL     1      19.918  14.125  20.741  0.00  0.00    +0.339 C 
ATOM     21  O2  UNL     1      19.825  15.057  19.892  0.00  0.00    -0.245 OA
BRANCH  20  23
ATOM     22  C1  UNL     1      21.539  14.113  22.613  0.00  0.00    +0.280 C 
ATOM     23  O1  UNL     1      20.262  14.419  22.065  0.00  0.00    -0.464 OA
ENDBRANCH  20  23
ENDBRANCH   7  20
ENDBRANCH   1  17
BRANCH   3  24
ATOM     24  C15 UNL     1      21.471   3.954  24.458  0.00  0.00    +0.086 A 
ATOM     25  C16 UNL     1      20.708   3.312  25.411  0.00  0.00    +0.059 A 
ATOM     26  C17 UNL     1      21.629   2.891  26.359  0.00  0.00    +0.093 A 
ATOM     27  N2  UNL     1      22.869   3.267  25.978  0.00  0.00    -0.173 NA
ATOM     28  N3  UNL     1      22.764   3.908  24.826  0.00  0.00    -0.275 N 
ATOM     29  H20 UNL     1      23.576   4.312  24.308  0.00  0.00    +0.189 HD
BRANCH  26  30
ATOM     30  C18 UNL     1      21.342   2.158  27.617  0.00  0.00    +0.002 A 
ATOM     31  C19 UNL     1      22.400   1.727  28.435  0.00  0.00    +0.013 A 
ATOM     32  C20 UNL     1      22.144   1.045  29.629  0.00  0.00    +0.046 A 
ATOM     33  C21 UNL     1      20.831   0.777  30.027  0.00  0.00    +0.120 A 
ATOM     34  C23 UNL     1      19.767   1.201  29.209  0.00  0.00    +0.046 A 
ATOM     35  C24 UNL     1      20.021   1.885  28.017  0.00  0.00    +0.013 A 
BRANCH  33  36
ATOM     36  O5  UNL     1      20.628   0.093  31.235  0.00  0.00    -0.495 OA
ATOM     37  C22 UNL     1      20.362   0.729  32.482  0.00  0.00    +0.277 C 
ENDBRANCH  33  36
ENDBRANCH  26  30
ENDBRANCH   3  24
TORSDOF 6
ENDMDL
MODEL 3
REMARK VINA RESULT:    -7.234     12.157     15.673
REMARK INTER + INTRA:         -10.488
REMARK INTER:                  -9.715
REMARK INTRA:                  -0.773
REMARK UNBOUND:                -0.716
REMARK  Name = /home/qwerty/github/datacon2025hack/step_04_hit_selection/docking/ligands/lig_207.pdb
REMARK  8 active torsions:
REMARK  status: ('A' for Active; 'I' for Inactive)
REMARK    1  A    between atoms: C1_1  and  O1_2
REMARK    2  A    between atoms: O1_2  and  C2_3
REMARK    3  A    between atoms: C2_3  and  C3_5
REMARK    4  A    between atoms: C11_15  and  C12_17
REMARK    5  A    between atoms: C14_19  and  C15_20
REMARK    6  A    between atoms: C17_22  and  C18_23
REMARK    7  A    between atoms: C21_26  and  O5_27
REMARK    8  A    between atoms: O5_27  and  C22_28
REMARK                            x       y       z     vdW  Elec       q    Type
REMARK                         _______ _______ _______ _____ _____    ______ ____
ROOT
ATOM      1  C12 UNL     1      17.861   4.120  21.996  0.00  0.00    +0.121 A 
ATOM      2  C13 UNL     1      18.104   3.552  23.230  0.00  0.00    +0.064 A 
ATOM      3  C14 UNL     1      19.480   3.607  23.360  0.00  0.00    +0.111 A 
ATOM      4  N4  UNL     1      20.021   4.191  22.272  0.00  0.00    -0.172 NA
ATOM      5  N5  UNL     1      19.032   4.502  21.452  0.00  0.00    -0.272 N 
ATOM      6  H21 UNL     1      19.168   4.997  20.543  0.00  0.00    +0.189 HD
ENDROOT
BRANCH   1  17
ATOM      7  C3  UNL     1      11.098   3.554  21.107  0.00  0.00    +0.062 A 
ATOM      8  C4  UNL     1      11.460   4.730  20.436  0.00  0.00    +0.015 A 
ATOM      9  C5  UNL     1      12.727   4.858  19.866  0.00  0.00    +0.009 A 
ATOM     10  C6  UNL     1      13.664   3.814  19.952  0.00  0.00    +0.012 A 
ATOM     11  C7  UNL     1      13.289   2.600  20.590  0.00  0.00    +0.126 A 
ATOM     12  C8  UNL     1      12.022   2.498  21.177  0.00  0.00    +0.061 A 
ATOM     13  O3  UNL     1      14.127   1.475  20.685  0.00  0.00    -0.490 OA
ATOM     14  C9  UNL     1      15.243   1.199  19.841  0.00  0.00    +0.248 C 
ATOM     15  C10 UNL     1      16.441   2.085  20.193  0.00  0.00    +0.149 C 
ATOM     16  N1  UNL     1      16.062   3.501  20.292  0.00  0.00    -0.289 N 
ATOM     17  C11 UNL     1      16.531   4.317  21.386  0.00  0.00    +0.265 C 
ATOM     18  O4  UNL     1      15.791   5.234  21.842  0.00  0.00    -0.268 OA
ATOM     19  C25 UNL     1      15.044   4.037  19.382  0.00  0.00    +0.147 C 
BRANCH   7  20
ATOM     20  C2  UNL     1       9.759   3.427  21.723  0.00  0.00    +0.339 C 
ATOM     21  O2  UNL     1       8.796   4.127  21.298  0.00  0.00    -0.245 OA
BRANCH  20  23
ATOM     22  C1  UNL     1       8.822   2.880  23.950  0.00  0.00    +0.280 C 
ATOM     23  O1  UNL     1       9.558   2.534  22.782  0.00  0.00    -0.464 OA
ENDBRANCH  20  23
ENDBRANCH   7  20
ENDBRANCH   1  17
BRANCH   3  24
ATOM     24  C15 UNL     1      20.267   3.103  24.495  0.00  0.00    +0.086 A 
ATOM     25  C16 UNL     1      19.771   2.750  25.732  0.00  0.00    +0.059 A 
ATOM     26  C17 UNL     1      20.892   2.369  26.455  0.00  0.00    +0.093 A 
ATOM     27  N2  UNL     1      21.990   2.493  25.677  0.00  0.00    -0.173 NA
ATOM     28  N3  UNL     1      21.602   2.936  24.493  0.00  0.00    -0.275 N 
ATOM     29  H20 UNL     1      22.255   3.125  23.700  0.00  0.00    +0.189 HD
BRANCH  26  30
ATOM     30  C18 UNL     1      20.931   1.911  27.866  0.00  0.00    +0.002 A 
ATOM     31  C19 UNL     1      19.734   1.628  28.545  0.00  0.00    +0.013 A 
ATOM     32  C20 UNL     1      19.757   1.186  29.872  0.00  0.00    +0.046 A 
ATOM     33  C21 UNL     1      20.971   1.021  30.546  0.00  0.00    +0.120 A 
ATOM     34  C23 UNL     1      22.173   1.309  29.873  0.00  0.00    +0.046 A 
ATOM     35  C24 UNL     1      22.152   1.749  28.546  0.00  0.00    +0.013 A 
BRANCH  33  36
ATOM     36  O5  UNL     1      20.939   0.572  31.875  0.00  0.00    -0.495 OA
ATOM     37  C22 UNL     1      19.751   0.197  32.566  0.00  0.00    +0.277 C 
ENDBRANCH  33  36
ENDBRANCH  26  30
ENDBRANCH   3  24
TORSDOF 6
ENDMDL
MODEL 4
REMARK VINA RESULT:    -7.208      9.653     13.999
REMARK INTER + INTRA:         -10.453
REMARK INTER:                  -9.726
REMARK INTRA:                  -0.727
REMARK UNBOUND:                -0.716
REMARK  Name = /home/qwerty/github/datacon2025hack/step_04_hit_selection/docking/ligands/lig_207.pdb
REMARK  8 active torsions:
REMARK  status: ('A' for Active; 'I' for Inactive)
REMARK    1  A    between atoms: C1_1  and  O1_2
REMARK    2  A    between atoms: O1_2  and  C2_3
REMARK    3  A    between atoms: C2_3  and  C3_5
REMARK    4  A    between atoms: C11_15  and  C12_17
REMARK    5  A    between atoms: C14_19  and  C15_20
REMARK    6  A    between atoms: C17_22  and  C18_23
REMARK    7  A    between atoms: C21_26  and  O5_27
REMARK    8  A    between atoms: O5_27  and  C22_28
REMARK                            x       y       z     vdW  Elec       q    Type
REMARK                         _______ _______ _______ _____ _____    ______ ____
ROOT
ATOM      1  C12 UNL     1      18.925   9.455  36.769  0.00  0.00    +0.121 A 
ATOM      2  C13 UNL     1      19.083   8.476  35.808  0.00  0.00    +0.064 A 
ATOM      3  C14 UNL     1      20.302   7.899  36.113  0.00  0.00    +0.111 A 
ATOM      4  N4  UNL     1      20.830   8.492  37.203  0.00  0.00    -0.172 NA
ATOM      5  N5  UNL     1      19.987   9.431  37.596  0.00  0.00    -0.272 N 
ATOM      6  H21 UNL     1      20.135  10.025  38.442  0.00  0.00    +0.189 HD
ENDROOT
BRANCH   1  17
ATOM      7  C3  UNL     1      13.114  12.656  35.088  0.00  0.00    +0.062 A 
ATOM      8  C4  UNL     1      13.172  12.709  36.488  0.00  0.00    +0.015 A 
ATOM      9  C5  UNL     1      14.402  12.746  37.144  0.00  0.00    +0.009 A 
ATOM     10  C6  UNL     1      15.606  12.733  36.418  0.00  0.00    +0.012 A 
ATOM     11  C7  UNL     1      15.556  12.725  34.998  0.00  0.00    +0.126 A 
ATOM     12  C8  UNL     1      14.313  12.663  34.356  0.00  0.00    +0.061 A 
ATOM     13  O3  UNL     1      16.695  12.764  34.175  0.00  0.00    -0.490 OA
ATOM     14  C9  UNL     1      17.983  13.235  34.565  0.00  0.00    +0.248 C 
ATOM     15  C10 UNL     1      18.700  12.219  35.459  0.00  0.00    +0.149 C 
ATOM     16  N1  UNL     1      17.840  11.757  36.557  0.00  0.00    -0.289 N 
ATOM     17  C11 UNL     1      17.763  10.356  36.896  0.00  0.00    +0.265 C 
ATOM     18  O4  UNL     1      16.674   9.877  37.320  0.00  0.00    -0.268 OA
ATOM     19  C25 UNL     1      16.906  12.699  37.183  0.00  0.00    +0.147 C 
BRANCH   7  20
ATOM     20  C2  UNL     1      11.806  12.600  34.396  0.00  0.00    +0.339 C 
ATOM     21  O2  UNL     1      11.385  11.507  33.922  0.00  0.00    -0.245 OA
BRANCH  20  23
ATOM     22  C1  UNL     1      10.176  14.235  35.292  0.00  0.00    +0.280 C 
ATOM     23  O1  UNL     1      11.037  13.761  34.263  0.00  0.00    -0.464 OA
ENDBRANCH  20  23
ENDBRANCH   7  20
ENDBRANCH   1  17
BRANCH   3  24
ATOM     24  C15 UNL     1      20.959   6.811  35.374  0.00  0.00    +0.086 A 
ATOM     25  C16 UNL     1      20.323   5.820  34.656  0.00  0.00    +0.059 A 
ATOM     26  C17 UNL     1      21.356   5.030  34.173  0.00  0.00    +0.093 A 
ATOM     27  N2  UNL     1      22.538   5.536  34.588  0.00  0.00    -0.173 NA
ATOM     28  N3  UNL     1      22.288   6.613  35.312  0.00  0.00    -0.275 N 
ATOM     29  H20 UNL     1      23.029   7.198  35.762  0.00  0.00    +0.189 HD
BRANCH  26  30
ATOM     30  C18 UNL     1      21.231   3.804  33.346  0.00  0.00    +0.002 A 
ATOM     31  C19 UNL     1      22.060   3.625  32.227  0.00  0.00    +0.013 A 
ATOM     32  C20 UNL     1      21.960   2.470  31.445  0.00  0.00    +0.046 A 
ATOM     33  C21 UNL     1      21.029   1.475  31.761  0.00  0.00    +0.120 A 
ATOM     34  C23 UNL     1      20.191   1.652  32.878  0.00  0.00    +0.046 A 
ATOM     35  C24 UNL     1      20.292   2.806  33.662  0.00  0.00    +0.013 A 
BRANCH  33  36
ATOM     36  O5  UNL     1      20.971   0.335  30.947  0.00  0.00    -0.495 OA
ATOM     37  C22 UNL     1      21.620   0.216  29.685  0.00  0.00    +0.277 C 
ENDBRANCH  33  36
ENDBRANCH  26  30
ENDBRANCH   3  24
TORSDOF 6
ENDMDL
MODEL 5
REMARK VINA RESULT:    -7.134     11.329     13.879
REMARK INTER + INTRA:         -10.352
REMARK INTER:                  -9.579
REMARK INTRA:                  -0.773
REMARK UNBOUND:                -0.716
REMARK  Name = /home/qwerty/github/datacon2025hack/step_04_hit_selection/docking/ligands/lig_207.pdb
REMARK  8 active torsions:
REMARK  status: ('A' for Active; 'I' for Inactive)
REMARK    1  A    between atoms: C1_1  and  O1_2
REMARK    2  A    between atoms: O1_2  and  C2_3
REMARK    3  A    between atoms: C2_3  and  C3_5
REMARK    4  A    between atoms: C11_15  and  C12_17
REMARK    5  A    between atoms: C14_19  and  C15_20
REMARK    6  A    between atoms: C17_22  and  C18_23
REMARK    7  A    between atoms: C21_26  and  O5_27
REMARK    8  A    between atoms: O5_27  and  C22_28
REMARK                            x       y       z     vdW  Elec       q    Type
REMARK                         _______ _______ _______ _____ _____    ______ ____
ROOT
ATOM      1  C12 UNL     1      21.991   4.012  32.505  0.00  0.00    +0.121 A 
ATOM      2  C13 UNL     1      21.220   4.110  31.363  0.00  0.00    +0.064 A 
ATOM      3  C14 UNL     1      21.646   3.055  30.578  0.00  0.00    +0.111 A 
ATOM      4  N4  UNL     1      22.603   2.359  31.224  0.00  0.00    -0.172 NA
ATOM      5  N5  UNL     1      22.803   2.944  32.393  0.00  0.00    -0.272 N 
ATOM      6  H21 UNL     1      23.472   2.589  33.111  0.00  0.00    +0.189 HD
ENDROOT
BRANCH   1  17
ATOM      7  C3  UNL     1      20.514   9.584  36.194  0.00  0.00    +0.062 A 
ATOM      8  C4  UNL     1      20.648   8.549  37.129  0.00  0.00    +0.015 A 
ATOM      9  C5  UNL     1      21.510   7.480  36.883  0.00  0.00    +0.009 A 
ATOM     10  C6  UNL     1      22.262   7.420  35.697  0.00  0.00    +0.012 A 
ATOM     11  C7  UNL     1      22.168   8.489  34.765  0.00  0.00    +0.126 A 
ATOM     12  C8  UNL     1      21.279   9.541  35.016  0.00  0.00    +0.061 A 
ATOM     13  O3  UNL     1      22.914   8.557  33.575  0.00  0.00    -0.490 OA
ATOM     14  C9  UNL     1      24.130   7.858  33.318  0.00  0.00    +0.248 C 
ATOM     15  C10 UNL     1      23.872   6.375  33.037  0.00  0.00    +0.149 C 
ATOM     16  N1  UNL     1      23.001   5.771  34.056  0.00  0.00    -0.289 N 
ATOM     17  C11 UNL     1      21.910   4.906  33.676  0.00  0.00    +0.265 C 
ATOM     18  O4  UNL     1      20.850   4.903  34.363  0.00  0.00    -0.268 OA
ATOM     19  C25 UNL     1      23.122   6.204  35.452  0.00  0.00    +0.147 C 
BRANCH   7  20
ATOM     20  C2  UNL     1      19.587  10.708  36.451  0.00  0.00    +0.339 C 
ATOM     21  O2  UNL     1      18.477  10.498  37.018  0.00  0.00    -0.245 OA
BRANCH  20  23
ATOM     22  C1  UNL     1      19.169  12.764  35.135  0.00  0.00    +0.280 C 
ATOM     23  O1  UNL     1      19.937  12.006  36.063  0.00  0.00    -0.464 OA
ENDBRANCH  20  23
ENDBRANCH   7  20
ENDBRANCH   1  17
BRANCH   3  24
ATOM     24  C15 UNL     1      21.159   2.719  29.232  0.00  0.00    +0.086 A 
ATOM     25  C16 UNL     1      20.153   1.825  28.933  0.00  0.00    +0.059 A 
ATOM     26  C17 UNL     1      20.084   1.837  27.548  0.00  0.00    +0.093 A 
ATOM     27  N2  UNL     1      21.004   2.697  27.061  0.00  0.00    -0.173 NA
ATOM     28  N3  UNL     1      21.649   3.227  28.086  0.00  0.00    -0.275 N 
ATOM     29  H20 UNL     1      22.421   3.925  27.991  0.00  0.00    +0.189 HD
BRANCH  26  30
ATOM     30  C18 UNL     1      19.174   1.034  26.693  0.00  0.00    +0.002 A 
ATOM     31  C19 UNL     1      19.639   0.504  25.478  0.00  0.00    +0.013 A 
ATOM     32  C20 UNL     1      18.796  -0.263  24.668  0.00  0.00    +0.046 A 
ATOM     33  C21 UNL     1      17.474  -0.512  25.051  0.00  0.00    +0.120 A 
ATOM     34  C23 UNL     1      17.001   0.022  26.264  0.00  0.00    +0.046 A 
ATOM     35  C24 UNL     1      17.843   0.787  27.076  0.00  0.00    +0.013 A 
BRANCH  33  36
ATOM     36  O5  UNL     1      16.671  -1.290  24.204  0.00  0.00    -0.495 OA
ATOM     37  C22 UNL     1      16.997  -1.603  22.853  0.00  0.00    +0.277 C 
ENDBRANCH  33  36
ENDBRANCH  26  30
ENDBRANCH   3  24
TORSDOF 6
ENDMDL
MODEL 6
REMARK VINA RESULT:    -7.112     11.611     13.563
REMARK INTER + INTRA:         -10.322
REMARK INTER:                  -9.590
REMARK INTRA:                  -0.733
REMARK UNBOUND:                -0.716
REMARK  Name = /home/qwerty/github/datacon2025hack/step_04_hit_selection/docking/ligands/lig_207.pdb
REMARK  8 active torsions:
REMARK  status: ('A' for Active; 'I' for Inactive)
REMARK    1  A    between atoms: C1_1  and  O1_2
REMARK    2  A    between atoms: O1_2  and  C2_3
REMARK    3  A    between atoms: C2_3  and  C3_5
REMARK    4  A    between atoms: C11_15  and  C12_17
REMARK    5  A    between atoms: C14_19  and  C15_20
REMARK    6  A    between atoms: C17_22  and  C18_23
REMARK    7  A    between atoms: C21_26  and  O5_27
REMARK    8  A    between atoms: O5_27  and  C22_28
REMARK                            x       y       z     vdW  Elec       q    Type
REMARK                         _______ _______ _______ _____ _____    ______ ____
ROOT
ATOM      1  C12 UNL     1      12.473   3.332  20.683  0.00  0.00    +0.121 A 
ATOM      2  C13 UNL     1      11.721   3.885  21.701  0.00  0.00    +0.064 A 
ATOM      3  C14 UNL     1      10.977   4.867  21.073  0.00  0.00    +0.111 A 
ATOM      4  N4  UNL     1      11.259   4.885  19.755  0.00  0.00    -0.172 NA
ATOM      5  N5  UNL     1      12.164   3.949  19.526  0.00  0.00    -0.272 N 
ATOM      6  H21 UNL     1      12.539   3.724  18.578  0.00  0.00    +0.189 HD
ENDROOT
BRANCH   1  17
ATOM      7  C3  UNL     1      17.014  -0.836  23.658  0.00  0.00    +0.062 A 
ATOM      8  C4  UNL     1      16.493  -1.568  22.583  0.00  0.00    +0.015 A 
ATOM      9  C5  UNL     1      16.054  -0.916  21.430  0.00  0.00    +0.009 A 
ATOM     10  C6  UNL     1      16.128   0.483  21.321  0.00  0.00    +0.012 A 
ATOM     11  C7  UNL     1      16.699   1.229  22.388  0.00  0.00    +0.126 A 
ATOM     12  C8  UNL     1      17.111   0.562  23.548  0.00  0.00    +0.061 A 
ATOM     13  O3  UNL     1      16.870   2.625  22.363  0.00  0.00    -0.490 OA
ATOM     14  C9  UNL     1      16.919   3.432  21.189  0.00  0.00    +0.248 C 
ATOM     15  C10 UNL     1      15.525   3.622  20.584  0.00  0.00    +0.149 C 
ATOM     16  N1  UNL     1      14.815   2.343  20.440  0.00  0.00    -0.289 N 
ATOM     17  C11 UNL     1      13.431   2.218  20.829  0.00  0.00    +0.265 C 
ATOM     18  O4  UNL     1      13.014   1.126  21.306  0.00  0.00    -0.268 OA
ATOM     19  C25 UNL     1      15.572   1.139  20.081  0.00  0.00    +0.147 C 
BRANCH   7  20
ATOM     20  C2  UNL     1      17.463  -1.529  24.887  0.00  0.00    +0.339 C 
ATOM     21  O2  UNL     1      18.032  -2.655  24.807  0.00  0.00    -0.245 OA
BRANCH  20  23
ATOM     22  C1  UNL     1      15.959  -0.770  26.702  0.00  0.00    +0.280 C 
ATOM     23  O1  UNL     1      17.254  -0.939  26.138  0.00  0.00    -0.464 OA
ENDBRANCH  20  23
ENDBRANCH   7  20
ENDBRANCH   1  17
BRANCH   3  24
ATOM     24  C15 UNL     1      10.022   5.780  21.718  0.00  0.00    +0.086 A 
ATOM     25  C16 UNL     1      10.200   6.417  22.928  0.00  0.00    +0.059 A 
ATOM     26  C17 UNL     1       9.028   7.135  23.113  0.00  0.00    +0.093 A 
ATOM     27  N2  UNL     1       8.205   6.929  22.062  0.00  0.00    -0.173 NA
ATOM     28  N3  UNL     1       8.815   6.109  21.222  0.00  0.00    -0.275 N 
ATOM     29  H20 UNL     1       8.397   5.779  20.323  0.00  0.00    +0.189 HD
BRANCH  26  30
ATOM     30  C18 UNL     1       8.679   7.990  24.274  0.00  0.00    +0.002 A 
ATOM     31  C19 UNL     1       8.810   7.488  25.580  0.00  0.00    +0.013 A 
ATOM     32  C20 UNL     1       8.495   8.286  26.684  0.00  0.00    +0.046 A 
ATOM     33  C21 UNL     1       8.041   9.597  26.508  0.00  0.00    +0.120 A 
ATOM     34  C23 UNL     1       7.902  10.104  25.202  0.00  0.00    +0.046 A 
ATOM     35  C24 UNL     1       8.219   9.308  24.097  0.00  0.00    +0.013 A 
BRANCH  33  36
ATOM     36  O5  UNL     1       7.742  10.358  27.648  0.00  0.00    -0.495 OA
ATOM     37  C22 UNL     1       8.262  11.659  27.903  0.00  0.00    +0.277 C 
ENDBRANCH  33  36
ENDBRANCH  26  30
ENDBRANCH   3  24
TORSDOF 6
ENDMDL
MODEL 7
REMARK VINA RESULT:    -7.100      9.066     10.514
REMARK INTER + INTRA:         -10.307
REMARK INTER:                  -9.541
REMARK INTRA:                  -0.765
REMARK UNBOUND:                -0.716
REMARK  Name = /home/qwerty/github/datacon2025hack/step_04_hit_selection/docking/ligands/lig_207.pdb
REMARK  8 active torsions:
REMARK  status: ('A' for Active; 'I' for Inactive)
REMARK    1  A    between atoms: C1_1  and  O1_2
REMARK    2  A    between atoms: O1_2  and  C2_3
REMARK    3  A    between atoms: C2_3  and  C3_5
REMARK    4  A    between atoms: C11_15  and  C12_17
REMARK    5  A    between atoms: C14_19  and  C15_20
REMARK    6  A    between atoms: C17_22  and  C18_23
REMARK    7  A    between atoms: C21_26  and  O5_27
REMARK    8  A    between atoms: O5_27  and  C22_28
REMARK                            x       y       z     vdW  Elec       q    Type
REMARK                         _______ _______ _______ _____ _____    ______ ____
ROOT
ATOM      1  C12 UNL     1      11.757  13.246  32.239  0.00  0.00    +0.121 A 
ATOM      2  C13 UNL     1      11.557  12.112  31.475  0.00  0.00    +0.064 A 
ATOM      3  C14 UNL     1      10.597  12.492  30.555  0.00  0.00    +0.111 A 
ATOM      4  N4  UNL     1      10.259  13.783  30.750  0.00  0.00    -0.172 NA
ATOM      5  N5  UNL     1      10.970  14.233  31.770  0.00  0.00    -0.272 N 
ATOM      6  H21 UNL     1      10.929  15.217  32.115  0.00  0.00    +0.189 HD
ENDROOT
BRANCH   1  17
ATOM      7  C3  UNL     1      16.007  11.329  37.250  0.00  0.00    +0.062 A 
ATOM      8  C4  UNL     1      16.398  12.633  36.914  0.00  0.00    +0.015 A 
ATOM      9  C5  UNL     1      15.463  13.550  36.434  0.00  0.00    +0.009 A 
ATOM     10  C6  UNL     1      14.114  13.189  36.279  0.00  0.00    +0.012 A 
ATOM     11  C7  UNL     1      13.700  11.884  36.661  0.00  0.00    +0.126 A 
ATOM     12  C8  UNL     1      14.655  10.968  37.117  0.00  0.00    +0.061 A 
ATOM     13  O3  UNL     1      12.368  11.436  36.598  0.00  0.00    -0.490 OA
ATOM     14  C9  UNL     1      11.213  12.271  36.573  0.00  0.00    +0.248 C 
ATOM     15  C10 UNL     1      11.027  12.925  35.200  0.00  0.00    +0.149 C 
ATOM     16  N1  UNL     1      12.268  13.550  34.722  0.00  0.00    -0.289 N 
ATOM     17  C11 UNL     1      12.709  13.371  33.359  0.00  0.00    +0.265 C 
ATOM     18  O4  UNL     1      13.945  13.321  33.107  0.00  0.00    -0.268 OA
ATOM     19  C25 UNL     1      13.162  14.200  35.686  0.00  0.00    +0.147 C 
BRANCH   7  20
ATOM     20  C2  UNL     1      17.004  10.353  37.743  0.00  0.00    +0.339 C 
ATOM     21  O2  UNL     1      16.625   9.297  38.323  0.00  0.00    -0.245 OA
BRANCH  20  23
ATOM     22  C1  UNL     1      19.193   9.817  36.717  0.00  0.00    +0.280 C 
ATOM     23  O1  UNL     1      18.370  10.603  37.571  0.00  0.00    -0.464 OA
ENDBRANCH  20  23
ENDBRANCH   7  20
ENDBRANCH   1  17
BRANCH   3  24
ATOM     24  C15 UNL     1      10.003  11.639  29.515  0.00  0.00    +0.086 A 
ATOM     25  C16 UNL     1      10.279  11.697  28.165  0.00  0.00    +0.059 A 
ATOM     26  C17 UNL     1       9.461  10.725  27.608  0.00  0.00    +0.093 A 
ATOM     27  N2  UNL     1       8.743  10.128  28.584  0.00  0.00    -0.173 NA
ATOM     28  N3  UNL     1       9.078  10.687  29.735  0.00  0.00    -0.275 N 
ATOM     29  H20 UNL     1       8.667  10.414  30.656  0.00  0.00    +0.189 HD
BRANCH  26  30
ATOM     30  C18 UNL     1       9.343  10.376  26.170  0.00  0.00    +0.002 A 
ATOM     31  C19 UNL     1       8.084  10.088  25.618  0.00  0.00    +0.013 A 
ATOM     32  C20 UNL     1       7.957   9.766  24.263  0.00  0.00    +0.046 A 
ATOM     33  C21 UNL     1       9.083   9.723  23.434  0.00  0.00    +0.120 A 
ATOM     34  C23 UNL     1      10.348  10.005  23.983  0.00  0.00    +0.046 A 
ATOM     35  C24 UNL     1      10.476  10.327  25.337  0.00  0.00    +0.013 A 
BRANCH  33  36
ATOM     36  O5  UNL     1       8.902   9.400  22.081  0.00  0.00    -0.495 OA
ATOM     37  C22 UNL     1       8.787  10.360  21.035  0.00  0.00    +0.277 C 
ENDBRANCH  33  36
ENDBRANCH  26  30
ENDBRANCH   3  24
TORSDOF 6
ENDMDL
MODEL 8
REMARK VINA RESULT:    -7.061      9.078     11.719
REMARK INTER + INTRA:         -10.253
REMARK INTER:                  -9.470
REMARK INTRA:                  -0.783
REMARK UNBOUND:                -0.716
REMARK  Name = /home/qwerty/github/datacon2025hack/step_04_hit_selection/docking/ligands/lig_207.pdb
REMARK  8 active torsions:
REMARK  status: ('A' for Active; 'I' for Inactive)
REMARK    1  A    between atoms: C1_1  and  O1_2
REMARK    2  A    between atoms: O1_2  and  C2_3
REMARK    3  A    between atoms: C2_3  and  C3_5
REMARK    4  A    between atoms: C11_15  and  C12_17
REMARK    5  A    between atoms: C14_19  and  C15_20
REMARK    6  A    between atoms: C17_22  and  C18_23
REMARK    7  A    between atoms: C21_26  and  O5_27
REMARK    8  A    between atoms: O5_27  and  C22_28
REMARK                            x       y       z     vdW  Elec       q    Type
REMARK                         _______ _______ _______ _____ _____    ______ ____
ROOT
ATOM      1  C12 UNL     1       8.645   9.541  25.085  0.00  0.00    +0.121 A 
ATOM      2  C13 UNL     1       9.753   9.968  25.790  0.00  0.00    +0.064 A 
ATOM      3  C14 UNL     1       9.243  10.880  26.696  0.00  0.00    +0.111 A 
ATOM      4  N4  UNL     1       7.906  10.976  26.549  0.00  0.00    -0.172 NA
ATOM      5  N5  UNL     1       7.551  10.158  25.573  0.00  0.00    -0.272 N 
ATOM      6  H21 UNL     1       6.563  10.010  25.271  0.00  0.00    +0.189 HD
ENDROOT
BRANCH   1  17
ATOM      7  C3  UNL     1      11.126   5.309  20.313  0.00  0.00    +0.062 A 
ATOM      8  C4  UNL     1       9.855   4.807  20.624  0.00  0.00    +0.015 A 
ATOM      9  C5  UNL     1       8.837   5.667  21.037  0.00  0.00    +0.009 A 
ATOM     10  C6  UNL     1       9.062   7.049  21.148  0.00  0.00    +0.012 A 
ATOM     11  C7  UNL     1      10.335   7.572  20.790  0.00  0.00    +0.126 A 
ATOM     12  C8  UNL     1      11.352   6.693  20.400  0.00  0.00    +0.061 A 
ATOM     13  O3  UNL     1      10.652   8.942  20.811  0.00  0.00    -0.490 OA
ATOM     14  C9  UNL     1       9.710  10.012  20.764  0.00  0.00    +0.248 C 
ATOM     15  C10 UNL     1       8.996  10.186  22.107  0.00  0.00    +0.149 C 
ATOM     16  N1  UNL     1       8.475   8.909  22.617  0.00  0.00    -0.289 N 
ATOM     17  C11 UNL     1       8.649   8.540  24.001  0.00  0.00    +0.265 C 
ATOM     18  O4  UNL     1       8.807   7.324  24.306  0.00  0.00    -0.268 OA
ATOM     19  C25 UNL     1       7.946   7.921  21.670  0.00  0.00    +0.147 C 
BRANCH   7  20
ATOM     20  C2  UNL     1      12.208   4.392  19.890  0.00  0.00    +0.339 C 
ATOM     21  O2  UNL     1      12.180   3.176  20.234  0.00  0.00    -0.245 OA
BRANCH  20  23
ATOM     22  C1  UNL     1      14.629   4.745  19.503  0.00  0.00    +0.280 C 
ATOM     23  O1  UNL     1      13.267   4.873  19.112  0.00  0.00    -0.464 OA
ENDBRANCH  20  23
ENDBRANCH   7  20
ENDBRANCH   1  17
BRANCH   3  24
ATOM     24  C15 UNL     1      10.015  11.656  27.678  0.00  0.00    +0.086 A 
ATOM     25  C16 UNL     1       9.943  11.527  29.049  0.00  0.00    +0.059 A 
ATOM     26  C17 UNL     1      10.829  12.481  29.529  0.00  0.00    +0.093 A 
ATOM     27  N2  UNL     1      11.391  13.135  28.490  0.00  0.00    -0.173 NA
ATOM     28  N3  UNL     1      10.894  12.628  27.374  0.00  0.00    -0.275 N 
ATOM     29  H20 UNL     1      11.157  12.956  26.417  0.00  0.00    +0.189 HD
BRANCH  26  30
ATOM     30  C18 UNL     1      11.128  12.785  30.951  0.00  0.00    +0.002 A 
ATOM     31  C19 UNL     1      11.233  11.741  31.885  0.00  0.00    +0.013 A 
ATOM     32  C20 UNL     1      11.524  12.013  33.225  0.00  0.00    +0.046 A 
ATOM     33  C21 UNL     1      11.712  13.328  33.660  0.00  0.00    +0.120 A 
ATOM     34  C23 UNL     1      11.601  14.379  32.730  0.00  0.00    +0.046 A 
ATOM     35  C24 UNL     1      11.312  14.109  31.389  0.00  0.00    +0.013 A 
BRANCH  33  36
ATOM     36  O5  UNL     1      12.006  13.547  35.014  0.00  0.00    -0.495 OA
ATOM     37  C22 UNL     1      11.188  13.105  36.094  0.00  0.00    +0.277 C 
ENDBRANCH  33  36
ENDBRANCH  26  30
ENDBRANCH   3  24
TORSDOF 6
ENDMDL
MODEL 9
REMARK VINA RESULT:    -6.894     13.418     18.687
REMARK INTER + INTRA:         -10.028
REMARK INTER:                  -9.393
REMARK INTRA:                  -0.635
REMARK UNBOUND:                -0.716
REMARK  Name = /home/qwerty/github/datacon2025hack/step_04_hit_selection/docking/ligands/lig_207.pdb
REMARK  8 active torsions:
REMARK  status: ('A' for Active; 'I' for Inactive)
REMARK    1  A    between atoms: C1_1  and  O1_2
REMARK    2  A    between atoms: O1_2  and  C2_3
REMARK    3  A    between atoms: C2_3  and  C3_5
REMARK    4  A    between atoms: C11_15  and  C12_17
REMARK    5  A    between atoms: C14_19  and  C15_20
REMARK    6  A    between atoms: C17_22  and  C18_23
REMARK    7  A    between atoms: C21_26  and  O5_27
REMARK    8  A    between atoms: O5_27  and  C22_28
REMARK                            x       y       z     vdW  Elec       q    Type
REMARK                         _______ _______ _______ _____ _____    ______ ____
ROOT
ATOM      1  C12 UNL     1      17.411   0.799  35.137  0.00  0.00    +0.121 A 
ATOM      2  C13 UNL     1      17.762   0.401  33.862  0.00  0.00    +0.064 A 
ATOM      3  C14 UNL     1      18.879   1.161  33.567  0.00  0.00    +0.111 A 
ATOM      4  N4  UNL     1      19.184   1.953  34.615  0.00  0.00    -0.172 NA
ATOM      5  N5  UNL     1      18.292   1.724  35.563  0.00  0.00    -0.272 N 
ATOM      6  H21 UNL     1      18.312   2.183  36.500  0.00  0.00    +0.189 HD
ENDROOT
BRANCH   1  17
ATOM      7  C3  UNL     1      11.074  -1.365  36.547  0.00  0.00    +0.062 A 
ATOM      8  C4  UNL     1      11.888  -1.951  37.525  0.00  0.00    +0.015 A 
ATOM      9  C5  UNL     1      13.049  -1.309  37.957  0.00  0.00    +0.009 A 
ATOM     10  C6  UNL     1      13.423  -0.063  37.425  0.00  0.00    +0.012 A 
ATOM     11  C7  UNL     1      12.578   0.560  36.466  0.00  0.00    +0.126 A 
ATOM     12  C8  UNL     1      11.430  -0.110  36.026  0.00  0.00    +0.061 A 
ATOM     13  O3  UNL     1      12.829   1.826  35.908  0.00  0.00    -0.490 OA
ATOM     14  C9  UNL     1      13.659   2.834  36.481  0.00  0.00    +0.248 C 
ATOM     15  C10 UNL     1      15.143   2.498  36.310  0.00  0.00    +0.149 C 
ATOM     16  N1  UNL     1      15.442   1.122  36.730  0.00  0.00    -0.289 N 
ATOM     17  C11 UNL     1      16.281   0.268  35.923  0.00  0.00    +0.265 C 
ATOM     18  O4  UNL     1      16.052  -0.973  35.885  0.00  0.00    -0.268 OA
ATOM     19  C25 UNL     1      14.727   0.550  37.876  0.00  0.00    +0.147 C 
BRANCH   7  20
ATOM     20  C2  UNL     1       9.852  -2.057  36.080  0.00  0.00    +0.339 C 
ATOM     21  O2  UNL     1       8.769  -1.935  36.720  0.00  0.00    -0.245 OA
BRANCH  20  23
ATOM     22  C1  UNL     1       9.454  -2.388  33.658  0.00  0.00    +0.280 C 
ATOM     23  O1  UNL     1       9.896  -2.851  34.929  0.00  0.00    -0.464 OA
ENDBRANCH  20  23
ENDBRANCH   7  20
ENDBRANCH   1  17
BRANCH   3  24
ATOM     24  C15 UNL     1      19.637   1.143  32.308  0.00  0.00    +0.086 A 
ATOM     25  C16 UNL     1      19.905   2.233  31.508  0.00  0.00    +0.059 A 
ATOM     26  C17 UNL     1      20.615   1.707  30.438  0.00  0.00    +0.093 A 
ATOM     27  N2  UNL     1      20.755   0.374  30.605  0.00  0.00    -0.173 NA
ATOM     28  N3  UNL     1      20.162   0.042  31.740  0.00  0.00    -0.275 N 
ATOM     29  H20 UNL     1      20.117  -0.935  32.109  0.00  0.00    +0.189 HD
BRANCH  26  30
ATOM     30  C18 UNL     1      21.138   2.448  29.264  0.00  0.00    +0.002 A 
ATOM     31  C19 UNL     1      20.798   3.799  29.077  0.00  0.00    +0.013 A 
ATOM     32  C20 UNL     1      21.292   4.512  27.981  0.00  0.00    +0.046 A 
ATOM     33  C21 UNL     1      22.131   3.893  27.049  0.00  0.00    +0.120 A 
ATOM     34  C23 UNL     1      22.470   2.538  27.227  0.00  0.00    +0.046 A 
ATOM     35  C24 UNL     1      21.979   1.825  28.324  0.00  0.00    +0.013 A 
BRANCH  33  36
ATOM     36  O5  UNL     1      22.603   4.654  25.969  0.00  0.00    -0.495 OA
ATOM     37  C22 UNL     1      21.764   5.329  25.036  0.00  0.00    +0.277 C 
ENDBRANCH  33  36
ENDBRANCH  26  30
ENDBRANCH   3  24
TORSDOF 6
ENDMDL
