REMARK  Name = /home/qwerty/github/datacon2025hack/step_04_hit_selection/docking/ligands/lig_677.pdb
REMARK  5 active torsions:
REMARK  status: ('A' for Active; 'I' for Inactive)
REMARK    1  A    between atoms: C1_1  and  O1_2
REMARK    2  A    between atoms: O1_2  and  C2_3
REMARK    3  A    between atoms: C5_6  and  N1_7
REMARK    4  A    between atoms: C7_9  and  N2_10
REMARK    5  A    between atoms: N3_13  and  C9_14
REMARK                            x       y       z     vdW  Elec       q    Type
REMARK                         _______ _______ _______ _____ _____    ______ ____
ROOT
ATOM      1  N2  UNL     1      -0.522  -0.395   0.053  0.00  0.00    -0.294 N 
ATOM      2  C8  UNL     1      -1.852  -0.042   0.458  0.00  0.00    +0.304 C 
ATOM      3  O2  UNL     1      -2.027   0.767   1.410  0.00  0.00    -0.253 OA
ATOM      4  N3  UNL     1      -2.977  -0.647  -0.196  0.00  0.00    -0.269 N 
ATOM      5  H9  UNL     1      -0.414  -1.104  -0.707  0.00  0.00    +0.151 HD
ATOM      6  H10 UNL     1      -2.802  -1.505  -0.767  0.00  0.00    +0.156 HD
ENDROOT
BRANCH   4   7
ATOM      7  C9  UNL     1      -4.339  -0.218  -0.023  0.00  0.00    +0.035 A 
ATOM      8  C10 UNL     1      -4.663   1.151   0.155  0.00  0.00    +0.025 A 
ATOM      9  C11 UNL     1      -6.000   1.557   0.298  0.00  0.00    +0.025 A 
ATOM     10  C12 UNL     1      -6.995   0.584   0.249  0.00  0.00    +0.037 A 
ATOM     11  C13 UNL     1      -6.694  -0.747   0.056  0.00  0.00    -0.016 A 
ATOM     12  C14 UNL     1      -5.374  -1.172  -0.091  0.00  0.00    +0.029 A 
ATOM     13  C15 UNL     1      -7.940  -1.573   0.028  0.00  0.00    +0.133 C 
ATOM     14  C16 UNL     1      -8.964  -0.495   0.234  0.00  0.00    +0.222 C 
ATOM     15  O3  UNL     1     -10.205  -0.700   0.286  0.00  0.00    -0.275 OA
ATOM     16  N4  UNL     1      -8.388   0.800   0.365  0.00  0.00    -0.285 N 
ATOM     17  H16 UNL     1      -8.885   1.707   0.510  0.00  0.00    +0.155 HD
ENDBRANCH   4   7
BRANCH   1  20
ATOM     18  N1  UNL     1       2.952   0.561   0.143  0.00  0.00    -0.270 N 
ATOM     19  C6  UNL     1       1.972  -0.510   0.236  0.00  0.00    +0.136 C 
ATOM     20  C7  UNL     1       0.664   0.166   0.710  0.00  0.00    +0.101 C 
ATOM     21  C17 UNL     1       0.821   1.667   0.407  0.00  0.00    +0.120 C 
ATOM     22  C18 UNL     1       2.274   1.807   0.184  0.00  0.00    +0.222 C 
ATOM     23  O4  UNL     1       2.838   2.913  -0.030  0.00  0.00    -0.275 OA
BRANCH  18  27
ATOM     24  C2  UNL     1       7.149  -0.049  -0.313  0.00  0.00    +0.120 A 
ATOM     25  C3  UNL     1       6.666   1.068   0.376  0.00  0.00    +0.047 A 
ATOM     26  C4  UNL     1       5.292   1.273   0.526  0.00  0.00    +0.027 A 
ATOM     27  C5  UNL     1       4.371   0.364  -0.022  0.00  0.00    +0.037 A 
ATOM     28  C19 UNL     1       4.857  -0.765  -0.703  0.00  0.00    +0.027 A 
ATOM     29  C20 UNL     1       6.232  -0.969  -0.853  0.00  0.00    +0.047 A 
BRANCH  24  31
ATOM     30  C1  UNL     1       9.165  -1.299  -1.102  0.00  0.00    +0.277 C 
ATOM     31  O1  UNL     1       8.537  -0.209  -0.435  0.00  0.00    -0.495 OA
ENDBRANCH  24  31
ENDBRANCH  18  27
ENDBRANCH   1  20
TORSDOF 4
