REMARK  Name = /home/qwerty/github/datacon2025hack/step_04_hit_selection/docking/ligands/lig_348.pdb
REMARK  4 active torsions:
REMARK  status: ('A' for Active; 'I' for Inactive)
REMARK    1  A    between atoms: C1_1  and  C2_2
REMARK    2  A    between atoms: C13_15  and  C14_16
REMARK    3  A    between atoms: C17_19  and  O2_20
REMARK    4  A    between atoms: C18_21  and  O3_22
REMARK                            x       y       z     vdW  Elec       q    Type
REMARK                         _______ _______ _______ _____ _____    ______ ____
ROOT
ATOM      1  C1  UNL     1       5.352   1.776   1.143  0.00  0.00    +0.044 C 
ATOM      2  C2  UNL     1       4.124   1.266   0.451  0.00  0.00    -0.050 A 
ATOM      3  C3  UNL     1       3.760   1.781  -0.820  0.00  0.00    +0.005 A 
ATOM      4  C4  UNL     1       2.591   1.339  -1.466  0.00  0.00    +0.026 A 
ATOM      5  C5  UNL     1       1.802   0.395  -0.814  0.00  0.00    +0.047 A 
ATOM      6  N1  UNL     1       0.649  -0.147  -1.257  0.00  0.00    -0.357 N 
ATOM      7  C6  UNL     1       0.255  -0.993  -0.279  0.00  0.00    +0.039 A 
ATOM      8  C7  UNL     1       1.148  -0.987   0.771  0.00  0.00    +0.051 A 
ATOM      9  C8  UNL     1       2.142  -0.095   0.426  0.00  0.00    +0.011 A 
ATOM     10  C9  UNL     1       3.293   0.321   1.092  0.00  0.00    +0.014 A 
ATOM     11  C10 UNL     1       0.950  -1.825   1.950  0.00  0.00    +0.188 C 
ATOM     12  O1  UNL     1       1.760  -1.809   2.915  0.00  0.00    -0.287 OA
ATOM     13  C11 UNL     1      -0.233  -2.704   1.969  0.00  0.00    +0.048 C 
ATOM     14  C12 UNL     1      -1.114  -2.718   0.950  0.00  0.00    -0.009 C 
ATOM     15  C13 UNL     1      -1.003  -1.827  -0.284  0.00  0.00    +0.089 C 
ATOM     16  H6  UNL     1       0.159   0.051  -2.158  0.00  0.00    +0.166 HD
ENDROOT
BRANCH  15  17
ATOM     17  C14 UNL     1      -2.217  -0.931  -0.382  0.00  0.00    -0.031 A 
ATOM     18  C15 UNL     1      -3.075  -1.020  -1.488  0.00  0.00    +0.008 A 
ATOM     19  C16 UNL     1      -4.191  -0.188  -1.583  0.00  0.00    +0.049 A 
ATOM     20  C17 UNL     1      -4.474   0.748  -0.582  0.00  0.00    +0.158 A 
ATOM     21  C18 UNL     1      -3.615   0.848   0.538  0.00  0.00    +0.159 A 
ATOM     22  C19 UNL     1      -2.497   0.009   0.626  0.00  0.00    +0.053 A 
BRANCH  20  23
ATOM     23  O2  UNL     1      -5.606   1.550  -0.739  0.00  0.00    -0.503 OA
ATOM     24  H13 UNL     1      -5.897   2.252  -0.074  0.00  0.00    +0.292 HD
ENDBRANCH  20  23
BRANCH  21  25
ATOM     25  O3  UNL     1      -3.830   1.757   1.575  0.00  0.00    -0.503 OA
ATOM     26  H14 UNL     1      -4.604   2.405   1.606  0.00  0.00    +0.292 HD
ENDBRANCH  21  25
ENDBRANCH  15  17
TORSDOF 3
