REMARK  Name = /home/qwerty/github/datacon2025hack/step_04_hit_selection/docking/ligands/lig_21.pdb
REMARK  4 active torsions:
REMARK  status: ('A' for Active; 'I' for Inactive)
REMARK    1  A    between atoms: C1_2  and  C12_19
REMARK    2  A    between atoms: N1_3  and  C2_4
REMARK    3  A    between atoms: C6_9  and  C7_11
REMARK    4  A    between atoms: C10_14  and  O3_15
REMARK                            x       y       z     vdW  Elec       q    Type
REMARK                         _______ _______ _______ _____ _____    ______ ____
ROOT
ATOM      1  C2  UNL     1       0.654   0.953   0.531  0.00  0.00    +0.091 C 
ATOM      2  C3  UNL     1       0.335   1.507   1.936  0.00  0.00    +0.025 C 
ATOM      3  C4  UNL     1      -1.145   1.334   2.350  0.00  0.00    +0.021 C 
ATOM      4  C5  UNL     1      -2.036   0.803   1.222  0.00  0.00    +0.108 C 
ATOM      5  N2  UNL     1      -1.431  -0.393   0.617  0.00  0.00    -0.294 N 
ATOM      6  C6  UNL     1      -2.227  -1.558   0.322  0.00  0.00    +0.267 C 
ATOM      7  O2  UNL     1      -1.724  -2.704   0.486  0.00  0.00    -0.268 OA
ATOM      8  C11 UNL     1       0.011  -0.429   0.333  0.00  0.00    +0.130 C 
ENDROOT
BRANCH   6   9
ATOM      9  C7  UNL     1      -3.607  -1.438  -0.198  0.00  0.00    +0.148 A 
ATOM     10  C8  UNL     1      -4.493  -2.523  -0.158  0.00  0.00    +0.040 A 
ATOM     11  C9  UNL     1      -5.777  -2.376  -0.677  0.00  0.00    +0.071 A 
ATOM     12  C10 UNL     1      -6.150  -1.152  -1.236  0.00  0.00    +0.232 A 
ATOM     13  N3  UNL     1      -5.255  -0.131  -1.260  0.00  0.00    -0.111 NA
ATOM     14  N4  UNL     1      -4.026  -0.271  -0.760  0.00  0.00    -0.141 NA
BRANCH  12  15
ATOM     15  O3  UNL     1      -7.423  -0.967  -1.770  0.00  0.00    -0.491 OA
ATOM     16  H11 UNL     1      -8.112  -1.710  -1.766  0.00  0.00    +0.294 HD
ENDBRANCH  12  15
ENDBRANCH   6   9
BRANCH   1  19
ATOM     17  O1  UNL     1       1.957   1.016  -2.002  0.00  0.00    -0.269 OA
ATOM     18  C1  UNL     1       2.693   0.882  -0.986  0.00  0.00    +0.263 C 
ATOM     19  N1  UNL     1       2.104   0.867   0.326  0.00  0.00    -0.306 N 
ATOM     20  H1  UNL     1       2.722   0.720   1.157  0.00  0.00    +0.149 HD
BRANCH  18  21
ATOM     21  C12 UNL     1       4.156   0.739  -1.154  0.00  0.00    +0.126 A 
ATOM     22  C13 UNL     1       4.748   0.789  -2.429  0.00  0.00    +0.036 A 
ATOM     23  C14 UNL     1       6.132   0.650  -2.550  0.00  0.00    +0.042 A 
ATOM     24  C15 UNL     1       6.915   0.462  -1.411  0.00  0.00    +0.141 A 
ATOM     25  F1  UNL     1       8.260   0.326  -1.517  0.00  0.00    -0.204 F 
ATOM     26  C16 UNL     1       6.298   0.417  -0.159  0.00  0.00    +0.149 A 
ATOM     27  N5  UNL     1       4.949   0.556  -0.060  0.00  0.00    -0.248 NA
ENDBRANCH  18  21
ENDBRANCH   1  19
TORSDOF 4
