MODEL 1
REMARK VINA RESULT:    -6.114      0.000      0.000
REMARK INTER + INTRA:          -9.123
REMARK INTER:                  -8.437
REMARK INTRA:                  -0.686
REMARK UNBOUND:                -0.686
REMARK  Name = /home/qwerty/github/datacon2025hack/step_04_hit_selection/docking/ligands/lig_356.pdb
REMARK  10 active torsions:
REMARK  status: ('A' for Active; 'I' for Inactive)
REMARK    1  A    between atoms: C4_4  and  C5_5
REMARK    2  A    between atoms: C4_4  and  C6_6
REMARK    3  A    between atoms: N1_8  and  C7_9
REMARK    4  A    between atoms: C7_9  and  C8_10
REMARK    5  A    between atoms: C8_10  and  O2_11
REMARK    6  A    between atoms: C8_10  and  C9_12
REMARK    7  A    between atoms: C9_12  and  N2_13
REMARK    8  A    between atoms: N2_13  and  C10_14
REMARK    9  A    between atoms: C11_15  and  C12_17
REMARK   10  A    between atoms: C14_19  and  C15_20
REMARK                            x       y       z     vdW  Elec       q    Type
REMARK                         _______ _______ _______ _____ _____    ______ ____
ROOT
ATOM      1  C8  UNL     1      12.604  14.070  33.502  0.00  0.00    +0.149 C 
ENDROOT
BRANCH   1   2
ATOM      2  O2  UNL     1      12.933  14.923  34.569  0.00  0.00    -0.389 OA
ATOM      3  H12 UNL     1      12.251  15.645  34.582  0.00  0.00    +0.210 HD
ENDBRANCH   1   2
BRANCH   1   4
ATOM      4  C7  UNL     1      11.888  14.879  32.404  0.00  0.00    +0.137 C 
BRANCH   4   7
ATOM      5  C6  UNL     1      11.001  13.840  30.277  0.00  0.00    +0.220 C 
ATOM      6  O1  UNL     1      11.903  14.420  29.610  0.00  0.00    -0.275 OA
ATOM      7  N1  UNL     1      10.903  14.064  31.690  0.00  0.00    -0.312 N 
ATOM      8  H8  UNL     1      10.113  13.623  32.212  0.00  0.00    +0.149 HD
BRANCH   5  12
ATOM      9  C1  UNL     1       7.595  14.195  27.223  0.00  0.00    +0.007 C 
ATOM     10  C2  UNL     1       8.486  13.751  28.104  0.00  0.00    -0.075 C 
ATOM     11  C3  UNL     1       8.559  13.546  29.609  0.00  0.00    +0.046 C 
ATOM     12  C4  UNL     1       9.966  12.993  29.571  0.00  0.00    +0.051 C 
ATOM     13  C5  UNL     1      10.056  11.512  29.971  0.00  0.00    +0.021 C 
ATOM     14  C16 UNL     1       9.909  13.217  28.079  0.00  0.00    +0.046 C 
ENDBRANCH   5  12
ENDBRANCH   4   7
ENDBRANCH   1   4
BRANCH   1  15
ATOM     15  C9  UNL     1      11.708  12.936  34.030  0.00  0.00    +0.140 C 
BRANCH  15  16
ATOM     16  N2  UNL     1      11.283  13.212  35.410  0.00  0.00    -0.297 N 
ATOM     17  C10 UNL     1      10.181  14.145  35.657  0.00  0.00    +0.132 C 
ATOM     18  C11 UNL     1      11.788  12.433  36.507  0.00  0.00    +0.265 C 
ATOM     19  O3  UNL     1      10.980  11.938  37.340  0.00  0.00    -0.268 OA
BRANCH  18  20
ATOM     20  C12 UNL     1      13.238  12.232  36.698  0.00  0.00    +0.135 A 
ATOM     21  C13 UNL     1      13.826  10.946  36.782  0.00  0.00    +0.045 A 
ATOM     22  C14 UNL     1      15.199  10.989  36.978  0.00  0.00    +0.007 A 
ATOM     23  C15 UNL     1      16.114   9.834  37.205  0.00  0.00    +0.053 C 
ATOM     24  S1  UNL     1      15.586  12.604  37.085  0.00  0.00    +0.007 S 
ATOM     25  N3  UNL     1      14.088  13.283  36.857  0.00  0.00    -0.206 NA
ENDBRANCH  18  20
ENDBRANCH  15  16
ENDBRANCH   1  15
TORSDOF 7
ENDMDL
MODEL 2
REMARK VINA RESULT:    -5.841      7.682     11.770
REMARK INTER + INTRA:          -8.747
REMARK INTER:                  -8.098
REMARK INTRA:                  -0.649
REMARK UNBOUND:                -0.686
REMARK  Name = /home/qwerty/github/datacon2025hack/step_04_hit_selection/docking/ligands/lig_356.pdb
REMARK  10 active torsions:
REMARK  status: ('A' for Active; 'I' for Inactive)
REMARK    1  A    between atoms: C4_4  and  C5_5
REMARK    2  A    between atoms: C4_4  and  C6_6
REMARK    3  A    between atoms: N1_8  and  C7_9
REMARK    4  A    between atoms: C7_9  and  C8_10
REMARK    5  A    between atoms: C8_10  and  O2_11
REMARK    6  A    between atoms: C8_10  and  C9_12
REMARK    7  A    between atoms: C9_12  and  N2_13
REMARK    8  A    between atoms: N2_13  and  C10_14
REMARK    9  A    between atoms: C11_15  and  C12_17
REMARK   10  A    between atoms: C14_19  and  C15_20
REMARK                            x       y       z     vdW  Elec       q    Type
REMARK                         _______ _______ _______ _____ _____    ______ ____
ROOT
ATOM      1  C8  UNL     1       7.552   9.697  24.013  0.00  0.00    +0.149 C 
ENDROOT
BRANCH   1   2
ATOM      2  O2  UNL     1       6.615  10.674  23.635  0.00  0.00    -0.389 OA
ATOM      3  H12 UNL     1       5.761  10.445  24.086  0.00  0.00    +0.210 HD
ENDBRANCH   1   2
BRANCH   1   4
ATOM      4  C7  UNL     1       7.581   9.586  25.548  0.00  0.00    +0.137 C 
BRANCH   4   7
ATOM      5  C6  UNL     1       8.823  10.905  27.311  0.00  0.00    +0.220 C 
ATOM      6  O1  UNL     1       9.219   9.832  27.844  0.00  0.00    -0.275 OA
ATOM      7  N1  UNL     1       7.951  10.857  26.174  0.00  0.00    -0.312 N 
ATOM      8  H8  UNL     1       7.586  11.756  25.786  0.00  0.00    +0.149 HD
BRANCH   5  12
ATOM      9  C1  UNL     1       7.048  14.182  29.988  0.00  0.00    +0.007 C 
ATOM     10  C2  UNL     1       7.844  13.448  29.216  0.00  0.00    -0.075 C 
ATOM     11  C3  UNL     1       8.160  13.329  27.734  0.00  0.00    +0.046 C 
ATOM     12  C4  UNL     1       9.185  12.236  27.933  0.00  0.00    +0.051 C 
ATOM     13  C5  UNL     1      10.619  12.666  27.589  0.00  0.00    +0.021 C 
ATOM     14  C16 UNL     1       8.858  12.332  29.404  0.00  0.00    +0.046 C 
ENDBRANCH   5  12
ENDBRANCH   4   7
ENDBRANCH   1   4
BRANCH   1  15
ATOM     15  C9  UNL     1       8.931  10.089  23.457  0.00  0.00    +0.140 C 
BRANCH  15  16
ATOM     16  N2  UNL     1       9.101   9.582  22.088  0.00  0.00    -0.297 N 
ATOM     17  C10 UNL     1       8.698  10.413  20.951  0.00  0.00    +0.132 C 
ATOM     18  C11 UNL     1       9.841   8.376  21.835  0.00  0.00    +0.265 C 
ATOM     19  O3  UNL     1      10.746   8.376  20.956  0.00  0.00    -0.268 OA
BRANCH  18  20
ATOM     20  C12 UNL     1       9.536   7.126  22.559  0.00  0.00    +0.135 A 
ATOM     21  C13 UNL     1       8.414   6.320  22.248  0.00  0.00    +0.045 A 
ATOM     22  C14 UNL     1       8.308   5.200  23.062  0.00  0.00    +0.007 A 
ATOM     23  C15 UNL     1       7.206   4.196  23.076  0.00  0.00    +0.053 C 
ATOM     24  S1  UNL     1       9.574   5.308  24.137  0.00  0.00    +0.007 S 
ATOM     25  N3  UNL     1      10.297   6.705  23.605  0.00  0.00    -0.206 NA
ENDBRANCH  18  20
ENDBRANCH  15  16
ENDBRANCH   1  15
TORSDOF 7
ENDMDL
MODEL 3
REMARK VINA RESULT:    -5.771      3.557      5.072
REMARK INTER + INTRA:          -8.650
REMARK INTER:                  -6.846
REMARK INTRA:                  -1.805
REMARK UNBOUND:                -0.686
REMARK  Name = /home/qwerty/github/datacon2025hack/step_04_hit_selection/docking/ligands/lig_356.pdb
REMARK  10 active torsions:
REMARK  status: ('A' for Active; 'I' for Inactive)
REMARK    1  A    between atoms: C4_4  and  C5_5
REMARK    2  A    between atoms: C4_4  and  C6_6
REMARK    3  A    between atoms: N1_8  and  C7_9
REMARK    4  A    between atoms: C7_9  and  C8_10
REMARK    5  A    between atoms: C8_10  and  O2_11
REMARK    6  A    between atoms: C8_10  and  C9_12
REMARK    7  A    between atoms: C9_12  and  N2_13
REMARK    8  A    between atoms: N2_13  and  C10_14
REMARK    9  A    between atoms: C11_15  and  C12_17
REMARK   10  A    between atoms: C14_19  and  C15_20
REMARK                            x       y       z     vdW  Elec       q    Type
REMARK                         _______ _______ _______ _____ _____    ______ ____
ROOT
ATOM      1  C8  UNL     1      12.765  14.623  30.247  0.00  0.00    +0.149 C 
ENDROOT
BRANCH   1   2
ATOM      2  O2  UNL     1      13.138  15.966  30.415  0.00  0.00    -0.389 OA
ATOM      3  H12 UNL     1      12.747  16.270  31.276  0.00  0.00    +0.210 HD
ENDBRANCH   1   2
BRANCH   1   4
ATOM      4  C7  UNL     1      12.216  14.420  28.823  0.00  0.00    +0.137 C 
BRANCH   4   7
ATOM      5  C6  UNL     1      10.212  13.123  27.991  0.00  0.00    +0.220 C 
ATOM      6  O1  UNL     1      10.941  12.519  27.156  0.00  0.00    -0.275 OA
ATOM      7  N1  UNL     1      10.780  14.133  28.835  0.00  0.00    -0.312 N 
ATOM      8  H8  UNL     1      10.147  14.663  29.475  0.00  0.00    +0.149 HD
BRANCH   5  12
ATOM      9  C1  UNL     1       7.206   9.947  29.381  0.00  0.00    +0.007 C 
ATOM     10  C2  UNL     1       7.781  11.034  28.875  0.00  0.00    -0.075 C 
ATOM     11  C3  UNL     1       8.313  11.488  27.525  0.00  0.00    +0.046 C 
ATOM     12  C4  UNL     1       8.724  12.853  28.028  0.00  0.00    +0.051 C 
ATOM     13  C5  UNL     1       7.909  14.005  27.419  0.00  0.00    +0.021 C 
ATOM     14  C16 UNL     1       8.220  12.400  29.377  0.00  0.00    +0.046 C 
ENDBRANCH   5  12
ENDBRANCH   4   7
ENDBRANCH   1   4
BRANCH   1  15
ATOM     15  C9  UNL     1      11.710  14.264  31.307  0.00  0.00    +0.140 C 
BRANCH  15  16
ATOM     16  N2  UNL     1      12.266  13.328  32.295  0.00  0.00    -0.297 N 
ATOM     17  C10 UNL     1      12.976  13.846  33.466  0.00  0.00    +0.132 C 
ATOM     18  C11 UNL     1      11.950  11.926  32.241  0.00  0.00    +0.265 C 
ATOM     19  O3  UNL     1      11.551  11.340  33.285  0.00  0.00    -0.268 OA
BRANCH  18  20
ATOM     20  C12 UNL     1      12.122  11.151  30.997  0.00  0.00    +0.135 A 
ATOM     21  C13 UNL     1      11.086  10.359  30.443  0.00  0.00    +0.045 A 
ATOM     22  C14 UNL     1      11.467   9.703  29.281  0.00  0.00    +0.007 A 
ATOM     23  C15 UNL     1      10.667   8.721  28.495  0.00  0.00    +0.053 C 
ATOM     24  S1  UNL     1      13.066  10.104  29.045  0.00  0.00    +0.007 S 
ATOM     25  N3  UNL     1      13.311  11.116  30.338  0.00  0.00    -0.206 NA
ENDBRANCH  18  20
ENDBRANCH  15  16
ENDBRANCH   1  15
TORSDOF 7
ENDMDL
MODEL 4
REMARK VINA RESULT:    -5.707     14.081     16.548
REMARK INTER + INTRA:          -8.561
REMARK INTER:                  -7.056
REMARK INTRA:                  -1.506
REMARK UNBOUND:                -0.686
REMARK  Name = /home/qwerty/github/datacon2025hack/step_04_hit_selection/docking/ligands/lig_356.pdb
REMARK  10 active torsions:
REMARK  status: ('A' for Active; 'I' for Inactive)
REMARK    1  A    between atoms: C4_4  and  C5_5
REMARK    2  A    between atoms: C4_4  and  C6_6
REMARK    3  A    between atoms: N1_8  and  C7_9
REMARK    4  A    between atoms: C7_9  and  C8_10
REMARK    5  A    between atoms: C8_10  and  O2_11
REMARK    6  A    between atoms: C8_10  and  C9_12
REMARK    7  A    between atoms: C9_12  and  N2_13
REMARK    8  A    between atoms: N2_13  and  C10_14
REMARK    9  A    between atoms: C11_15  and  C12_17
REMARK   10  A    between atoms: C14_19  and  C15_20
REMARK                            x       y       z     vdW  Elec       q    Type
REMARK                         _______ _______ _______ _____ _____    ______ ____
ROOT
ATOM      1  C8  UNL     1      19.747   1.120  24.844  0.00  0.00    +0.149 C 
ENDROOT
BRANCH   1   2
ATOM      2  O2  UNL     1      20.554   0.674  23.785  0.00  0.00    -0.389 OA
ATOM      3  H12 UNL     1      21.373   0.286  24.189  0.00  0.00    +0.210 HD
ENDBRANCH   1   2
BRANCH   1   4
ATOM      4  C7  UNL     1      20.551   2.095  25.723  0.00  0.00    +0.137 C 
BRANCH   4   7
ATOM      5  C6  UNL     1      22.151   1.860  27.667  0.00  0.00    +0.220 C 
ATOM      6  O1  UNL     1      22.940   2.682  27.125  0.00  0.00    -0.275 OA
ATOM      7  N1  UNL     1      20.944   1.479  26.992  0.00  0.00    -0.312 N 
ATOM      8  H8  UNL     1      20.336   0.751  27.430  0.00  0.00    +0.149 HD
BRANCH   5  12
ATOM      9  C1  UNL     1      20.250   0.313  31.546  0.00  0.00    +0.007 C 
ATOM     10  C2  UNL     1      21.098   0.649  30.579  0.00  0.00    -0.075 C 
ATOM     11  C3  UNL     1      21.942   1.857  30.207  0.00  0.00    +0.046 C 
ATOM     12  C4  UNL     1      22.526   1.202  28.976  0.00  0.00    +0.051 C 
ATOM     13  C5  UNL     1      24.036   0.934  29.079  0.00  0.00    +0.021 C 
ATOM     14  C16 UNL     1      21.672   0.007  29.327  0.00  0.00    +0.046 C 
ENDBRANCH   5  12
ENDBRANCH   4   7
ENDBRANCH   1   4
BRANCH   1  15
ATOM     15  C9  UNL     1      19.273  -0.098  25.655  0.00  0.00    +0.140 C 
BRANCH  15  16
ATOM     16  N2  UNL     1      17.808  -0.214  25.608  0.00  0.00    -0.297 N 
ATOM     17  C10 UNL     1      17.169  -0.881  24.472  0.00  0.00    +0.132 C 
ATOM     18  C11 UNL     1      17.004   0.131  26.749  0.00  0.00    +0.265 C 
ATOM     19  O3  UNL     1      16.129  -0.679  27.158  0.00  0.00    -0.268 OA
BRANCH  18  20
ATOM     20  C12 UNL     1      17.159   1.434  27.427  0.00  0.00    +0.135 A 
ATOM     21  C13 UNL     1      17.913   1.590  28.615  0.00  0.00    +0.045 A 
ATOM     22  C14 UNL     1      17.912   2.894  29.091  0.00  0.00    +0.007 A 
ATOM     23  C15 UNL     1      18.519   3.392  30.358  0.00  0.00    +0.053 C 
ATOM     24  S1  UNL     1      16.943   3.751  28.044  0.00  0.00    +0.007 S 
ATOM     25  N3  UNL     1      16.536   2.553  26.969  0.00  0.00    -0.206 NA
ENDBRANCH  18  20
ENDBRANCH  15  16
ENDBRANCH   1  15
TORSDOF 7
ENDMDL
MODEL 5
REMARK VINA RESULT:    -5.616      4.751      6.620
REMARK INTER + INTRA:          -8.436
REMARK INTER:                  -7.314
REMARK INTRA:                  -1.122
REMARK UNBOUND:                -0.686
REMARK  Name = /home/qwerty/github/datacon2025hack/step_04_hit_selection/docking/ligands/lig_356.pdb
REMARK  10 active torsions:
REMARK  status: ('A' for Active; 'I' for Inactive)
REMARK    1  A    between atoms: C4_4  and  C5_5
REMARK    2  A    between atoms: C4_4  and  C6_6
REMARK    3  A    between atoms: N1_8  and  C7_9
REMARK    4  A    between atoms: C7_9  and  C8_10
REMARK    5  A    between atoms: C8_10  and  O2_11
REMARK    6  A    between atoms: C8_10  and  C9_12
REMARK    7  A    between atoms: C9_12  and  N2_13
REMARK    8  A    between atoms: N2_13  and  C10_14
REMARK    9  A    between atoms: C11_15  and  C12_17
REMARK   10  A    between atoms: C14_19  and  C15_20
REMARK                            x       y       z     vdW  Elec       q    Type
REMARK                         _______ _______ _______ _____ _____    ______ ____
ROOT
ATOM      1  C8  UNL     1      16.241  12.573  36.628  0.00  0.00    +0.149 C 
ENDROOT
BRANCH   1   2
ATOM      2  O2  UNL     1      17.495  13.018  37.076  0.00  0.00    -0.389 OA
ATOM      3  H12 UNL     1      17.876  13.583  36.353  0.00  0.00    +0.210 HD
ENDBRANCH   1   2
BRANCH   1   4
ATOM      4  C7  UNL     1      15.161  13.590  37.042  0.00  0.00    +0.137 C 
BRANCH   4   7
ATOM      5  C6  UNL     1      12.825  13.301  36.119  0.00  0.00    +0.220 C 
ATOM      6  O1  UNL     1      13.049  14.192  35.254  0.00  0.00    -0.275 OA
ATOM      7  N1  UNL     1      13.832  12.977  37.087  0.00  0.00    -0.312 N 
ATOM      8  H8  UNL     1      13.604  12.280  37.832  0.00  0.00    +0.149 HD
BRANCH   5  12
ATOM      9  C1  UNL     1      10.875   9.202  36.793  0.00  0.00    +0.007 C 
ATOM     10  C2  UNL     1      11.103  10.493  36.569  0.00  0.00    -0.075 C 
ATOM     11  C3  UNL     1      11.310  11.395  35.364  0.00  0.00    +0.046 C 
ATOM     12  C4  UNL     1      11.463  12.648  36.196  0.00  0.00    +0.051 C 
ATOM     13  C5  UNL     1      10.323  13.660  36.001  0.00  0.00    +0.021 C 
ATOM     14  C16 UNL     1      11.281  11.753  37.399  0.00  0.00    +0.046 C 
ENDBRANCH   5  12
ENDBRANCH   4   7
ENDBRANCH   1   4
BRANCH   1  15
ATOM     15  C9  UNL     1      15.960  11.187  37.232  0.00  0.00    +0.140 C 
BRANCH  15  16
ATOM     16  N2  UNL     1      15.828  10.177  36.172  0.00  0.00    -0.297 N 
ATOM     17  C10 UNL     1      14.550   9.489  35.979  0.00  0.00    +0.132 C 
ATOM     18  C11 UNL     1      16.865   9.997  35.192  0.00  0.00    +0.265 C 
ATOM     19  O3  UNL     1      16.564   9.978  33.968  0.00  0.00    -0.268 OA
BRANCH  18  20
ATOM     20  C12 UNL     1      18.271   9.797  35.595  0.00  0.00    +0.135 A 
ATOM     21  C13 UNL     1      18.711   8.635  36.276  0.00  0.00    +0.045 A 
ATOM     22  C14 UNL     1      20.067   8.661  36.572  0.00  0.00    +0.007 A 
ATOM     23  C15 UNL     1      20.838   7.657  37.359  0.00  0.00    +0.053 C 
ATOM     24  S1  UNL     1      20.618  10.132  36.019  0.00  0.00    +0.007 S 
ATOM     25  N3  UNL     1      19.218  10.749  35.375  0.00  0.00    -0.206 NA
ENDBRANCH  18  20
ENDBRANCH  15  16
ENDBRANCH   1  15
TORSDOF 7
ENDMDL
MODEL 6
REMARK VINA RESULT:    -5.585      2.869      4.330
REMARK INTER + INTRA:          -8.394
REMARK INTER:                  -7.664
REMARK INTRA:                  -0.730
REMARK UNBOUND:                -0.686
REMARK  Name = /home/qwerty/github/datacon2025hack/step_04_hit_selection/docking/ligands/lig_356.pdb
REMARK  10 active torsions:
REMARK  status: ('A' for Active; 'I' for Inactive)
REMARK    1  A    between atoms: C4_4  and  C5_5
REMARK    2  A    between atoms: C4_4  and  C6_6
REMARK    3  A    between atoms: N1_8  and  C7_9
REMARK    4  A    between atoms: C7_9  and  C8_10
REMARK    5  A    between atoms: C8_10  and  O2_11
REMARK    6  A    between atoms: C8_10  and  C9_12
REMARK    7  A    between atoms: C9_12  and  N2_13
REMARK    8  A    between atoms: N2_13  and  C10_14
REMARK    9  A    between atoms: C11_15  and  C12_17
REMARK   10  A    between atoms: C14_19  and  C15_20
REMARK                            x       y       z     vdW  Elec       q    Type
REMARK                         _______ _______ _______ _____ _____    ______ ____
ROOT
ATOM      1  C8  UNL     1      13.026  14.469  29.763  0.00  0.00    +0.149 C 
ENDROOT
BRANCH   1   2
ATOM      2  O2  UNL     1      12.796  15.702  30.395  0.00  0.00    -0.389 OA
ATOM      3  H12 UNL     1      13.657  16.199  30.382  0.00  0.00    +0.210 HD
ENDBRANCH   1   2
BRANCH   1   4
ATOM      4  C7  UNL     1      12.306  14.451  28.402  0.00  0.00    +0.137 C 
BRANCH   4   7
ATOM      5  C6  UNL     1      10.224  13.125  27.859  0.00  0.00    +0.220 C 
ATOM      6  O1  UNL     1      10.875  12.428  27.033  0.00  0.00    -0.275 OA
ATOM      7  N1  UNL     1      10.871  14.199  28.555  0.00  0.00    -0.312 N 
ATOM      8  H8  UNL     1      10.299  14.801  29.188  0.00  0.00    +0.149 HD
BRANCH   5  12
ATOM      9  C1  UNL     1       7.288  10.047  29.582  0.00  0.00    +0.007 C 
ATOM     10  C2  UNL     1       7.839  11.111  29.004  0.00  0.00    -0.075 C 
ATOM     11  C3  UNL     1       8.253  11.529  27.603  0.00  0.00    +0.046 C 
ATOM     12  C4  UNL     1       8.740  12.892  28.040  0.00  0.00    +0.051 C 
ATOM     13  C5  UNL     1       7.898  14.053  27.487  0.00  0.00    +0.021 C 
ATOM     14  C16 UNL     1       8.353  12.474  29.438  0.00  0.00    +0.046 C 
ENDBRANCH   5  12
ENDBRANCH   4   7
ENDBRANCH   1   4
BRANCH   1  15
ATOM     15  C9  UNL     1      12.518  13.340  30.676  0.00  0.00    +0.140 C 
BRANCH  15  16
ATOM     16  N2  UNL     1      13.634  12.725  31.409  0.00  0.00    -0.297 N 
ATOM     17  C10 UNL     1      14.669  11.995  30.675  0.00  0.00    +0.132 C 
ATOM     18  C11 UNL     1      13.838  12.998  32.806  0.00  0.00    +0.265 C 
ATOM     19  O3  UNL     1      14.981  13.346  33.208  0.00  0.00    -0.268 OA
BRANCH  18  20
ATOM     20  C12 UNL     1      12.743  12.842  33.784  0.00  0.00    +0.135 A 
ATOM     21  C13 UNL     1      11.827  13.882  34.076  0.00  0.00    +0.045 A 
ATOM     22  C14 UNL     1      10.890  13.525  35.035  0.00  0.00    +0.007 A 
ATOM     23  C15 UNL     1       9.847  14.399  35.646  0.00  0.00    +0.053 C 
ATOM     24  S1  UNL     1      11.285  11.974  35.492  0.00  0.00    +0.007 S 
ATOM     25  N3  UNL     1      12.586  11.695  34.499  0.00  0.00    -0.206 NA
ENDBRANCH  18  20
ENDBRANCH  15  16
ENDBRANCH   1  15
TORSDOF 7
ENDMDL
MODEL 7
REMARK VINA RESULT:    -5.574      8.200     11.486
REMARK INTER + INTRA:          -8.378
REMARK INTER:                  -7.562
REMARK INTRA:                  -0.817
REMARK UNBOUND:                -0.686
REMARK  Name = /home/qwerty/github/datacon2025hack/step_04_hit_selection/docking/ligands/lig_356.pdb
REMARK  10 active torsions:
REMARK  status: ('A' for Active; 'I' for Inactive)
REMARK    1  A    between atoms: C4_4  and  C5_5
REMARK    2  A    between atoms: C4_4  and  C6_6
REMARK    3  A    between atoms: N1_8  and  C7_9
REMARK    4  A    between atoms: C7_9  and  C8_10
REMARK    5  A    between atoms: C8_10  and  O2_11
REMARK    6  A    between atoms: C8_10  and  C9_12
REMARK    7  A    between atoms: C9_12  and  N2_13
REMARK    8  A    between atoms: N2_13  and  C10_14
REMARK    9  A    between atoms: C11_15  and  C12_17
REMARK   10  A    between atoms: C14_19  and  C15_20
REMARK                            x       y       z     vdW  Elec       q    Type
REMARK                         _______ _______ _______ _____ _____    ______ ____
ROOT
ATOM      1  C8  UNL     1       7.714  10.310  23.545  0.00  0.00    +0.149 C 
ENDROOT
BRANCH   1   2
ATOM      2  O2  UNL     1       6.399  10.798  23.607  0.00  0.00    -0.389 OA
ATOM      3  H12 UNL     1       6.427  11.636  24.139  0.00  0.00    +0.210 HD
ENDBRANCH   1   2
BRANCH   1   4
ATOM      4  C7  UNL     1       7.989   9.762  22.132  0.00  0.00    +0.137 C 
BRANCH   4   7
ATOM      5  C6  UNL     1       8.306   7.362  21.404  0.00  0.00    +0.220 C 
ATOM      6  O1  UNL     1       9.445   7.645  20.942  0.00  0.00    -0.275 OA
ATOM      7  N1  UNL     1       7.492   8.393  21.979  0.00  0.00    -0.312 N 
ATOM      8  H8  UNL     1       6.528   8.149  22.299  0.00  0.00    +0.149 HD
BRANCH   5  12
ATOM      9  C1  UNL     1       9.291   3.027  22.541  0.00  0.00    +0.007 C 
ATOM     10  C2  UNL     1       8.723   4.130  22.063  0.00  0.00    -0.075 C 
ATOM     11  C3  UNL     1       8.760   4.934  20.773  0.00  0.00    +0.046 C 
ATOM     12  C4  UNL     1       7.760   5.958  21.260  0.00  0.00    +0.051 C 
ATOM     13  C5  UNL     1       6.427   5.929  20.496  0.00  0.00    +0.021 C 
ATOM     14  C16 UNL     1       7.736   5.177  22.552  0.00  0.00    +0.046 C 
ENDBRANCH   5  12
ENDBRANCH   4   7
ENDBRANCH   1   4
BRANCH   1  15
ATOM     15  C9  UNL     1       7.889   9.214  24.610  0.00  0.00    +0.140 C 
BRANCH  15  16
ATOM     16  N2  UNL     1       9.270   9.198  25.115  0.00  0.00    -0.297 N 
ATOM     17  C10 UNL     1      10.222   8.217  24.591  0.00  0.00    +0.132 C 
ATOM     18  C11 UNL     1       9.758  10.253  25.960  0.00  0.00    +0.265 C 
ATOM     19  O3  UNL     1      10.850  10.817  25.679  0.00  0.00    -0.268 OA
BRANCH  18  20
ATOM     20  C12 UNL     1       9.023  10.662  27.174  0.00  0.00    +0.135 A 
ATOM     21  C13 UNL     1       8.835  12.020  27.529  0.00  0.00    +0.045 A 
ATOM     22  C14 UNL     1       8.131  12.178  28.715  0.00  0.00    +0.007 A 
ATOM     23  C15 UNL     1       7.839  13.454  29.429  0.00  0.00    +0.053 C 
ATOM     24  S1  UNL     1       7.833  10.636  29.267  0.00  0.00    +0.007 S 
ATOM     25  N3  UNL     1       8.526   9.746  28.049  0.00  0.00    -0.206 NA
ENDBRANCH  18  20
ENDBRANCH  15  16
ENDBRANCH   1  15
TORSDOF 7
ENDMDL
MODEL 8
REMARK VINA RESULT:    -5.501      7.711     11.777
REMARK INTER + INTRA:          -8.278
REMARK INTER:                  -7.226
REMARK INTRA:                  -1.052
REMARK UNBOUND:                -0.686
REMARK  Name = /home/qwerty/github/datacon2025hack/step_04_hit_selection/docking/ligands/lig_356.pdb
REMARK  10 active torsions:
REMARK  status: ('A' for Active; 'I' for Inactive)
REMARK    1  A    between atoms: C4_4  and  C5_5
REMARK    2  A    between atoms: C4_4  and  C6_6
REMARK    3  A    between atoms: N1_8  and  C7_9
REMARK    4  A    between atoms: C7_9  and  C8_10
REMARK    5  A    between atoms: C8_10  and  O2_11
REMARK    6  A    between atoms: C8_10  and  C9_12
REMARK    7  A    between atoms: C9_12  and  N2_13
REMARK    8  A    between atoms: N2_13  and  C10_14
REMARK    9  A    between atoms: C11_15  and  C12_17
REMARK   10  A    between atoms: C14_19  and  C15_20
REMARK                            x       y       z     vdW  Elec       q    Type
REMARK                         _______ _______ _______ _____ _____    ______ ____
ROOT
ATOM      1  C8  UNL     1      20.801   8.843  36.245  0.00  0.00    +0.149 C 
ENDROOT
BRANCH   1   2
ATOM      2  O2  UNL     1      20.336   9.097  37.546  0.00  0.00    -0.389 OA
ATOM      3  H12 UNL     1      20.590   8.313  38.101  0.00  0.00    +0.210 HD
ENDBRANCH   1   2
BRANCH   1   4
ATOM      4  C7  UNL     1      22.175   8.151  36.320  0.00  0.00    +0.137 C 
BRANCH   4   7
ATOM      5  C6  UNL     1      23.636   7.188  34.496  0.00  0.00    +0.220 C 
ATOM      6  O1  UNL     1      23.705   6.093  35.120  0.00  0.00    -0.275 OA
ATOM      7  N1  UNL     1      22.918   8.290  35.066  0.00  0.00    -0.312 N 
ATOM      8  H8  UNL     1      22.925   9.205  34.562  0.00  0.00    +0.149 HD
BRANCH   5  12
ATOM      9  C1  UNL     1      23.971  10.068  30.939  0.00  0.00    +0.007 C 
ATOM     10  C2  UNL     1      24.124   9.057  31.790  0.00  0.00    -0.075 C 
ATOM     11  C3  UNL     1      23.530   7.673  31.996  0.00  0.00    +0.046 C 
ATOM     12  C4  UNL     1      24.394   7.367  33.199  0.00  0.00    +0.051 C 
ATOM     13  C5  UNL     1      25.407   6.237  32.957  0.00  0.00    +0.021 C 
ATOM     14  C16 UNL     1      24.971   8.750  33.014  0.00  0.00    +0.046 C 
ENDBRANCH   5  12
ENDBRANCH   4   7
ENDBRANCH   1   4
BRANCH   1  15
ATOM     15  C9  UNL     1      20.891  10.175  35.481  0.00  0.00    +0.140 C 
BRANCH  15  16
ATOM     16  N2  UNL     1      20.046  10.139  34.279  0.00  0.00    -0.297 N 
ATOM     17  C10 UNL     1      20.669  10.112  32.954  0.00  0.00    +0.132 C 
ATOM     18  C11 UNL     1      18.628   9.925  34.381  0.00  0.00    +0.265 C 
ATOM     19  O3  UNL     1      18.080   9.044  33.662  0.00  0.00    -0.268 OA
BRANCH  18  20
ATOM     20  C12 UNL     1      17.793  10.743  35.283  0.00  0.00    +0.135 A 
ATOM     21  C13 UNL     1      17.341  12.040  34.937  0.00  0.00    +0.045 A 
ATOM     22  C14 UNL     1      16.586  12.636  35.938  0.00  0.00    +0.007 A 
ATOM     23  C15 UNL     1      16.037  14.022  35.949  0.00  0.00    +0.053 C 
ATOM     24  S1  UNL     1      16.569  11.545  37.195  0.00  0.00    +0.007 S 
ATOM     25  N3  UNL     1      17.454  10.310  36.527  0.00  0.00    -0.206 NA
ENDBRANCH  18  20
ENDBRANCH  15  16
ENDBRANCH   1  15
TORSDOF 7
ENDMDL
MODEL 9
REMARK VINA RESULT:    -5.497      4.927      6.507
REMARK INTER + INTRA:          -8.271
REMARK INTER:                  -7.252
REMARK INTRA:                  -1.019
REMARK UNBOUND:                -0.686
REMARK  Name = /home/qwerty/github/datacon2025hack/step_04_hit_selection/docking/ligands/lig_356.pdb
REMARK  10 active torsions:
REMARK  status: ('A' for Active; 'I' for Inactive)
REMARK    1  A    between atoms: C4_4  and  C5_5
REMARK    2  A    between atoms: C4_4  and  C6_6
REMARK    3  A    between atoms: N1_8  and  C7_9
REMARK    4  A    between atoms: C7_9  and  C8_10
REMARK    5  A    between atoms: C8_10  and  O2_11
REMARK    6  A    between atoms: C8_10  and  C9_12
REMARK    7  A    between atoms: C9_12  and  N2_13
REMARK    8  A    between atoms: N2_13  and  C10_14
REMARK    9  A    between atoms: C11_15  and  C12_17
REMARK   10  A    between atoms: C14_19  and  C15_20
REMARK                            x       y       z     vdW  Elec       q    Type
REMARK                         _______ _______ _______ _____ _____    ______ ____
ROOT
ATOM      1  C8  UNL     1      15.509  14.779  36.455  0.00  0.00    +0.149 C 
ENDROOT
BRANCH   1   2
ATOM      2  O2  UNL     1      15.783  15.639  37.531  0.00  0.00    -0.389 OA
ATOM      3  H12 UNL     1      16.170  15.082  38.255  0.00  0.00    +0.210 HD
ENDBRANCH   1   2
BRANCH   1   4
ATOM      4  C7  UNL     1      13.984  14.634  36.293  0.00  0.00    +0.137 C 
BRANCH   4   7
ATOM      5  C6  UNL     1      12.180  12.866  36.372  0.00  0.00    +0.220 C 
ATOM      6  O1  UNL     1      11.326  13.710  35.984  0.00  0.00    -0.275 OA
ATOM      7  N1  UNL     1      13.536  13.274  36.596  0.00  0.00    -0.312 N 
ATOM      8  H8  UNL     1      14.212  12.573  36.976  0.00  0.00    +0.149 HD
BRANCH   5  12
ATOM      9  C1  UNL     1      12.812   8.544  34.965  0.00  0.00    +0.007 C 
ATOM     10  C2  UNL     1      12.417   9.638  35.610  0.00  0.00    -0.075 C 
ATOM     11  C3  UNL     1      11.280  10.642  35.509  0.00  0.00    +0.046 C 
ATOM     12  C4  UNL     1      11.751  11.452  36.696  0.00  0.00    +0.051 C 
ATOM     13  C5  UNL     1      10.793  11.397  37.897  0.00  0.00    +0.021 C 
ATOM     14  C16 UNL     1      12.896  10.472  36.787  0.00  0.00    +0.046 C 
ENDBRANCH   5  12
ENDBRANCH   4   7
ENDBRANCH   1   4
BRANCH   1  15
ATOM     15  C9  UNL     1      16.170  13.417  36.727  0.00  0.00    +0.140 C 
BRANCH  15  16
ATOM     16  N2  UNL     1      17.237  13.155  35.750  0.00  0.00    -0.297 N 
ATOM     17  C10 UNL     1      17.297  13.937  34.513  0.00  0.00    +0.132 C 
ATOM     18  C11 UNL     1      18.338  12.290  36.076  0.00  0.00    +0.265 C 
ATOM     19  O3  UNL     1      19.519  12.685  35.869  0.00  0.00    -0.268 OA
BRANCH  18  20
ATOM     20  C12 UNL     1      18.113  10.933  36.612  0.00  0.00    +0.135 A 
ATOM     21  C13 UNL     1      17.039  10.114  36.187  0.00  0.00    +0.045 A 
ATOM     22  C14 UNL     1      17.006   8.885  36.831  0.00  0.00    +0.007 A 
ATOM     23  C15 UNL     1      15.966   7.825  36.699  0.00  0.00    +0.053 C 
ATOM     24  S1  UNL     1      18.270   8.914  37.913  0.00  0.00    +0.007 S 
ATOM     25  N3  UNL     1      18.904  10.413  37.588  0.00  0.00    -0.206 NA
ENDBRANCH  18  20
ENDBRANCH  15  16
ENDBRANCH   1  15
TORSDOF 7
ENDMDL
