REMARK  Name = /home/qwerty/github/datacon2025hack/step_04_hit_selection/docking/ligands/lig_37.pdb
REMARK  7 active torsions:
REMARK  status: ('A' for Active; 'I' for Inactive)
REMARK    1  A    between atoms: C1_1  and  C2_2
REMARK    2  A    between atoms: C2_2  and  C3_3
REMARK    3  A    between atoms: C2_2  and  N1_4
REMARK    4  A    between atoms: C4_5  and  C5_7
REMARK    5  A    between atoms: C9_15  and  C10_16
REMARK    6  A    between atoms: N5_22  and  C15_23
REMARK    7  A    between atoms: C15_23  and  C16_24
REMARK                            x       y       z     vdW  Elec       q    Type
REMARK                         _______ _______ _______ _____ _____    ______ ____
ROOT
ATOM      1  C5  UNL     1      -1.266  -1.348  -0.262  0.00  0.00    +0.221 A 
ATOM      2  N2  UNL     1      -0.734  -2.140  -1.215  0.00  0.00    -0.123 NA
ATOM      3  N3  UNL     1       0.539  -1.805  -1.345  0.00  0.00    -0.113 NA
ATOM      4  C6  UNL     1       0.767  -0.802  -0.477  0.00  0.00    +0.220 A 
ATOM      5  N4  UNL     1       2.060  -0.199  -0.305  0.00  0.00    -0.295 N 
ATOM      6  C7  UNL     1       2.244   1.222  -0.622  0.00  0.00    +0.136 C 
ATOM      7  C8  UNL     1       3.731   1.542  -0.771  0.00  0.00    +0.180 C 
ATOM      8  O2  UNL     1       4.436   1.055   0.351  0.00  0.00    -0.366 OA
ATOM      9  C9  UNL     1       4.427  -0.368   0.426  0.00  0.00    +0.201 C 
ATOM     10  C14 UNL     1       3.237  -1.071  -0.283  0.00  0.00    +0.147 C 
ATOM     11  N5  UNL     1      -0.340  -0.489   0.234  0.00  0.00    -0.289 N 
ENDROOT
BRANCH   9  12
ATOM     12  C10 UNL     1       5.743  -0.901  -0.066  0.00  0.00    +0.135 A 
ATOM     13  C11 UNL     1       6.774  -1.365   0.727  0.00  0.00    +0.047 A 
ATOM     14  C12 UNL     1       7.779  -1.725  -0.145  0.00  0.00    +0.041 A 
ATOM     15  C13 UNL     1       7.303  -1.455  -1.413  0.00  0.00    +0.195 A 
ATOM     16  O3  UNL     1       6.088  -0.961  -1.334  0.00  0.00    -0.465 OA
ENDBRANCH   9  12
BRANCH   1  18
ATOM     17  N1  UNL     1      -3.614  -2.184  -0.652  0.00  0.00    -0.306 N 
ATOM     18  C4  UNL     1      -2.676  -1.471   0.169  0.00  0.00    +0.282 C 
ATOM     19  O1  UNL     1      -3.055  -0.972   1.262  0.00  0.00    -0.267 OA
ATOM     20  H8  UNL     1      -3.304  -2.514  -1.594  0.00  0.00    +0.149 HD
BRANCH  17  22
ATOM     21  C1  UNL     1      -5.868  -2.764  -1.457  0.00  0.00    +0.027 C 
ATOM     22  C2  UNL     1      -5.007  -2.399  -0.244  0.00  0.00    +0.067 C 
ATOM     23  C3  UNL     1      -5.079  -3.504   0.814  0.00  0.00    +0.027 C 
ENDBRANCH  17  22
ENDBRANCH   1  18
BRANCH  11  24
ATOM     24  C15 UNL     1      -0.481   0.544   1.267  0.00  0.00    +0.158 C 
BRANCH  24  25
ATOM     25  C16 UNL     1      -1.070   1.836   0.675  0.00  0.00    +0.138 C 
ATOM     26  C17 UNL     1      -0.988   2.996   1.695  0.00  0.00    +0.033 C 
ATOM     27  C18 UNL     1      -2.127   4.008   1.492  0.00  0.00    +0.005 C 
ATOM     28  C19 UNL     1      -2.539   4.082   0.021  0.00  0.00    +0.028 C 
ATOM     29  C20 UNL     1      -2.879   2.677  -0.528  0.00  0.00    +0.160 C 
ATOM     30  O4  UNL     1      -2.418   1.619   0.300  0.00  0.00    -0.375 OA
ENDBRANCH  24  25
ENDBRANCH  11  24
TORSDOF 5
