MODEL 1
REMARK VINA RESULT:    -7.052      0.000      0.000
REMARK INTER + INTRA:          -9.618
REMARK INTER:                  -9.113
REMARK INTRA:                  -0.505
REMARK UNBOUND:                -0.505
REMARK  Name = /home/qwerty/github/datacon2025hack/step_04_hit_selection/docking/ligands/lig_224.pdb
REMARK  7 active torsions:
REMARK  status: ('A' for Active; 'I' for Inactive)
REMARK    1  A    between atoms: C1_1  and  O1_2
REMARK    2  A    between atoms: O1_2  and  C2_3
REMARK    3  A    between atoms: C11_12  and  C12_13
REMARK    4  A    between atoms: C12_13  and  N1_14
REMARK    5  A    between atoms: C13_15  and  C14_17
REMARK    6  A    between atoms: C17_20  and  C18_21
REMARK    7  A    between atoms: C19_24  and  C20_25
REMARK                            x       y       z     vdW  Elec       q    Type
REMARK                         _______ _______ _______ _____ _____    ______ ____
ROOT
ATOM      1  N1  UNL     1      11.922  13.186  31.418  0.00  0.00    -0.311 N 
ATOM      2  C13 UNL     1      12.426  14.120  32.389  0.00  0.00    +0.244 C 
ATOM      3  O2  UNL     1      11.804  15.198  32.596  0.00  0.00    -0.270 OA
ATOM      4  H16 UNL     1      12.391  12.262  31.286  0.00  0.00    +0.149 HD
ENDROOT
BRANCH   2   5
ATOM      5  C14 UNL     1      13.656  13.833  33.165  0.00  0.00    +0.037 A 
ATOM      6  C15 UNL     1      13.799  14.268  34.494  0.00  0.00    +0.014 A 
ATOM      7  C16 UNL     1      14.965  13.984  35.212  0.00  0.00    +0.012 A 
ATOM      8  C17 UNL     1      16.009  13.256  34.619  0.00  0.00    +0.021 A 
ATOM      9  C21 UNL     1      15.862  12.810  33.296  0.00  0.00    +0.012 A 
ATOM     10  C22 UNL     1      14.696  13.092  32.578  0.00  0.00    +0.014 A 
BRANCH   8  11
ATOM     11  C18 UNL     1      17.242  12.958  35.379  0.00  0.00    +0.181 A 
ATOM     12  N2  UNL     1      17.255  12.624  36.687  0.00  0.00    -0.152 NA
ATOM     13  N3  UNL     1      18.524  12.442  37.000  0.00  0.00    -0.262 N 
ATOM     14  C19 UNL     1      19.253  12.655  35.894  0.00  0.00    +0.122 A 
ATOM     15  C20 UNL     1      20.744  12.608  35.852  0.00  0.00    +0.087 C 
ATOM     16  N4  UNL     1      18.483  12.997  34.844  0.00  0.00    -0.212 NA
ATOM     17  H19 UNL     1      18.874  12.186  37.950  0.00  0.00    +0.190 HD
ENDBRANCH   8  11
ENDBRANCH   2   5
BRANCH   1  18
ATOM     18  C12 UNL     1      10.745  13.468  30.595  0.00  0.00    +0.112 C 
BRANCH  18  28
ATOM     19  C2  UNL     1       7.772   9.475  29.860  0.00  0.00    +0.120 A 
ATOM     20  C3  UNL     1       9.008   9.419  30.506  0.00  0.00    +0.046 A 
ATOM     21  C4  UNL     1       9.960  10.419  30.304  0.00  0.00    +0.008 A 
ATOM     22  C5  UNL     1       9.694  11.501  29.449  0.00  0.00    -0.039 A 
ATOM     23  C6  UNL     1       8.439  11.571  28.793  0.00  0.00    -0.040 A 
ATOM     24  C7  UNL     1       7.495  10.551  28.997  0.00  0.00    +0.049 A 
ATOM     25  C8  UNL     1       8.133  12.643  27.774  0.00  0.00    +0.035 C 
ATOM     26  C9  UNL     1       9.042  13.868  27.895  0.00  0.00    +0.005 C 
ATOM     27  C10 UNL     1      10.504  13.442  28.037  0.00  0.00    +0.010 C 
ATOM     28  C11 UNL     1      10.729  12.603  29.313  0.00  0.00    +0.036 C 
BRANCH  19  30
ATOM     29  C1  UNL     1       7.115   7.061  29.872  0.00  0.00    +0.277 C 
ATOM     30  O1  UNL     1       6.851   8.443  30.095  0.00  0.00    -0.495 OA
ENDBRANCH  19  30
ENDBRANCH  18  28
ENDBRANCH   1  18
TORSDOF 5
ENDMDL
MODEL 2
REMARK VINA RESULT:    -6.998     12.995     16.037
REMARK INTER + INTRA:          -9.548
REMARK INTER:                  -8.971
REMARK INTRA:                  -0.577
REMARK UNBOUND:                -0.505
REMARK  Name = /home/qwerty/github/datacon2025hack/step_04_hit_selection/docking/ligands/lig_224.pdb
REMARK  7 active torsions:
REMARK  status: ('A' for Active; 'I' for Inactive)
REMARK    1  A    between atoms: C1_1  and  O1_2
REMARK    2  A    between atoms: O1_2  and  C2_3
REMARK    3  A    between atoms: C11_12  and  C12_13
REMARK    4  A    between atoms: C12_13  and  N1_14
REMARK    5  A    between atoms: C13_15  and  C14_17
REMARK    6  A    between atoms: C17_20  and  C18_21
REMARK    7  A    between atoms: C19_24  and  C20_25
REMARK                            x       y       z     vdW  Elec       q    Type
REMARK                         _______ _______ _______ _____ _____    ______ ____
ROOT
ATOM      1  N1  UNL     1      12.803   2.133  20.801  0.00  0.00    -0.311 N 
ATOM      2  C13 UNL     1      12.951   3.421  20.179  0.00  0.00    +0.244 C 
ATOM      3  O2  UNL     1      13.899   3.617  19.370  0.00  0.00    -0.270 OA
ATOM      4  H16 UNL     1      11.985   1.941  21.421  0.00  0.00    +0.149 HD
ENDROOT
BRANCH   2   5
ATOM      5  C14 UNL     1      11.999   4.523  20.458  0.00  0.00    +0.037 A 
ATOM      6  C15 UNL     1      12.432   5.858  20.545  0.00  0.00    +0.014 A 
ATOM      7  C16 UNL     1      11.519   6.885  20.805  0.00  0.00    +0.012 A 
ATOM      8  C17 UNL     1      10.155   6.601  20.977  0.00  0.00    +0.021 A 
ATOM      9  C21 UNL     1       9.719   5.270  20.878  0.00  0.00    +0.012 A 
ATOM     10  C22 UNL     1      10.631   4.243  20.616  0.00  0.00    +0.014 A 
BRANCH   8  11
ATOM     11  C18 UNL     1       9.191   7.687  21.253  0.00  0.00    +0.181 A 
ATOM     12  N2  UNL     1       7.921   7.477  21.662  0.00  0.00    -0.152 NA
ATOM     13  N3  UNL     1       7.381   8.675  21.793  0.00  0.00    -0.262 N 
ATOM     14  C19 UNL     1       8.318   9.582  21.477  0.00  0.00    +0.122 A 
ATOM     15  C20 UNL     1       8.078  11.054  21.440  0.00  0.00    +0.087 C 
ATOM     16  N4  UNL     1       9.478   9.001  21.116  0.00  0.00    -0.212 NA
ATOM     17  H19 UNL     1       6.396   8.856  22.086  0.00  0.00    +0.190 HD
ENDBRANCH   8  11
ENDBRANCH   2   5
BRANCH   1  18
ATOM     18  C12 UNL     1      13.760   1.046  20.592  0.00  0.00    +0.112 C 
BRANCH  18  28
ATOM     19  C2  UNL     1      14.619  -1.520  24.834  0.00  0.00    +0.120 A 
ATOM     20  C3  UNL     1      13.868  -0.344  24.771  0.00  0.00    +0.046 A 
ATOM     21  C4  UNL     1      14.020   0.538  23.701  0.00  0.00    +0.008 A 
ATOM     22  C5  UNL     1      14.928   0.261  22.666  0.00  0.00    -0.039 A 
ATOM     23  C6  UNL     1      15.690  -0.934  22.717  0.00  0.00    -0.040 A 
ATOM     24  C7  UNL     1      15.535  -1.806  23.806  0.00  0.00    +0.049 A 
ATOM     25  C8  UNL     1      16.765  -1.236  21.699  0.00  0.00    +0.035 C 
ATOM     26  C9  UNL     1      16.606  -0.443  20.400  0.00  0.00    +0.005 C 
ATOM     27  C10 UNL     1      16.327   1.031  20.699  0.00  0.00    +0.010 C 
ATOM     28  C11 UNL     1      15.011   1.212  21.486  0.00  0.00    +0.036 C 
BRANCH  19  30
ATOM     29  C1  UNL     1      13.749  -2.004  27.129  0.00  0.00    +0.277 C 
ATOM     30  O1  UNL     1      14.430  -2.371  25.934  0.00  0.00    -0.495 OA
ENDBRANCH  19  30
ENDBRANCH  18  28
ENDBRANCH   1  18
TORSDOF 5
ENDMDL
MODEL 3
REMARK VINA RESULT:    -6.980     10.517     12.997
REMARK INTER + INTRA:          -9.525
REMARK INTER:                  -8.937
REMARK INTRA:                  -0.588
REMARK UNBOUND:                -0.505
REMARK  Name = /home/qwerty/github/datacon2025hack/step_04_hit_selection/docking/ligands/lig_224.pdb
REMARK  7 active torsions:
REMARK  status: ('A' for Active; 'I' for Inactive)
REMARK    1  A    between atoms: C1_1  and  O1_2
REMARK    2  A    between atoms: O1_2  and  C2_3
REMARK    3  A    between atoms: C11_12  and  C12_13
REMARK    4  A    between atoms: C12_13  and  N1_14
REMARK    5  A    between atoms: C13_15  and  C14_17
REMARK    6  A    between atoms: C17_20  and  C18_21
REMARK    7  A    between atoms: C19_24  and  C20_25
REMARK                            x       y       z     vdW  Elec       q    Type
REMARK                         _______ _______ _______ _____ _____    ______ ____
ROOT
ATOM      1  N1  UNL     1      21.777   3.686  32.208  0.00  0.00    -0.311 N 
ATOM      2  C13 UNL     1      21.162   3.498  33.495  0.00  0.00    +0.244 C 
ATOM      3  O2  UNL     1      21.001   2.330  33.943  0.00  0.00    -0.270 OA
ATOM      4  H16 UNL     1      21.975   4.650  31.858  0.00  0.00    +0.149 HD
ENDROOT
BRANCH   2   5
ATOM      5  C14 UNL     1      20.726   4.654  34.314  0.00  0.00    +0.037 A 
ATOM      6  C15 UNL     1      21.557   5.773  34.499  0.00  0.00    +0.014 A 
ATOM      7  C16 UNL     1      21.128   6.857  35.272  0.00  0.00    +0.012 A 
ATOM      8  C17 UNL     1      19.858   6.846  35.872  0.00  0.00    +0.021 A 
ATOM      9  C21 UNL     1      19.022   5.735  35.677  0.00  0.00    +0.012 A 
ATOM     10  C22 UNL     1      19.450   4.652  34.903  0.00  0.00    +0.014 A 
BRANCH   8  11
ATOM     11  C18 UNL     1      19.405   7.992  36.690  0.00  0.00    +0.181 A 
ATOM     12  N2  UNL     1      20.242   8.879  37.267  0.00  0.00    -0.152 NA
ATOM     13  N3  UNL     1      19.472   9.738  37.909  0.00  0.00    -0.262 N 
ATOM     14  C19 UNL     1      18.197   9.372  37.708  0.00  0.00    +0.122 A 
ATOM     15  C20 UNL     1      17.023  10.057  38.324  0.00  0.00    +0.087 C 
ATOM     16  N4  UNL     1      18.106   8.262  36.951  0.00  0.00    -0.212 NA
ATOM     17  H19 UNL     1      19.819  10.546  38.472  0.00  0.00    +0.190 HD
ENDBRANCH   8  11
ENDBRANCH   2   5
BRANCH   1  18
ATOM     18  C12 UNL     1      22.163   2.565  31.351  0.00  0.00    +0.112 C 
BRANCH  18  28
ATOM     19  C2  UNL     1      22.263   3.725  26.456  0.00  0.00    +0.120 A 
ATOM     20  C3  UNL     1      21.804   4.587  27.453  0.00  0.00    +0.046 A 
ATOM     21  C4  UNL     1      21.394   4.087  28.690  0.00  0.00    +0.008 A 
ATOM     22  C5  UNL     1      21.436   2.709  28.956  0.00  0.00    -0.039 A 
ATOM     23  C6  UNL     1      21.907   1.825  27.953  0.00  0.00    -0.040 A 
ATOM     24  C7  UNL     1      22.305   2.341  26.709  0.00  0.00    +0.049 A 
ATOM     25  C8  UNL     1      21.870   0.326  28.132  0.00  0.00    +0.035 C 
ATOM     26  C9  UNL     1      21.775  -0.105  29.597  0.00  0.00    +0.005 C 
ATOM     27  C10 UNL     1      20.708   0.709  30.331  0.00  0.00    +0.010 C 
ATOM     28  C11 UNL     1      21.048   2.215  30.339  0.00  0.00    +0.036 C 
BRANCH  19  30
ATOM     29  C1  UNL     1      21.850   5.136  24.432  0.00  0.00    +0.277 C 
ATOM     30  O1  UNL     1      22.661   4.278  25.229  0.00  0.00    -0.495 OA
ENDBRANCH  19  30
ENDBRANCH  18  28
ENDBRANCH   1  18
TORSDOF 5
ENDMDL
MODEL 4
REMARK VINA RESULT:    -6.908     11.991     14.327
REMARK INTER + INTRA:          -9.432
REMARK INTER:                  -8.570
REMARK INTRA:                  -0.862
REMARK UNBOUND:                -0.505
REMARK  Name = /home/qwerty/github/datacon2025hack/step_04_hit_selection/docking/ligands/lig_224.pdb
REMARK  7 active torsions:
REMARK  status: ('A' for Active; 'I' for Inactive)
REMARK    1  A    between atoms: C1_1  and  O1_2
REMARK    2  A    between atoms: O1_2  and  C2_3
REMARK    3  A    between atoms: C11_12  and  C12_13
REMARK    4  A    between atoms: C12_13  and  N1_14
REMARK    5  A    between atoms: C13_15  and  C14_17
REMARK    6  A    between atoms: C17_20  and  C18_21
REMARK    7  A    between atoms: C19_24  and  C20_25
REMARK                            x       y       z     vdW  Elec       q    Type
REMARK                         _______ _______ _______ _____ _____    ______ ____
ROOT
ATOM      1  N1  UNL     1       9.486   5.839  20.372  0.00  0.00    -0.311 N 
ATOM      2  C13 UNL     1      10.915   5.993  20.322  0.00  0.00    +0.244 C 
ATOM      3  O2  UNL     1      11.414   7.148  20.240  0.00  0.00    -0.270 OA
ATOM      4  H16 UNL     1       9.064   4.893  20.507  0.00  0.00    +0.149 HD
ENDROOT
BRANCH   2   5
ATOM      5  C14 UNL     1      11.816   4.817  20.381  0.00  0.00    +0.037 A 
ATOM      6  C15 UNL     1      13.086   4.840  19.778  0.00  0.00    +0.014 A 
ATOM      7  C16 UNL     1      13.925   3.723  19.847  0.00  0.00    +0.012 A 
ATOM      8  C17 UNL     1      13.515   2.564  20.525  0.00  0.00    +0.021 A 
ATOM      9  C21 UNL     1      12.252   2.544  21.139  0.00  0.00    +0.012 A 
ATOM     10  C22 UNL     1      11.414   3.661  21.071  0.00  0.00    +0.014 A 
BRANCH   8  11
ATOM     11  C18 UNL     1      14.402   1.383  20.597  0.00  0.00    +0.181 A 
ATOM     12  N2  UNL     1      14.500   0.583  21.680  0.00  0.00    -0.152 NA
ATOM     13  N3  UNL     1      15.385  -0.345  21.365  0.00  0.00    -0.262 N 
ATOM     14  C19 UNL     1      15.799  -0.105  20.112  0.00  0.00    +0.122 A 
ATOM     15  C20 UNL     1      16.852  -0.899  19.413  0.00  0.00    +0.087 C 
ATOM     16  N4  UNL     1      15.213   0.988  19.589  0.00  0.00    -0.212 NA
ATOM     17  H19 UNL     1      15.695  -1.114  22.000  0.00  0.00    +0.190 HD
ENDBRANCH   8  11
ENDBRANCH   2   5
BRANCH   1  18
ATOM     18  C12 UNL     1       8.570   6.974  20.256  0.00  0.00    +0.112 C 
BRANCH  18  28
ATOM     19  C2  UNL     1       8.504   3.818  24.175  0.00  0.00    +0.120 A 
ATOM     20  C3  UNL     1       7.639   3.725  23.083  0.00  0.00    +0.046 A 
ATOM     21  C4  UNL     1       7.404   4.833  22.268  0.00  0.00    +0.008 A 
ATOM     22  C5  UNL     1       8.032   6.062  22.529  0.00  0.00    -0.039 A 
ATOM     23  C6  UNL     1       8.918   6.165  23.630  0.00  0.00    -0.040 A 
ATOM     24  C7  UNL     1       9.136   5.045  24.449  0.00  0.00    +0.049 A 
ATOM     25  C8  UNL     1       9.536   7.483  24.034  0.00  0.00    +0.035 C 
ATOM     26  C9  UNL     1       9.535   8.520  22.909  0.00  0.00    +0.005 C 
ATOM     27  C10 UNL     1       8.167   8.574  22.227  0.00  0.00    +0.010 C 
ATOM     28  C11 UNL     1       7.803   7.222  21.576  0.00  0.00    +0.036 C 
BRANCH  19  30
ATOM     29  C1  UNL     1       9.439   1.528  24.548  0.00  0.00    +0.277 C 
ATOM     30  O1  UNL     1       8.704   2.675  24.964  0.00  0.00    -0.495 OA
ENDBRANCH  19  30
ENDBRANCH  18  28
ENDBRANCH   1  18
TORSDOF 5
ENDMDL
MODEL 5
REMARK VINA RESULT:    -6.881      6.288     11.719
REMARK INTER + INTRA:          -9.397
REMARK INTER:                  -8.828
REMARK INTRA:                  -0.569
REMARK UNBOUND:                -0.505
REMARK  Name = /home/qwerty/github/datacon2025hack/step_04_hit_selection/docking/ligands/lig_224.pdb
REMARK  7 active torsions:
REMARK  status: ('A' for Active; 'I' for Inactive)
REMARK    1  A    between atoms: C1_1  and  O1_2
REMARK    2  A    between atoms: O1_2  and  C2_3
REMARK    3  A    between atoms: C11_12  and  C12_13
REMARK    4  A    between atoms: C12_13  and  N1_14
REMARK    5  A    between atoms: C13_15  and  C14_17
REMARK    6  A    between atoms: C17_20  and  C18_21
REMARK    7  A    between atoms: C19_24  and  C20_25
REMARK                            x       y       z     vdW  Elec       q    Type
REMARK                         _______ _______ _______ _____ _____    ______ ____
ROOT
ATOM      1  N1  UNL     1      19.773  10.133  36.477  0.00  0.00    -0.311 N 
ATOM      2  C13 UNL     1      18.556  10.011  37.234  0.00  0.00    +0.244 C 
ATOM      3  O2  UNL     1      18.499   9.192  38.192  0.00  0.00    -0.270 OA
ATOM      4  H16 UNL     1      19.853  10.855  35.726  0.00  0.00    +0.149 HD
ENDROOT
BRANCH   2   5
ATOM      5  C14 UNL     1      17.370  10.844  36.922  0.00  0.00    +0.037 A 
ATOM      6  C15 UNL     1      16.094  10.507  37.406  0.00  0.00    +0.014 A 
ATOM      7  C16 UNL     1      14.986  11.306  37.105  0.00  0.00    +0.012 A 
ATOM      8  C17 UNL     1      15.132  12.460  36.319  0.00  0.00    +0.021 A 
ATOM      9  C21 UNL     1      16.408  12.805  35.846  0.00  0.00    +0.012 A 
ATOM     10  C22 UNL     1      17.516  12.007  36.148  0.00  0.00    +0.014 A 
BRANCH   8  11
ATOM     11  C18 UNL     1      13.961  13.304  36.000  0.00  0.00    +0.181 A 
ATOM     12  N2  UNL     1      14.049  14.590  35.598  0.00  0.00    -0.152 NA
ATOM     13  N3  UNL     1      12.807  14.999  35.419  0.00  0.00    -0.262 N 
ATOM     14  C19 UNL     1      11.994  13.970  35.701  0.00  0.00    +0.122 A 
ATOM     15  C20 UNL     1      10.504  14.051  35.679  0.00  0.00    +0.087 C 
ATOM     16  N4  UNL     1      12.680  12.878  36.086  0.00  0.00    -0.212 NA
ATOM     17  H19 UNL     1      12.533  15.961  35.118  0.00  0.00    +0.190 HD
ENDBRANCH   8  11
ENDBRANCH   2   5
BRANCH   1  18
ATOM     18  C12 UNL     1      20.939   9.285  36.723  0.00  0.00    +0.112 C 
BRANCH  18  28
ATOM     19  C2  UNL     1      23.731   9.020  32.545  0.00  0.00    +0.120 A 
ATOM     20  C3  UNL     1      22.463   9.601  32.601  0.00  0.00    +0.046 A 
ATOM     21  C4  UNL     1      21.577   9.272  33.627  0.00  0.00    +0.008 A 
ATOM     22  C5  UNL     1      21.942   8.352  34.623  0.00  0.00    -0.039 A 
ATOM     23  C6  UNL     1      23.230   7.762  34.580  0.00  0.00    -0.040 A 
ATOM     24  C7  UNL     1      24.107   8.094  33.534  0.00  0.00    +0.049 A 
ATOM     25  C8  UNL     1      23.644   6.681  35.551  0.00  0.00    +0.035 C 
ATOM     26  C9  UNL     1      22.796   6.658  36.825  0.00  0.00    +0.005 C 
ATOM     27  C10 UNL     1      21.308   6.753  36.483  0.00  0.00    +0.010 C 
ATOM     28  C11 UNL     1      20.974   8.075  35.760  0.00  0.00    +0.036 C 
BRANCH  19  30
ATOM     29  C1  UNL     1      24.172  10.108  30.336  0.00  0.00    +0.277 C 
ATOM     30  O1  UNL     1      24.584   9.384  31.491  0.00  0.00    -0.495 OA
ENDBRANCH  19  30
ENDBRANCH  18  28
ENDBRANCH   1  18
TORSDOF 5
ENDMDL
MODEL 6
REMARK VINA RESULT:    -6.823     12.299     13.633
REMARK INTER + INTRA:          -9.322
REMARK INTER:                  -8.880
REMARK INTRA:                  -0.442
REMARK UNBOUND:                -0.505
REMARK  Name = /home/qwerty/github/datacon2025hack/step_04_hit_selection/docking/ligands/lig_224.pdb
REMARK  7 active torsions:
REMARK  status: ('A' for Active; 'I' for Inactive)
REMARK    1  A    between atoms: C1_1  and  O1_2
REMARK    2  A    between atoms: O1_2  and  C2_3
REMARK    3  A    between atoms: C11_12  and  C12_13
REMARK    4  A    between atoms: C12_13  and  N1_14
REMARK    5  A    between atoms: C13_15  and  C14_17
REMARK    6  A    between atoms: C17_20  and  C18_21
REMARK    7  A    between atoms: C19_24  and  C20_25
REMARK                            x       y       z     vdW  Elec       q    Type
REMARK                         _______ _______ _______ _____ _____    ______ ____
ROOT
ATOM      1  N1  UNL     1      23.200  13.455  20.869  0.00  0.00    -0.311 N 
ATOM      2  C13 UNL     1      23.840  14.405  21.739  0.00  0.00    +0.244 C 
ATOM      3  O2  UNL     1      24.613  15.274  21.250  0.00  0.00    -0.270 OA
ATOM      4  H16 UNL     1      22.509  12.774  21.255  0.00  0.00    +0.149 HD
ENDROOT
BRANCH   2   5
ATOM      5  C14 UNL     1      23.598  14.393  23.202  0.00  0.00    +0.037 A 
ATOM      6  C15 UNL     1      24.198  15.340  24.049  0.00  0.00    +0.014 A 
ATOM      7  C16 UNL     1      23.955  15.317  25.426  0.00  0.00    +0.012 A 
ATOM      8  C17 UNL     1      23.103  14.350  25.983  0.00  0.00    +0.021 A 
ATOM      9  C21 UNL     1      22.492  13.411  25.136  0.00  0.00    +0.012 A 
ATOM     10  C22 UNL     1      22.734  13.435  23.759  0.00  0.00    +0.014 A 
BRANCH   8  11
ATOM     11  C18 UNL     1      22.846  14.324  27.439  0.00  0.00    +0.181 A 
ATOM     12  N2  UNL     1      23.530  13.550  28.308  0.00  0.00    -0.152 NA
ATOM     13  N3  UNL     1      23.014  13.798  29.497  0.00  0.00    -0.262 N 
ATOM     14  C19 UNL     1      22.046  14.714  29.339  0.00  0.00    +0.122 A 
ATOM     15  C20 UNL     1      21.177  15.213  30.445  0.00  0.00    +0.087 C 
ATOM     16  N4  UNL     1      21.895  15.067  28.049  0.00  0.00    -0.212 NA
ATOM     17  H19 UNL     1      23.319  13.345  30.387  0.00  0.00    +0.190 HD
ENDBRANCH   8  11
ENDBRANCH   2   5
BRANCH   1  18
ATOM     18  C12 UNL     1      23.466  13.404  19.431  0.00  0.00    +0.112 C 
BRANCH  18  28
ATOM     19  C2  UNL     1      18.958  11.220  19.912  0.00  0.00    +0.120 A 
ATOM     20  C3  UNL     1      19.981  10.728  19.099  0.00  0.00    +0.046 A 
ATOM     21  C4  UNL     1      21.009  11.566  18.668  0.00  0.00    +0.008 A 
ATOM     22  C5  UNL     1      21.037  12.920  19.042  0.00  0.00    -0.039 A 
ATOM     23  C6  UNL     1      20.007  13.427  19.873  0.00  0.00    -0.040 A 
ATOM     24  C7  UNL     1      18.972  12.575  20.290  0.00  0.00    +0.049 A 
ATOM     25  C8  UNL     1      19.913  14.896  20.217  0.00  0.00    +0.035 C 
ATOM     26  C9  UNL     1      21.235  15.644  20.035  0.00  0.00    +0.005 C 
ATOM     27  C10 UNL     1      21.877  15.284  18.694  0.00  0.00    +0.010 C 
ATOM     28  C11 UNL     1      22.211  13.779  18.609  0.00  0.00    +0.036 C 
BRANCH  19  30
ATOM     29  C1  UNL     1      17.454   9.258  19.525  0.00  0.00    +0.277 C 
ATOM     30  O1  UNL     1      17.946  10.335  20.316  0.00  0.00    -0.495 OA
ENDBRANCH  19  30
ENDBRANCH  18  28
ENDBRANCH   1  18
TORSDOF 5
ENDMDL
MODEL 7
REMARK VINA RESULT:    -6.821     13.293     16.873
REMARK INTER + INTRA:          -9.320
REMARK INTER:                  -8.701
REMARK INTRA:                  -0.619
REMARK UNBOUND:                -0.505
REMARK  Name = /home/qwerty/github/datacon2025hack/step_04_hit_selection/docking/ligands/lig_224.pdb
REMARK  7 active torsions:
REMARK  status: ('A' for Active; 'I' for Inactive)
REMARK    1  A    between atoms: C1_1  and  O1_2
REMARK    2  A    between atoms: O1_2  and  C2_3
REMARK    3  A    between atoms: C11_12  and  C12_13
REMARK    4  A    between atoms: C12_13  and  N1_14
REMARK    5  A    between atoms: C13_15  and  C14_17
REMARK    6  A    between atoms: C17_20  and  C18_21
REMARK    7  A    between atoms: C19_24  and  C20_25
REMARK                            x       y       z     vdW  Elec       q    Type
REMARK                         _______ _______ _______ _____ _____    ______ ____
ROOT
ATOM      1  N1  UNL     1      15.048  -1.216  22.806  0.00  0.00    -0.311 N 
ATOM      2  C13 UNL     1      15.000   0.189  22.501  0.00  0.00    +0.244 C 
ATOM      3  O2  UNL     1      16.074   0.817  22.295  0.00  0.00    -0.270 OA
ATOM      4  H16 UNL     1      14.162  -1.760  22.913  0.00  0.00    +0.149 HD
ENDROOT
BRANCH   2   5
ATOM      5  C14 UNL     1      13.709   0.911  22.408  0.00  0.00    +0.037 A 
ATOM      6  C15 UNL     1      13.505   1.922  21.452  0.00  0.00    +0.014 A 
ATOM      7  C16 UNL     1      12.279   2.590  21.375  0.00  0.00    +0.012 A 
ATOM      8  C17 UNL     1      11.231   2.259  22.248  0.00  0.00    +0.021 A 
ATOM      9  C21 UNL     1      11.428   1.241  23.194  0.00  0.00    +0.012 A 
ATOM     10  C22 UNL     1      12.653   0.571  23.270  0.00  0.00    +0.014 A 
BRANCH   8  11
ATOM     11  C18 UNL     1       9.935   2.966  22.168  0.00  0.00    +0.181 A 
ATOM     12  N2  UNL     1       8.931   2.798  23.055  0.00  0.00    -0.152 NA
ATOM     13  N3  UNL     1       7.953   3.585  22.648  0.00  0.00    -0.262 N 
ATOM     14  C19 UNL     1       8.372   4.218  21.542  0.00  0.00    +0.122 A 
ATOM     15  C20 UNL     1       7.526   5.152  20.741  0.00  0.00    +0.087 C 
ATOM     16  N4  UNL     1       9.618   3.848  21.192  0.00  0.00    -0.212 NA
ATOM     17  H19 UNL     1       7.025   3.675  23.118  0.00  0.00    +0.190 HD
ENDBRANCH   8  11
ENDBRANCH   2   5
BRANCH   1  18
ATOM     18  C12 UNL     1      16.308  -1.943  22.964  0.00  0.00    +0.112 C 
BRANCH  18  28
ATOM     19  C2  UNL     1      17.880   0.996  26.734  0.00  0.00    +0.120 A 
ATOM     20  C3  UNL     1      18.735   0.334  25.852  0.00  0.00    +0.046 A 
ATOM     21  C4  UNL     1      18.291  -0.776  25.131  0.00  0.00    +0.008 A 
ATOM     22  C5  UNL     1      16.976  -1.247  25.278  0.00  0.00    -0.039 A 
ATOM     23  C6  UNL     1      16.097  -0.577  26.166  0.00  0.00    -0.040 A 
ATOM     24  C7  UNL     1      16.562   0.531  26.893  0.00  0.00    +0.049 A 
ATOM     25  C8  UNL     1      14.710  -1.100  26.457  0.00  0.00    +0.035 C 
ATOM     26  C9  UNL     1      14.186  -2.054  25.381  0.00  0.00    +0.005 C 
ATOM     27  C10 UNL     1      15.253  -3.085  25.010  0.00  0.00    +0.010 C 
ATOM     28  C11 UNL     1      16.513  -2.413  24.423  0.00  0.00    +0.036 C 
BRANCH  19  30
ATOM     29  C1  UNL     1      19.754   2.461  27.508  0.00  0.00    +0.277 C 
ATOM     30  O1  UNL     1      18.377   2.105  27.436  0.00  0.00    -0.495 OA
ENDBRANCH  19  30
ENDBRANCH  18  28
ENDBRANCH   1  18
TORSDOF 5
ENDMDL
MODEL 8
REMARK VINA RESULT:    -6.805      9.927     13.524
REMARK INTER + INTRA:          -9.299
REMARK INTER:                  -9.125
REMARK INTRA:                  -0.174
REMARK UNBOUND:                -0.505
REMARK  Name = /home/qwerty/github/datacon2025hack/step_04_hit_selection/docking/ligands/lig_224.pdb
REMARK  7 active torsions:
REMARK  status: ('A' for Active; 'I' for Inactive)
REMARK    1  A    between atoms: C1_1  and  O1_2
REMARK    2  A    between atoms: O1_2  and  C2_3
REMARK    3  A    between atoms: C11_12  and  C12_13
REMARK    4  A    between atoms: C12_13  and  N1_14
REMARK    5  A    between atoms: C13_15  and  C14_17
REMARK    6  A    between atoms: C17_20  and  C18_21
REMARK    7  A    between atoms: C19_24  and  C20_25
REMARK                            x       y       z     vdW  Elec       q    Type
REMARK                         _______ _______ _______ _____ _____    ______ ____
ROOT
ATOM      1  N1  UNL     1       9.124   7.473  21.120  0.00  0.00    -0.311 N 
ATOM      2  C13 UNL     1       9.122   6.036  21.043  0.00  0.00    +0.244 C 
ATOM      3  O2  UNL     1       8.038   5.408  21.185  0.00  0.00    -0.270 OA
ATOM      4  H16 UNL     1      10.004   8.006  20.939  0.00  0.00    +0.149 HD
ENDROOT
BRANCH   2   5
ATOM      5  C14 UNL     1      10.369   5.279  20.782  0.00  0.00    +0.037 A 
ATOM      6  C15 UNL     1      11.497   5.901  20.219  0.00  0.00    +0.014 A 
ATOM      7  C16 UNL     1      12.667   5.172  19.984  0.00  0.00    +0.012 A 
ATOM      8  C17 UNL     1      12.736   3.808  20.310  0.00  0.00    +0.021 A 
ATOM      9  C21 UNL     1      11.614   3.189  20.885  0.00  0.00    +0.012 A 
ATOM     10  C22 UNL     1      10.445   3.918  21.121  0.00  0.00    +0.014 A 
BRANCH   8  11
ATOM     11  C18 UNL     1      13.972   3.037  20.060  0.00  0.00    +0.181 A 
ATOM     12  N2  UNL     1      15.099   3.573  19.544  0.00  0.00    -0.152 NA
ATOM     13  N3  UNL     1      15.968   2.582  19.467  0.00  0.00    -0.262 N 
ATOM     14  C19 UNL     1      15.370   1.477  19.938  0.00  0.00    +0.122 A 
ATOM     15  C20 UNL     1      16.004   0.127  19.958  0.00  0.00    +0.087 C 
ATOM     16  N4  UNL     1      14.099   1.715  20.314  0.00  0.00    -0.212 NA
ATOM     17  H19 UNL     1      16.939   2.668  19.094  0.00  0.00    +0.190 HD
ENDBRANCH   8  11
ENDBRANCH   2   5
BRANCH   1  18
ATOM     18  C12 UNL     1       7.922   8.244  21.436  0.00  0.00    +0.112 C 
BRANCH  18  28
ATOM     19  C2  UNL     1       9.099  10.110  25.958  0.00  0.00    +0.120 A 
ATOM     20  C3  UNL     1       7.792   9.954  25.494  0.00  0.00    +0.046 A 
ATOM     21  C4  UNL     1       7.531   9.855  24.127  0.00  0.00    +0.008 A 
ATOM     22  C5  UNL     1       8.577   9.909  23.191  0.00  0.00    -0.039 A 
ATOM     23  C6  UNL     1       9.909  10.060  23.652  0.00  0.00    -0.040 A 
ATOM     24  C7  UNL     1      10.155  10.170  25.031  0.00  0.00    +0.049 A 
ATOM     25  C8  UNL     1      11.066  10.241  22.697  0.00  0.00    +0.035 C 
ATOM     26  C9  UNL     1      10.760   9.752  21.280  0.00  0.00    +0.005 C 
ATOM     27  C10 UNL     1       9.393  10.258  20.818  0.00  0.00    +0.010 C 
ATOM     28  C11 UNL     1       8.257   9.727  21.719  0.00  0.00    +0.036 C 
BRANCH  19  30
ATOM     29  C1  UNL     1       8.302  10.571  28.284  0.00  0.00    +0.277 C 
ATOM     30  O1  UNL     1       9.306  10.207  27.342  0.00  0.00    -0.495 OA
ENDBRANCH  19  30
ENDBRANCH  18  28
ENDBRANCH   1  18
TORSDOF 5
ENDMDL
MODEL 9
REMARK VINA RESULT:    -6.757     11.666     12.786
REMARK INTER + INTRA:          -9.237
REMARK INTER:                  -8.553
REMARK INTRA:                  -0.684
REMARK UNBOUND:                -0.505
REMARK  Name = /home/qwerty/github/datacon2025hack/step_04_hit_selection/docking/ligands/lig_224.pdb
REMARK  7 active torsions:
REMARK  status: ('A' for Active; 'I' for Inactive)
REMARK    1  A    between atoms: C1_1  and  O1_2
REMARK    2  A    between atoms: O1_2  and  C2_3
REMARK    3  A    between atoms: C11_12  and  C12_13
REMARK    4  A    between atoms: C12_13  and  N1_14
REMARK    5  A    between atoms: C13_15  and  C14_17
REMARK    6  A    between atoms: C17_20  and  C18_21
REMARK    7  A    between atoms: C19_24  and  C20_25
REMARK                            x       y       z     vdW  Elec       q    Type
REMARK                         _______ _______ _______ _____ _____    ______ ____
ROOT
ATOM      1  N1  UNL     1      21.985   3.116  28.611  0.00  0.00    -0.311 N 
ATOM      2  C13 UNL     1      21.323   4.307  29.070  0.00  0.00    +0.244 C 
ATOM      3  O2  UNL     1      20.434   4.841  28.351  0.00  0.00    -0.270 OA
ATOM      4  H16 UNL     1      22.675   2.630  29.226  0.00  0.00    +0.149 HD
ENDROOT
BRANCH   2   5
ATOM      5  C14 UNL     1      21.654   4.914  30.381  0.00  0.00    +0.037 A 
ATOM      6  C15 UNL     1      22.045   6.260  30.485  0.00  0.00    +0.014 A 
ATOM      7  C16 UNL     1      22.350   6.818  31.731  0.00  0.00    +0.012 A 
ATOM      8  C17 UNL     1      22.264   6.042  32.899  0.00  0.00    +0.021 A 
ATOM      9  C21 UNL     1      21.861   4.701  32.798  0.00  0.00    +0.012 A 
ATOM     10  C22 UNL     1      21.555   4.144  31.553  0.00  0.00    +0.014 A 
BRANCH   8  11
ATOM     11  C18 UNL     1      22.587   6.631  34.216  0.00  0.00    +0.181 A 
ATOM     12  N2  UNL     1      22.756   7.954  34.426  0.00  0.00    -0.152 NA
ATOM     13  N3  UNL     1      23.035   8.084  35.709  0.00  0.00    -0.262 N 
ATOM     14  C19 UNL     1      23.023   6.859  36.256  0.00  0.00    +0.122 A 
ATOM     15  C20 UNL     1      23.355   6.576  37.683  0.00  0.00    +0.087 C 
ATOM     16  N4  UNL     1      22.756   5.905  35.344  0.00  0.00    -0.212 NA
ATOM     17  H19 UNL     1      23.233   8.990  36.189  0.00  0.00    +0.190 HD
ENDBRANCH   8  11
ENDBRANCH   2   5
BRANCH   1  18
ATOM     18  C12 UNL     1      21.723   2.529  27.297  0.00  0.00    +0.112 C 
BRANCH  18  28
ATOM     19  C2  UNL     1      19.652   0.799  31.544  0.00  0.00    +0.120 A 
ATOM     20  C3  UNL     1      20.975   0.561  31.168  0.00  0.00    +0.046 A 
ATOM     21  C4  UNL     1      21.364   0.675  29.833  0.00  0.00    +0.008 A 
ATOM     22  C5  UNL     1      20.434   1.033  28.842  0.00  0.00    -0.039 A 
ATOM     23  C6  UNL     1      19.090   1.283  29.215  0.00  0.00    -0.040 A 
ATOM     24  C7  UNL     1      18.710   1.152  30.560  0.00  0.00    +0.049 A 
ATOM     25  C8  UNL     1      18.017   1.558  28.187  0.00  0.00    +0.035 C 
ATOM     26  C9  UNL     1      18.576   2.030  26.843  0.00  0.00    +0.005 C 
ATOM     27  C10 UNL     1      19.747   1.148  26.406  0.00  0.00    +0.010 C 
ATOM     28  C11 UNL     1      20.915   1.215  27.414  0.00  0.00    +0.036 C 
BRANCH  19  30
ATOM     29  C1  UNL     1      18.003   0.370  33.376  0.00  0.00    +0.277 C 
ATOM     30  O1  UNL     1      19.312   0.667  32.899  0.00  0.00    -0.495 OA
ENDBRANCH  19  30
ENDBRANCH  18  28
ENDBRANCH   1  18
TORSDOF 5
ENDMDL
