MODEL 1
REMARK VINA RESULT:    -6.564      0.000      0.000
REMARK INTER + INTRA:          -8.693
REMARK INTER:                  -8.099
REMARK INTRA:                  -0.593
REMARK UNBOUND:                -0.593
REMARK  Name = /home/qwerty/github/datacon2025hack/step_04_hit_selection/docking/ligands/lig_751.pdb
REMARK  9 active torsions:
REMARK  status: ('A' for Active; 'I' for Inactive)
REMARK    1  A    between atoms: C1_1  and  C2_2
REMARK    2  A    between atoms: C7_7  and  N1_8
REMARK    3  A    between atoms: C8_9  and  C9_11
REMARK    4  A    between atoms: N2_13  and  C10_14
REMARK    5  A    between atoms: C12_16  and  C13_17
REMARK    6  A    between atoms: C13_17  and  C14_18
REMARK    7  A    between atoms: C13_17  and  C15_19
REMARK    8  A    between atoms: C13_17  and  C16_20
REMARK    9  A    between atoms: N4_22  and  C17_23
REMARK                            x       y       z     vdW  Elec       q    Type
REMARK                         _______ _______ _______ _____ _____    ______ ____
ROOT
ATOM      1  N1  UNL     1      22.571   5.602  22.974  0.00  0.00    -0.277 N 
ATOM      2  C8  UNL     1      21.520   5.766  23.939  0.00  0.00    +0.304 C 
ATOM      3  O1  UNL     1      20.721   6.737  23.841  0.00  0.00    -0.265 OA
ATOM      4  H6  UNL     1      23.390   5.002  23.219  0.00  0.00    +0.155 HD
ENDROOT
BRANCH   1  11
ATOM      5  C1  UNL     1      20.880   5.041  20.591  0.00  0.00    +0.046 C 
ATOM      6  C2  UNL     1      21.861   6.181  20.646  0.00  0.00    -0.026 A 
ATOM      7  C3  UNL     1      21.975   7.033  19.525  0.00  0.00    +0.054 A 
ATOM      8  C4  UNL     1      22.913   8.059  19.569  0.00  0.00    +0.167 A 
ATOM      9  C5  UNL     1      23.705   8.261  20.649  0.00  0.00    +0.168 A 
ATOM     10  C6  UNL     1      23.623   7.463  21.783  0.00  0.00    +0.073 A 
ATOM     11  C7  UNL     1      22.671   6.421  21.801  0.00  0.00    +0.040 A 
ATOM     12  O3  UNL     1      24.540   9.337  20.414  0.00  0.00    -0.453 OA
ATOM     13  C18 UNL     1      24.252   9.842  19.103  0.00  0.00    +0.466 C 
ATOM     14  O4  UNL     1      23.208   8.997  18.599  0.00  0.00    -0.453 OA
ENDBRANCH   1  11
BRANCH   2  15
ATOM     15  C9  UNL     1      21.382   4.819  25.062  0.00  0.00    +0.305 C 
ATOM     16  O2  UNL     1      20.699   5.148  26.068  0.00  0.00    -0.265 OA
ATOM     17  N2  UNL     1      22.059   3.550  25.030  0.00  0.00    -0.263 N 
ATOM     18  H7  UNL     1      22.786   3.397  24.296  0.00  0.00    +0.157 HD
BRANCH  17  19
ATOM     19  C10 UNL     1      21.831   2.496  25.979  0.00  0.00    +0.123 A 
ATOM     20  C11 UNL     1      22.504   2.298  27.171  0.00  0.00    +0.069 A 
ATOM     21  C12 UNL     1      21.866   1.204  27.744  0.00  0.00    +0.070 A 
ATOM     22  N3  UNL     1      20.857   0.799  26.940  0.00  0.00    -0.174 NA
ATOM     23  N4  UNL     1      20.847   1.582  25.875  0.00  0.00    -0.253 N 
ATOM     24  C17 UNL     1      19.872   1.467  24.797  0.00  0.00    +0.174 C 
BRANCH  21  25
ATOM     25  C13 UNL     1      22.152   0.574  29.098  0.00  0.00    +0.006 C 
ATOM     26  C14 UNL     1      20.855   0.571  29.928  0.00  0.00    +0.017 C 
ATOM     27  C15 UNL     1      22.629  -0.876  28.887  0.00  0.00    +0.017 C 
ATOM     28  C16 UNL     1      23.243   1.348  29.867  0.00  0.00    +0.017 C 
ENDBRANCH  21  25
ENDBRANCH  17  19
ENDBRANCH   2  15
TORSDOF 4
ENDMDL
MODEL 2
REMARK VINA RESULT:    -6.491     13.473     16.223
REMARK INTER + INTRA:          -8.602
REMARK INTER:                  -7.981
REMARK INTRA:                  -0.621
REMARK UNBOUND:                -0.593
REMARK  Name = /home/qwerty/github/datacon2025hack/step_04_hit_selection/docking/ligands/lig_751.pdb
REMARK  9 active torsions:
REMARK  status: ('A' for Active; 'I' for Inactive)
REMARK    1  A    between atoms: C1_1  and  C2_2
REMARK    2  A    between atoms: C7_7  and  N1_8
REMARK    3  A    between atoms: C8_9  and  C9_11
REMARK    4  A    between atoms: N2_13  and  C10_14
REMARK    5  A    between atoms: C12_16  and  C13_17
REMARK    6  A    between atoms: C13_17  and  C14_18
REMARK    7  A    between atoms: C13_17  and  C15_19
REMARK    8  A    between atoms: C13_17  and  C16_20
REMARK    9  A    between atoms: N4_22  and  C17_23
REMARK                            x       y       z     vdW  Elec       q    Type
REMARK                         _______ _______ _______ _____ _____    ______ ____
ROOT
ATOM      1  N1  UNL     1      18.744   9.733  35.745  0.00  0.00    -0.277 N 
ATOM      2  C8  UNL     1      18.546  11.106  36.118  0.00  0.00    +0.304 C 
ATOM      3  O1  UNL     1      19.465  11.737  36.708  0.00  0.00    -0.265 OA
ATOM      4  H6  UNL     1      17.907   9.141  35.545  0.00  0.00    +0.155 HD
ENDROOT
BRANCH   1  11
ATOM      5  C1  UNL     1      20.754   9.844  33.554  0.00  0.00    +0.046 C 
ATOM      6  C2  UNL     1      20.999   9.122  34.852  0.00  0.00    -0.026 A 
ATOM      7  C3  UNL     1      22.244   8.481  35.047  0.00  0.00    +0.054 A 
ATOM      8  C4  UNL     1      22.446   7.783  36.233  0.00  0.00    +0.167 A 
ATOM      9  C5  UNL     1      21.494   7.707  37.193  0.00  0.00    +0.168 A 
ATOM     10  C6  UNL     1      20.260   8.331  37.058  0.00  0.00    +0.073 A 
ATOM     11  C7  UNL     1      20.010   9.074  35.885  0.00  0.00    +0.040 A 
ATOM     12  O3  UNL     1      21.962   6.948  38.249  0.00  0.00    -0.453 OA
ATOM     13  C18 UNL     1      23.294   6.522  37.930  0.00  0.00    +0.466 C 
ATOM     14  O4  UNL     1      23.563   7.076  36.634  0.00  0.00    -0.453 OA
ENDBRANCH   1  11
BRANCH   2  15
ATOM     15  C9  UNL     1      17.264  11.779  35.838  0.00  0.00    +0.305 C 
ATOM     16  O2  UNL     1      17.052  12.251  34.688  0.00  0.00    -0.265 OA
ATOM     17  N2  UNL     1      16.282  11.935  36.877  0.00  0.00    -0.263 N 
ATOM     18  H7  UNL     1      16.569  11.736  37.861  0.00  0.00    +0.157 HD
BRANCH  17  19
ATOM     19  C10 UNL     1      14.941  12.400  36.650  0.00  0.00    +0.123 A 
ATOM     20  C11 UNL     1      13.804  11.622  36.546  0.00  0.00    +0.069 A 
ATOM     21  C12 UNL     1      12.773  12.543  36.403  0.00  0.00    +0.070 A 
ATOM     22  N3  UNL     1      13.279  13.796  36.445  0.00  0.00    -0.174 NA
ATOM     23  N4  UNL     1      14.590  13.700  36.590  0.00  0.00    -0.253 N 
ATOM     24  C17 UNL     1      15.477  14.851  36.707  0.00  0.00    +0.174 C 
BRANCH  21  25
ATOM     25  C13 UNL     1      11.284  12.254  36.302  0.00  0.00    +0.006 C 
ATOM     26  C14 UNL     1      11.040  11.312  35.109  0.00  0.00    +0.017 C 
ATOM     27  C15 UNL     1      10.815  11.569  37.600  0.00  0.00    +0.017 C 
ATOM     28  C16 UNL     1      10.465  13.547  36.101  0.00  0.00    +0.017 C 
ENDBRANCH  21  25
ENDBRANCH  17  19
ENDBRANCH   2  15
TORSDOF 4
ENDMDL
MODEL 3
REMARK VINA RESULT:    -6.331     11.985     14.561
REMARK INTER + INTRA:          -8.405
REMARK INTER:                  -7.802
REMARK INTRA:                  -0.603
REMARK UNBOUND:                -0.593
REMARK  Name = /home/qwerty/github/datacon2025hack/step_04_hit_selection/docking/ligands/lig_751.pdb
REMARK  9 active torsions:
REMARK  status: ('A' for Active; 'I' for Inactive)
REMARK    1  A    between atoms: C1_1  and  C2_2
REMARK    2  A    between atoms: C7_7  and  N1_8
REMARK    3  A    between atoms: C8_9  and  C9_11
REMARK    4  A    between atoms: N2_13  and  C10_14
REMARK    5  A    between atoms: C12_16  and  C13_17
REMARK    6  A    between atoms: C13_17  and  C14_18
REMARK    7  A    between atoms: C13_17  and  C15_19
REMARK    8  A    between atoms: C13_17  and  C16_20
REMARK    9  A    between atoms: N4_22  and  C17_23
REMARK                            x       y       z     vdW  Elec       q    Type
REMARK                         _______ _______ _______ _____ _____    ______ ____
ROOT
ATOM      1  N1  UNL     1      17.820  10.487  35.613  0.00  0.00    -0.277 N 
ATOM      2  C8  UNL     1      18.702   9.893  36.579  0.00  0.00    +0.304 C 
ATOM      3  O1  UNL     1      18.655  10.258  37.785  0.00  0.00    -0.265 OA
ATOM      4  H6  UNL     1      18.060  10.414  34.600  0.00  0.00    +0.155 HD
ENDROOT
BRANCH   1  11
ATOM      5  C1  UNL     1      15.204   9.446  36.577  0.00  0.00    +0.046 C 
ATOM      6  C2  UNL     1      15.507  10.916  36.465  0.00  0.00    -0.026 A 
ATOM      7  C3  UNL     1      14.513  11.845  36.848  0.00  0.00    +0.054 A 
ATOM      8  C4  UNL     1      14.787  13.201  36.703  0.00  0.00    +0.167 A 
ATOM      9  C5  UNL     1      15.970  13.646  36.214  0.00  0.00    +0.168 A 
ATOM     10  C6  UNL     1      16.986  12.776  35.838  0.00  0.00    +0.073 A 
ATOM     11  C7  UNL     1      16.770  11.390  35.987  0.00  0.00    +0.040 A 
ATOM     12  O3  UNL     1      15.962  15.027  36.174  0.00  0.00    -0.453 OA
ATOM     13  C18 UNL     1      14.693  15.476  36.670  0.00  0.00    +0.466 C 
ATOM     14  O4  UNL     1      13.974  14.278  36.995  0.00  0.00    -0.453 OA
ENDBRANCH   1  11
BRANCH   2  15
ATOM     15  C9  UNL     1      19.684   8.872  36.165  0.00  0.00    +0.305 C 
ATOM     16  O2  UNL     1      19.281   7.718  35.855  0.00  0.00    -0.265 OA
ATOM     17  N2  UNL     1      21.089   9.175  36.158  0.00  0.00    -0.263 N 
ATOM     18  H7  UNL     1      21.408  10.053  36.626  0.00  0.00    +0.157 HD
BRANCH  17  19
ATOM     19  C10 UNL     1      22.092   8.315  35.592  0.00  0.00    +0.123 A 
ATOM     20  C11 UNL     1      22.618   8.388  34.316  0.00  0.00    +0.069 A 
ATOM     21  C12 UNL     1      23.589   7.394  34.290  0.00  0.00    +0.070 A 
ATOM     22  N3  UNL     1      23.645   6.787  35.498  0.00  0.00    -0.174 NA
ATOM     23  N4  UNL     1      22.733   7.347  36.276  0.00  0.00    -0.253 N 
ATOM     24  C17 UNL     1      22.520   6.972  37.669  0.00  0.00    +0.174 C 
BRANCH  21  25
ATOM     25  C13 UNL     1      24.534   7.055  33.149  0.00  0.00    +0.006 C 
ATOM     26  C14 UNL     1      23.705   6.569  31.946  0.00  0.00    +0.017 C 
ATOM     27  C15 UNL     1      25.319   8.321  32.752  0.00  0.00    +0.017 C 
ATOM     28  C16 UNL     1      25.539   5.954  33.549  0.00  0.00    +0.017 C 
ENDBRANCH  21  25
ENDBRANCH  17  19
ENDBRANCH   2  15
TORSDOF 4
ENDMDL
MODEL 4
REMARK VINA RESULT:    -6.250     14.644     16.904
REMARK INTER + INTRA:          -8.305
REMARK INTER:                  -7.682
REMARK INTRA:                  -0.622
REMARK UNBOUND:                -0.593
REMARK  Name = /home/qwerty/github/datacon2025hack/step_04_hit_selection/docking/ligands/lig_751.pdb
REMARK  9 active torsions:
REMARK  status: ('A' for Active; 'I' for Inactive)
REMARK    1  A    between atoms: C1_1  and  C2_2
REMARK    2  A    between atoms: C7_7  and  N1_8
REMARK    3  A    between atoms: C8_9  and  C9_11
REMARK    4  A    between atoms: N2_13  and  C10_14
REMARK    5  A    between atoms: C12_16  and  C13_17
REMARK    6  A    between atoms: C13_17  and  C14_18
REMARK    7  A    between atoms: C13_17  and  C15_19
REMARK    8  A    between atoms: C13_17  and  C16_20
REMARK    9  A    between atoms: N4_22  and  C17_23
REMARK                            x       y       z     vdW  Elec       q    Type
REMARK                         _______ _______ _______ _____ _____    ______ ____
ROOT
ATOM      1  N1  UNL     1      14.474  12.493  34.021  0.00  0.00    -0.277 N 
ATOM      2  C8  UNL     1      13.666  13.682  34.025  0.00  0.00    +0.304 C 
ATOM      3  O1  UNL     1      13.908  14.605  34.850  0.00  0.00    -0.265 OA
ATOM      4  H6  UNL     1      14.098  11.631  33.568  0.00  0.00    +0.155 HD
ENDROOT
BRANCH   1  11
ATOM      5  C1  UNL     1      14.286  11.514  36.824  0.00  0.00    +0.046 C 
ATOM      6  C2  UNL     1      15.592  11.883  36.174  0.00  0.00    -0.026 A 
ATOM      7  C3  UNL     1      16.784  11.745  36.920  0.00  0.00    +0.054 A 
ATOM      8  C4  UNL     1      17.982  12.127  36.324  0.00  0.00    +0.167 A 
ATOM      9  C5  UNL     1      18.032  12.616  35.063  0.00  0.00    +0.168 A 
ATOM     10  C6  UNL     1      16.892  12.758  34.281  0.00  0.00    +0.073 A 
ATOM     11  C7  UNL     1      15.653  12.363  34.828  0.00  0.00    +0.040 A 
ATOM     12  O3  UNL     1      19.341  12.918  34.736  0.00  0.00    -0.453 OA
ATOM     13  C18 UNL     1      20.163  12.595  35.866  0.00  0.00    +0.466 C 
ATOM     14  O4  UNL     1      19.256  12.095  36.858  0.00  0.00    -0.453 OA
ENDBRANCH   1  11
BRANCH   2  15
ATOM     15  C9  UNL     1      12.538  13.821  33.086  0.00  0.00    +0.305 C 
ATOM     16  O2  UNL     1      11.578  14.584  33.381  0.00  0.00    -0.265 OA
ATOM     17  N2  UNL     1      12.508  13.059  31.867  0.00  0.00    -0.263 N 
ATOM     18  H7  UNL     1      13.195  12.280  31.754  0.00  0.00    +0.157 HD
BRANCH  17  19
ATOM     19  C10 UNL     1      11.555  13.270  30.812  0.00  0.00    +0.123 A 
ATOM     20  C11 UNL     1      10.268  12.769  30.749  0.00  0.00    +0.069 A 
ATOM     21  C12 UNL     1       9.747  13.316  29.582  0.00  0.00    +0.070 A 
ATOM     22  N3  UNL     1      10.673  14.115  29.005  0.00  0.00    -0.174 NA
ATOM     23  N4  UNL     1      11.764  14.077  29.753  0.00  0.00    -0.253 N 
ATOM     24  C17 UNL     1      12.969  14.843  29.462  0.00  0.00    +0.174 C 
BRANCH  21  25
ATOM     25  C13 UNL     1       8.338  13.153  29.036  0.00  0.00    +0.006 C 
ATOM     26  C14 UNL     1       7.370  13.980  29.901  0.00  0.00    +0.017 C 
ATOM     27  C15 UNL     1       8.298  13.671  27.585  0.00  0.00    +0.017 C 
ATOM     28  C16 UNL     1       7.890  11.676  29.047  0.00  0.00    +0.017 C 
ENDBRANCH  21  25
ENDBRANCH  17  19
ENDBRANCH   2  15
TORSDOF 4
ENDMDL
MODEL 5
REMARK VINA RESULT:    -6.237     12.806     14.240
REMARK INTER + INTRA:          -8.288
REMARK INTER:                  -7.651
REMARK INTRA:                  -0.638
REMARK UNBOUND:                -0.593
REMARK  Name = /home/qwerty/github/datacon2025hack/step_04_hit_selection/docking/ligands/lig_751.pdb
REMARK  9 active torsions:
REMARK  status: ('A' for Active; 'I' for Inactive)
REMARK    1  A    between atoms: C1_1  and  C2_2
REMARK    2  A    between atoms: C7_7  and  N1_8
REMARK    3  A    between atoms: C8_9  and  C9_11
REMARK    4  A    between atoms: N2_13  and  C10_14
REMARK    5  A    between atoms: C12_16  and  C13_17
REMARK    6  A    between atoms: C13_17  and  C14_18
REMARK    7  A    between atoms: C13_17  and  C15_19
REMARK    8  A    between atoms: C13_17  and  C16_20
REMARK    9  A    between atoms: N4_22  and  C17_23
REMARK                            x       y       z     vdW  Elec       q    Type
REMARK                         _______ _______ _______ _____ _____    ______ ____
ROOT
ATOM      1  N1  UNL     1      16.894  14.692  28.232  0.00  0.00    -0.277 N 
ATOM      2  C8  UNL     1      15.719  15.159  27.549  0.00  0.00    +0.304 C 
ATOM      3  O1  UNL     1      15.792  16.155  26.779  0.00  0.00    -0.265 OA
ATOM      4  H6  UNL     1      16.778  14.086  29.075  0.00  0.00    +0.155 HD
ENDROOT
BRANCH   1  11
ATOM      5  C1  UNL     1      17.995  16.895  29.901  0.00  0.00    +0.046 C 
ATOM      6  C2  UNL     1      18.757  16.275  28.761  0.00  0.00    -0.026 A 
ATOM      7  C3  UNL     1      20.059  16.747  28.479  0.00  0.00    +0.054 A 
ATOM      8  C4  UNL     1      20.740  16.195  27.399  0.00  0.00    +0.167 A 
ATOM      9  C5  UNL     1      20.194  15.227  26.625  0.00  0.00    +0.168 A 
ATOM     10  C6  UNL     1      18.925  14.717  26.868  0.00  0.00    +0.073 A 
ATOM     11  C7  UNL     1      18.199  15.224  27.966  0.00  0.00    +0.040 A 
ATOM     12  O3  UNL     1      21.085  14.876  25.629  0.00  0.00    -0.453 OA
ATOM     13  C18 UNL     1      22.266  15.675  25.790  0.00  0.00    +0.466 C 
ATOM     14  O4  UNL     1      22.002  16.504  26.930  0.00  0.00    -0.453 OA
ENDBRANCH   1  11
BRANCH   2  15
ATOM     15  C9  UNL     1      14.419  14.495  27.760  0.00  0.00    +0.305 C 
ATOM     16  O2  UNL     1      14.326  13.250  27.590  0.00  0.00    -0.265 OA
ATOM     17  N2  UNL     1      13.257  15.266  28.112  0.00  0.00    -0.263 N 
ATOM     18  H7  UNL     1      13.311  16.306  28.030  0.00  0.00    +0.157 HD
BRANCH  17  19
ATOM     19  C10 UNL     1      12.006  14.690  28.522  0.00  0.00    +0.123 A 
ATOM     20  C11 UNL     1      10.967  14.301  27.698  0.00  0.00    +0.069 A 
ATOM     21  C12 UNL     1      10.033  13.747  28.566  0.00  0.00    +0.070 A 
ATOM     22  N3  UNL     1      10.514  13.787  29.830  0.00  0.00    -0.174 NA
ATOM     23  N4  UNL     1      11.704  14.363  29.794  0.00  0.00    -0.253 N 
ATOM     24  C17 UNL     1      12.545  14.552  30.969  0.00  0.00    +0.174 C 
BRANCH  21  25
ATOM     25  C13 UNL     1       8.706  13.100  28.204  0.00  0.00    +0.006 C 
ATOM     26  C14 UNL     1       8.983  11.805  27.418  0.00  0.00    +0.017 C 
ATOM     27  C15 UNL     1       7.942  12.760  29.499  0.00  0.00    +0.017 C 
ATOM     28  C16 UNL     1       7.832  14.037  27.344  0.00  0.00    +0.017 C 
ENDBRANCH  21  25
ENDBRANCH  17  19
ENDBRANCH   2  15
TORSDOF 4
ENDMDL
MODEL 6
REMARK VINA RESULT:    -6.053      9.167     11.062
REMARK INTER + INTRA:          -8.062
REMARK INTER:                  -7.428
REMARK INTRA:                  -0.634
REMARK UNBOUND:                -0.593
REMARK  Name = /home/qwerty/github/datacon2025hack/step_04_hit_selection/docking/ligands/lig_751.pdb
REMARK  9 active torsions:
REMARK  status: ('A' for Active; 'I' for Inactive)
REMARK    1  A    between atoms: C1_1  and  C2_2
REMARK    2  A    between atoms: C7_7  and  N1_8
REMARK    3  A    between atoms: C8_9  and  C9_11
REMARK    4  A    between atoms: N2_13  and  C10_14
REMARK    5  A    between atoms: C12_16  and  C13_17
REMARK    6  A    between atoms: C13_17  and  C14_18
REMARK    7  A    between atoms: C13_17  and  C15_19
REMARK    8  A    between atoms: C13_17  and  C16_20
REMARK    9  A    between atoms: N4_22  and  C17_23
REMARK                            x       y       z     vdW  Elec       q    Type
REMARK                         _______ _______ _______ _____ _____    ______ ____
ROOT
ATOM      1  N1  UNL     1      11.814   3.708  22.069  0.00  0.00    -0.277 N 
ATOM      2  C8  UNL     1      12.740   3.149  21.123  0.00  0.00    +0.304 C 
ATOM      3  O1  UNL     1      12.572   3.339  19.888  0.00  0.00    -0.265 OA
ATOM      4  H6  UNL     1      11.777   3.308  23.033  0.00  0.00    +0.155 HD
ENDROOT
BRANCH   1  11
ATOM      5  C1  UNL     1      12.308   6.639  21.951  0.00  0.00    +0.046 C 
ATOM      6  C2  UNL     1      10.982   6.020  21.602  0.00  0.00    -0.026 A 
ATOM      7  C3  UNL     1       9.928   6.864  21.184  0.00  0.00    +0.054 A 
ATOM      8  C4  UNL     1       8.695   6.288  20.902  0.00  0.00    +0.167 A 
ATOM      9  C5  UNL     1       8.484   4.954  21.012  0.00  0.00    +0.168 A 
ATOM     10  C6  UNL     1       9.489   4.078  21.403  0.00  0.00    +0.073 A 
ATOM     11  C7  UNL     1      10.767   4.608  21.678  0.00  0.00    +0.040 A 
ATOM     12  O3  UNL     1       7.174   4.666  20.679  0.00  0.00    -0.453 OA
ATOM     13  C18 UNL     1       6.522   5.897  20.338  0.00  0.00    +0.466 C 
ATOM     14  O4  UNL     1       7.529   6.907  20.495  0.00  0.00    -0.453 OA
ENDBRANCH   1  11
BRANCH   2  15
ATOM     15  C9  UNL     1      13.878   2.332  21.586  0.00  0.00    +0.305 C 
ATOM     16  O2  UNL     1      14.948   2.901  21.931  0.00  0.00    -0.265 OA
ATOM     17  N2  UNL     1      13.783   0.897  21.601  0.00  0.00    -0.263 N 
ATOM     18  H7  UNL     1      12.979   0.449  21.108  0.00  0.00    +0.157 HD
BRANCH  17  19
ATOM     19  C10 UNL     1      14.759   0.036  22.211  0.00  0.00    +0.123 A 
ATOM     20  C11 UNL     1      14.716  -0.486  23.490  0.00  0.00    +0.069 A 
ATOM     21  C12 UNL     1      15.840  -1.300  23.564  0.00  0.00    +0.070 A 
ATOM     22  N3  UNL     1      16.494  -1.275  22.380  0.00  0.00    -0.174 NA
ATOM     23  N4  UNL     1      15.836  -0.461  21.571  0.00  0.00    -0.253 N 
ATOM     24  C17 UNL     1      16.227  -0.206  20.190  0.00  0.00    +0.174 C 
BRANCH  21  25
ATOM     25  C13 UNL     1      16.271  -2.176  24.729  0.00  0.00    +0.006 C 
ATOM     26  C14 UNL     1      16.655  -1.273  25.914  0.00  0.00    +0.017 C 
ATOM     27  C15 UNL     1      15.095  -3.085  25.137  0.00  0.00    +0.017 C 
ATOM     28  C16 UNL     1      17.477  -3.065  24.358  0.00  0.00    +0.017 C 
ENDBRANCH  21  25
ENDBRANCH  17  19
ENDBRANCH   2  15
TORSDOF 4
ENDMDL
MODEL 7
REMARK VINA RESULT:    -6.017     13.564     16.140
REMARK INTER + INTRA:          -8.017
REMARK INTER:                  -7.370
REMARK INTRA:                  -0.647
REMARK UNBOUND:                -0.593
REMARK  Name = /home/qwerty/github/datacon2025hack/step_04_hit_selection/docking/ligands/lig_751.pdb
REMARK  9 active torsions:
REMARK  status: ('A' for Active; 'I' for Inactive)
REMARK    1  A    between atoms: C1_1  and  C2_2
REMARK    2  A    between atoms: C7_7  and  N1_8
REMARK    3  A    between atoms: C8_9  and  C9_11
REMARK    4  A    between atoms: N2_13  and  C10_14
REMARK    5  A    between atoms: C12_16  and  C13_17
REMARK    6  A    between atoms: C13_17  and  C14_18
REMARK    7  A    between atoms: C13_17  and  C15_19
REMARK    8  A    between atoms: C13_17  and  C16_20
REMARK    9  A    between atoms: N4_22  and  C17_23
REMARK                            x       y       z     vdW  Elec       q    Type
REMARK                         _______ _______ _______ _____ _____    ______ ____
ROOT
ATOM      1  N1  UNL     1      18.455  10.453  35.349  0.00  0.00    -0.277 N 
ATOM      2  C8  UNL     1      18.401  11.852  35.675  0.00  0.00    +0.304 C 
ATOM      3  O1  UNL     1      19.355  12.389  36.300  0.00  0.00    -0.265 OA
ATOM      4  H6  UNL     1      17.566   9.957  35.115  0.00  0.00    +0.155 HD
ENDROOT
BRANCH   1  11
ATOM      5  C1  UNL     1      18.848   9.062  37.949  0.00  0.00    +0.046 C 
ATOM      6  C2  UNL     1      19.832   8.966  36.814  0.00  0.00    -0.026 A 
ATOM      7  C3  UNL     1      20.987   8.169  36.983  0.00  0.00    +0.054 A 
ATOM      8  C4  UNL     1      21.910   8.118  35.944  0.00  0.00    +0.167 A 
ATOM      9  C5  UNL     1      21.729   8.802  34.789  0.00  0.00    +0.168 A 
ATOM     10  C6  UNL     1      20.605   9.588  34.566  0.00  0.00    +0.073 A 
ATOM     11  C7  UNL     1      19.625   9.655  35.578  0.00  0.00    +0.040 A 
ATOM     12  O3  UNL     1      22.800   8.575  33.946  0.00  0.00    -0.453 OA
ATOM     13  C18 UNL     1      23.710   7.691  34.615  0.00  0.00    +0.466 C 
ATOM     14  O4  UNL     1      23.104   7.425  35.888  0.00  0.00    -0.453 OA
ENDBRANCH   1  11
BRANCH   2  15
ATOM     15  C9  UNL     1      17.225  12.660  35.303  0.00  0.00    +0.305 C 
ATOM     16  O2  UNL     1      17.232  13.299  34.217  0.00  0.00    -0.265 OA
ATOM     17  N2  UNL     1      16.099  12.757  36.193  0.00  0.00    -0.263 N 
ATOM     18  H7  UNL     1      16.209  12.405  37.170  0.00  0.00    +0.157 HD
BRANCH  17  19
ATOM     19  C10 UNL     1      14.844  13.359  35.834  0.00  0.00    +0.123 A 
ATOM     20  C11 UNL     1      13.742  12.715  35.302  0.00  0.00    +0.069 A 
ATOM     21  C12 UNL     1      12.779  13.713  35.206  0.00  0.00    +0.070 A 
ATOM     22  N3  UNL     1      13.284  14.874  35.681  0.00  0.00    -0.174 NA
ATOM     23  N4  UNL     1      14.533  14.651  36.053  0.00  0.00    -0.253 N 
ATOM     24  C17 UNL     1      15.392  15.668  36.648  0.00  0.00    +0.174 C 
BRANCH  21  25
ATOM     25  C13 UNL     1      11.340  13.566  34.737  0.00  0.00    +0.006 C 
ATOM     26  C14 UNL     1      11.022  12.069  34.573  0.00  0.00    +0.017 C 
ATOM     27  C15 UNL     1      10.401  14.176  35.795  0.00  0.00    +0.017 C 
ATOM     28  C16 UNL     1      11.104  14.283  33.391  0.00  0.00    +0.017 C 
ENDBRANCH  21  25
ENDBRANCH  17  19
ENDBRANCH   2  15
TORSDOF 4
ENDMDL
MODEL 8
REMARK VINA RESULT:    -5.976      8.395     12.125
REMARK INTER + INTRA:          -7.967
REMARK INTER:                  -7.354
REMARK INTRA:                  -0.613
REMARK UNBOUND:                -0.593
REMARK  Name = /home/qwerty/github/datacon2025hack/step_04_hit_selection/docking/ligands/lig_751.pdb
REMARK  9 active torsions:
REMARK  status: ('A' for Active; 'I' for Inactive)
REMARK    1  A    between atoms: C1_1  and  C2_2
REMARK    2  A    between atoms: C7_7  and  N1_8
REMARK    3  A    between atoms: C8_9  and  C9_11
REMARK    4  A    between atoms: N2_13  and  C10_14
REMARK    5  A    between atoms: C12_16  and  C13_17
REMARK    6  A    between atoms: C13_17  and  C14_18
REMARK    7  A    between atoms: C13_17  and  C15_19
REMARK    8  A    between atoms: C13_17  and  C16_20
REMARK    9  A    between atoms: N4_22  and  C17_23
REMARK                            x       y       z     vdW  Elec       q    Type
REMARK                         _______ _______ _______ _____ _____    ______ ____
ROOT
ATOM      1  N1  UNL     1      15.372   2.372  21.364  0.00  0.00    -0.277 N 
ATOM      2  C8  UNL     1      13.968   2.647  21.229  0.00  0.00    +0.304 C 
ATOM      3  O1  UNL     1      13.125   1.732  21.427  0.00  0.00    -0.265 OA
ATOM      4  H6  UNL     1      16.057   3.020  20.916  0.00  0.00    +0.155 HD
ENDROOT
BRANCH   1  11
ATOM      5  C1  UNL     1      15.953   0.129  19.498  0.00  0.00    +0.046 C 
ATOM      6  C2  UNL     1      16.164   0.030  20.985  0.00  0.00    -0.026 A 
ATOM      7  C3  UNL     1      16.674  -1.175  21.520  0.00  0.00    +0.054 A 
ATOM      8  C4  UNL     1      16.827  -1.271  22.898  0.00  0.00    +0.167 A 
ATOM      9  C5  UNL     1      16.508  -0.250  23.729  0.00  0.00    +0.168 A 
ATOM     10  C6  UNL     1      16.017   0.960  23.255  0.00  0.00    +0.073 A 
ATOM     11  C7  UNL     1      15.864   1.120  21.862  0.00  0.00    +0.040 A 
ATOM     12  O3  UNL     1      16.753  -0.626  25.036  0.00  0.00    -0.453 OA
ATOM     13  C18 UNL     1      17.259  -1.967  25.024  0.00  0.00    +0.466 C 
ATOM     14  O4  UNL     1      17.290  -2.342  23.640  0.00  0.00    -0.453 OA
ENDBRANCH   1  11
BRANCH   2  15
ATOM     15  C9  UNL     1      13.506   3.992  20.836  0.00  0.00    +0.305 C 
ATOM     16  O2  UNL     1      13.808   4.441  19.697  0.00  0.00    -0.265 OA
ATOM     17  N2  UNL     1      12.757   4.802  21.758  0.00  0.00    -0.263 N 
ATOM     18  H7  UNL     1      12.712   4.501  22.757  0.00  0.00    +0.157 HD
BRANCH  17  19
ATOM     19  C10 UNL     1      12.107   6.033  21.400  0.00  0.00    +0.123 A 
ATOM     20  C11 UNL     1      12.614   7.309  21.552  0.00  0.00    +0.069 A 
ATOM     21  C12 UNL     1      11.642   8.131  20.993  0.00  0.00    +0.070 A 
ATOM     22  N3  UNL     1      10.629   7.371  20.517  0.00  0.00    -0.174 NA
ATOM     23  N4  UNL     1      10.917   6.105  20.772  0.00  0.00    -0.253 N 
ATOM     24  C17 UNL     1      10.068   4.988  20.374  0.00  0.00    +0.174 C 
BRANCH  21  25
ATOM     25  C13 UNL     1      11.691   9.641  20.831  0.00  0.00    +0.006 C 
ATOM     26  C14 UNL     1      10.938  10.028  19.545  0.00  0.00    +0.017 C 
ATOM     27  C15 UNL     1      11.006  10.300  22.044  0.00  0.00    +0.017 C 
ATOM     28  C16 UNL     1      13.143  10.157  20.741  0.00  0.00    +0.017 C 
ENDBRANCH  21  25
ENDBRANCH  17  19
ENDBRANCH   2  15
TORSDOF 4
ENDMDL
MODEL 9
REMARK VINA RESULT:    -4.855      8.361     10.004
REMARK INTER + INTRA:          -6.583
REMARK INTER:                  -5.934
REMARK INTRA:                  -0.649
REMARK UNBOUND:                -0.593
REMARK  Name = /home/qwerty/github/datacon2025hack/step_04_hit_selection/docking/ligands/lig_751.pdb
REMARK  9 active torsions:
REMARK  status: ('A' for Active; 'I' for Inactive)
REMARK    1  A    between atoms: C1_1  and  C2_2
REMARK    2  A    between atoms: C7_7  and  N1_8
REMARK    3  A    between atoms: C8_9  and  C9_11
REMARK    4  A    between atoms: N2_13  and  C10_14
REMARK    5  A    between atoms: C12_16  and  C13_17
REMARK    6  A    between atoms: C13_17  and  C14_18
REMARK    7  A    between atoms: C13_17  and  C15_19
REMARK    8  A    between atoms: C13_17  and  C16_20
REMARK    9  A    between atoms: N4_22  and  C17_23
REMARK                            x       y       z     vdW  Elec       q    Type
REMARK                         _______ _______ _______ _____ _____    ______ ____
ROOT
ATOM      1  N1  UNL     1      12.677   4.230  21.852  0.00  0.00    -0.277 N 
ATOM      2  C8  UNL     1      13.458   3.464  20.920  0.00  0.00    +0.304 C 
ATOM      3  O1  UNL     1      13.274   3.602  19.680  0.00  0.00    -0.265 OA
ATOM      4  H6  UNL     1      12.613   3.904  22.842  0.00  0.00    +0.155 HD
ENDROOT
BRANCH   1  11
ATOM      5  C1  UNL     1       9.784   3.659  21.461  0.00  0.00    +0.046 C 
ATOM      6  C2  UNL     1      10.383   5.023  21.248  0.00  0.00    -0.026 A 
ATOM      7  C3  UNL     1       9.534   6.084  20.860  0.00  0.00    +0.054 A 
ATOM      8  C4  UNL     1      10.104   7.331  20.627  0.00  0.00    +0.167 A 
ATOM      9  C5  UNL     1      11.433   7.551  20.764  0.00  0.00    +0.168 A 
ATOM     10  C6  UNL     1      12.309   6.547  21.158  0.00  0.00    +0.073 A 
ATOM     11  C7  UNL     1      11.781   5.267  21.431  0.00  0.00    +0.040 A 
ATOM     12  O3  UNL     1      11.717   8.869  20.462  0.00  0.00    -0.453 OA
ATOM     13  C18 UNL     1      10.486   9.518  20.114  0.00  0.00    +0.466 C 
ATOM     14  O4  UNL     1       9.482   8.500  20.231  0.00  0.00    -0.453 OA
ENDBRANCH   1  11
BRANCH   2  15
ATOM     15  C9  UNL     1      14.461   2.496  21.404  0.00  0.00    +0.305 C 
ATOM     16  O2  UNL     1      15.623   2.898  21.684  0.00  0.00    -0.265 OA
ATOM     17  N2  UNL     1      14.132   1.101  21.514  0.00  0.00    -0.263 N 
ATOM     18  H7  UNL     1      13.247   0.766  21.072  0.00  0.00    +0.157 HD
BRANCH  17  19
ATOM     19  C10 UNL     1      14.974   0.126  22.152  0.00  0.00    +0.123 A 
ATOM     20  C11 UNL     1      14.866  -0.334  23.451  0.00  0.00    +0.069 A 
ATOM     21  C12 UNL     1      15.856  -1.305  23.551  0.00  0.00    +0.070 A 
ATOM     22  N3  UNL     1      16.492  -1.424  22.363  0.00  0.00    -0.174 NA
ATOM     23  N4  UNL     1      15.956  -0.552  21.526  0.00  0.00    -0.253 N 
ATOM     24  C17 UNL     1      16.365  -0.411  20.134  0.00  0.00    +0.174 C 
BRANCH  21  25
ATOM     25  C13 UNL     1      16.163  -2.191  24.747  0.00  0.00    +0.006 C 
ATOM     26  C14 UNL     1      17.369  -3.085  24.407  0.00  0.00    +0.017 C 
ATOM     27  C15 UNL     1      16.509  -1.301  25.957  0.00  0.00    +0.017 C 
ATOM     28  C16 UNL     1      14.960  -3.084  25.118  0.00  0.00    +0.017 C 
ENDBRANCH  21  25
ENDBRANCH  17  19
ENDBRANCH   2  15
TORSDOF 4
ENDMDL
