REMARK  Name = /home/qwerty/github/datacon2025hack/step_04_hit_selection/docking/ligands/lig_193.pdb
REMARK  5 active torsions:
REMARK  status: ('A' for Active; 'I' for Inactive)
REMARK    1  A    between atoms: C1_1  and  C2_2
REMARK    2  A    between atoms: N1_4  and  C4_5
REMARK    3  A    between atoms: C7_8  and  N2_9
REMARK    4  A    between atoms: N3_12  and  C9_13
REMARK    5  A    between atoms: C12_16  and  C13_17
REMARK                            x       y       z     vdW  Elec       q    Type
REMARK                         _______ _______ _______ _____ _____    ______ ____
ROOT
ATOM      1  N2  UNL     1       1.707  -1.325   0.533  0.00  0.00    -0.269 N 
ATOM      2  C8  UNL     1       2.870  -0.597   0.112  0.00  0.00    +0.308 C 
ATOM      3  O1  UNL     1       2.768   0.605  -0.258  0.00  0.00    -0.252 OA
ATOM      4  N3  UNL     1       4.149  -1.249   0.117  0.00  0.00    -0.269 N 
ATOM      5  H9  UNL     1       1.857  -2.197   1.089  0.00  0.00    +0.156 HD
ATOM      6  H10 UNL     1       4.158  -2.292   0.172  0.00  0.00    +0.156 HD
ENDROOT
BRANCH   1  10
ATOM      7  C4  UNL     1      -2.320  -0.057  -0.035  0.00  0.00    +0.030 A 
ATOM      8  C5  UNL     1      -1.942  -0.765   1.118  0.00  0.00    +0.025 A 
ATOM      9  C6  UNL     1      -0.618  -1.177   1.296  0.00  0.00    +0.025 A 
ATOM     10  C7  UNL     1       0.358  -0.870   0.337  0.00  0.00    +0.035 A 
ATOM     11  C16 UNL     1      -0.019  -0.173  -0.823  0.00  0.00    +0.025 A 
ATOM     12  C17 UNL     1      -1.344   0.236  -1.004  0.00  0.00    +0.025 A 
BRANCH   7  16
ATOM     13  C1  UNL     1      -7.245  -0.896   0.243  0.00  0.00    +0.039 C 
ATOM     14  C2  UNL     1      -6.067   0.072   0.315  0.00  0.00    +0.132 C 
ATOM     15  C3  UNL     1      -4.773  -0.619  -0.148  0.00  0.00    +0.136 C 
ATOM     16  N1  UNL     1      -3.687   0.366  -0.214  0.00  0.00    -0.325 N 
ATOM     17  C18 UNL     1      -3.986   1.662  -0.834  0.00  0.00    +0.133 C 
ATOM     18  C19 UNL     1      -5.339   2.176  -0.334  0.00  0.00    +0.179 C 
ATOM     19  O2  UNL     1      -6.345   1.195  -0.504  0.00  0.00    -0.374 OA
ENDBRANCH   7  16
ENDBRANCH   1  10
BRANCH   4  20
ATOM     20  C9  UNL     1       5.402  -0.569  -0.071  0.00  0.00    +0.035 A 
ATOM     21  C10 UNL     1       6.446  -1.225  -0.743  0.00  0.00    +0.024 A 
ATOM     22  C11 UNL     1       7.679  -0.592  -0.926  0.00  0.00    +0.020 A 
ATOM     23  C12 UNL     1       7.889   0.696  -0.420  0.00  0.00    +0.052 A 
ATOM     24  C14 UNL     1       6.861   1.348   0.275  0.00  0.00    +0.020 A 
ATOM     25  C15 UNL     1       5.626   0.718   0.454  0.00  0.00    +0.024 A 
BRANCH  23  26
ATOM     26  C13 UNL     1       9.159   1.346  -0.605  0.00  0.00    +0.099 C 
ATOM     27  N4  UNL     1      10.180   1.867  -0.755  0.00  0.00    -0.191 NA
ENDBRANCH  23  26
ENDBRANCH   4  20
TORSDOF 4
