REMARK  Name = /home/qwerty/github/datacon2025hack/step_04_hit_selection/docking/ligands/lig_23.pdb
REMARK  5 active torsions:
REMARK  status: ('A' for Active; 'I' for Inactive)
REMARK    1  A    between atoms: C1_1  and  N1_2
REMARK    2  A    between atoms: N1_2  and  C2_3
REMARK    3  A    between atoms: N1_2  and  C3_4
REMARK    4  A    between atoms: C7_9  and  C8_10
REMARK    5  A    between atoms: C13_15  and  C14_16
REMARK                            x       y       z     vdW  Elec       q    Type
REMARK                         _______ _______ _______ _____ _____    ______ ____
ROOT
ATOM      1  C3  UNL     1      -4.055  -0.188  -0.085  0.00  0.00    +0.031 A 
ATOM      2  C4  UNL     1      -3.935  -1.594   0.126  0.00  0.00    +0.025 A 
ATOM      3  C5  UNL     1      -2.675  -2.205   0.254  0.00  0.00    +0.029 A 
ATOM      4  C6  UNL     1      -1.552  -1.392   0.169  0.00  0.00    +0.067 A 
ATOM      5  N2  UNL     1      -0.263  -1.743   0.259  0.00  0.00    -0.338 N 
ATOM      6  C7  UNL     1       0.408  -0.570   0.105  0.00  0.00    +0.139 A 
ATOM      7  N5  UNL     1      -0.417   0.498  -0.078  0.00  0.00    -0.228 NA
ATOM      8  C18 UNL     1      -1.643  -0.053  -0.032  0.00  0.00    +0.091 A 
ATOM      9  C19 UNL     1      -2.869   0.592  -0.165  0.00  0.00    +0.053 A 
ATOM     10  H9  UNL     1       0.113  -2.706   0.400  0.00  0.00    +0.167 HD
ENDROOT
BRANCH   6  11
ATOM     11  C8  UNL     1       1.888  -0.442   0.124  0.00  0.00    +0.019 A 
ATOM     12  C9  UNL     1       2.714  -1.534   0.453  0.00  0.00    +0.012 A 
ATOM     13  C10 UNL     1       4.106  -1.398   0.468  0.00  0.00    +0.011 A 
ATOM     14  C11 UNL     1       4.695  -0.167   0.156  0.00  0.00    +0.002 A 
ATOM     15  C12 UNL     1       6.087  -0.004   0.163  0.00  0.00    +0.030 A 
ATOM     16  C13 UNL     1       6.642   1.241  -0.154  0.00  0.00    +0.070 A 
ATOM     17  C15 UNL     1       5.794   2.309  -0.474  0.00  0.00    +0.130 A 
ATOM     18  N4  UNL     1       4.446   2.134  -0.476  0.00  0.00    -0.254 NA
ATOM     19  C16 UNL     1       3.878   0.935  -0.172  0.00  0.00    +0.072 A 
ATOM     20  C17 UNL     1       2.486   0.795  -0.185  0.00  0.00    +0.039 A 
BRANCH  16  21
ATOM     21  C14 UNL     1       8.069   1.423  -0.151  0.00  0.00    +0.101 C 
ATOM     22  N3  UNL     1       9.217   1.569  -0.148  0.00  0.00    -0.191 NA
ENDBRANCH  16  21
ENDBRANCH   6  11
BRANCH   1  24
ATOM     23  C1  UNL     1      -6.569  -0.258   0.248  0.00  0.00    +0.129 C 
ATOM     24  N1  UNL     1      -5.361   0.435  -0.216  0.00  0.00    -0.336 N 
ATOM     25  C2  UNL     1      -5.494   1.770  -0.812  0.00  0.00    +0.129 C 
ENDBRANCH   1  24
TORSDOF 3
