REMARK  Name = /home/qwerty/github/datacon2025hack/step_04_hit_selection/docking/ligands/lig_732.pdb
REMARK  5 active torsions:
REMARK  status: ('A' for Active; 'I' for Inactive)
REMARK    1  A    between atoms: C1_1  and  O1_2
REMARK    2  A    between atoms: O1_2  and  C2_3
REMARK    3  A    between atoms: C5_6  and  N1_7
REMARK    4  A    between atoms: C9_13  and  N3_14
REMARK    5  A    between atoms: C14_19  and  C15_20
REMARK                            x       y       z     vdW  Elec       q    Type
REMARK                         _______ _______ _______ _____ _____    ______ ____
ROOT
ATOM      1  N1  UNL     1       1.691  -0.079  -0.647  0.00  0.00    -0.269 N 
ATOM      2  C6  UNL     1       0.894  -1.271  -0.754  0.00  0.00    +0.307 C 
ATOM      3  O2  UNL     1       1.444  -2.366  -1.051  0.00  0.00    -0.252 OA
ATOM      4  N2  UNL     1      -0.532  -1.227  -0.559  0.00  0.00    -0.281 N 
ATOM      5  C7  UNL     1      -1.379  -2.399  -0.726  0.00  0.00    +0.111 C 
ATOM      6  C8  UNL     1      -2.775  -1.957  -0.307  0.00  0.00    +0.040 C 
ATOM      7  C9  UNL     1      -2.756  -0.427  -0.439  0.00  0.00    +0.078 C 
ATOM      8  C14 UNL     1      -1.290  -0.056  -0.130  0.00  0.00    +0.092 C 
ATOM      9  C15 UNL     1      -1.017   0.193   1.365  0.00  0.00    +0.029 C 
ATOM     10  H6  UNL     1       1.234   0.844  -0.813  0.00  0.00    +0.156 HD
ENDROOT
BRANCH   1  14
ATOM     11  C2  UNL     1       5.901  -0.029  -0.007  0.00  0.00    +0.120 A 
ATOM     12  C3  UNL     1       5.273   0.991  -0.747  0.00  0.00    +0.047 A 
ATOM     13  C4  UNL     1       3.891   0.963  -0.953  0.00  0.00    +0.027 A 
ATOM     14  C5  UNL     1       3.115  -0.087  -0.441  0.00  0.00    +0.035 A 
ATOM     15  C16 UNL     1       3.741  -1.093   0.315  0.00  0.00    +0.027 A 
ATOM     16  C17 UNL     1       5.123  -1.065   0.522  0.00  0.00    +0.047 A 
BRANCH  11  18
ATOM     17  C1  UNL     1       8.193   0.940  -0.249  0.00  0.00    +0.277 C 
ATOM     18  O1  UNL     1       7.284  -0.048   0.227  0.00  0.00    -0.495 OA
ENDBRANCH  11  18
ENDBRANCH   1  14
BRANCH   7  19
ATOM     19  N3  UNL     1      -3.737   0.257   0.442  0.00  0.00    -0.298 NA
ATOM     20  C10 UNL     1      -5.096  -0.281   0.300  0.00  0.00    +0.085 C 
ATOM     21  C11 UNL     1      -6.057   0.831   0.689  0.00  0.00    +0.017 C 
ATOM     22  C12 UNL     1      -5.249   2.113   0.588  0.00  0.00    +0.017 C 
ATOM     23  C13 UNL     1      -3.877   1.680   0.101  0.00  0.00    +0.085 C 
ENDBRANCH   7  19
TORSDOF 3
