MODEL 1
REMARK VINA RESULT:    -7.701      0.000      0.000
REMARK INTER + INTRA:         -10.868
REMARK INTER:                  -9.952
REMARK INTRA:                  -0.917
REMARK UNBOUND:                -0.917
REMARK  Name = /home/qwerty/github/datacon2025hack/step_04_hit_selection/docking/ligands/lig_507.pdb
REMARK  5 active torsions:
REMARK  status: ('A' for Active; 'I' for Inactive)
REMARK    1  A    between atoms: N1_3  and  C2_4
REMARK    2  A    between atoms: C6_8  and  C7_9
REMARK    3  A    between atoms: N3_15  and  C11_16
REMARK    4  A    between atoms: C16_21  and  S1_22
REMARK    5  A    between atoms: S1_22  and  C17_23
REMARK                            x       y       z     vdW  Elec       q    Type
REMARK                         _______ _______ _______ _____ _____    ______ ____
ROOT
ATOM      1  C11 UNL     1      22.177   5.186  34.147  0.00  0.00    +0.050 A 
ATOM      2  C12 UNL     1      20.847   5.207  34.659  0.00  0.00    +0.048 A 
ATOM      3  C13 UNL     1      20.523   6.300  35.436  0.00  0.00    +0.048 A 
ATOM      4  C14 UNL     1      21.388   7.312  35.730  0.00  0.00    +0.059 A 
ATOM      5  C15 UNL     1      22.689   7.353  35.272  0.00  0.00    +0.031 A 
ATOM      6  C16 UNL     1      23.090   6.260  34.457  0.00  0.00    +0.035 A 
ATOM      7  C23 UNL     1      20.370   7.975  36.520  0.00  0.00    +0.250 C 
ATOM      8  O3  UNL     1      20.298   9.035  37.197  0.00  0.00    -0.270 OA
ATOM      9  N4  UNL     1      19.483   6.906  36.207  0.00  0.00    -0.281 N 
ATOM     10  H15 UNL     1      18.492   6.667  36.431  0.00  0.00    +0.155 HD
ENDROOT
BRANCH   1  14
ATOM     11  O1  UNL     1      21.303   4.481  31.499  0.00  0.00    -0.252 OA
ATOM     12  C1  UNL     1      22.087   3.698  32.101  0.00  0.00    +0.308 C 
ATOM     13  N1  UNL     1      22.463   2.445  31.508  0.00  0.00    -0.269 N 
ATOM     14  N3  UNL     1      22.630   4.060  33.378  0.00  0.00    -0.268 N 
ATOM     15  H1  UNL     1      22.927   1.741  32.128  0.00  0.00    +0.156 HD
ATOM     16  H8  UNL     1      23.459   3.523  33.723  0.00  0.00    +0.156 HD
BRANCH  13  17
ATOM     17  C2  UNL     1      22.117   2.043  30.172  0.00  0.00    +0.035 A 
ATOM     18  C3  UNL     1      21.812   0.695  29.921  0.00  0.00    +0.023 A 
ATOM     19  C4  UNL     1      21.496   0.271  28.628  0.00  0.00    +0.003 A 
ATOM     20  C5  UNL     1      21.496   1.186  27.567  0.00  0.00    +0.013 A 
ATOM     21  C6  UNL     1      21.824   2.535  27.792  0.00  0.00    +0.039 A 
ATOM     22  C10 UNL     1      22.138   2.958  29.099  0.00  0.00    +0.036 A 
BRANCH  21  23
ATOM     23  C7  UNL     1      21.850   3.500  26.669  0.00  0.00    +0.227 A 
ATOM     24  N2  UNL     1      22.510   3.286  25.507  0.00  0.00    -0.217 NA
ATOM     25  C8  UNL     1      22.263   4.403  24.793  0.00  0.00    +0.152 A 
ATOM     26  C9  UNL     1      21.472   5.249  25.538  0.00  0.00    +0.217 A 
ATOM     27  O2  UNL     1      21.235   4.663  26.689  0.00  0.00    -0.444 OA
ENDBRANCH  21  23
ENDBRANCH  13  17
ENDBRANCH   1  14
BRANCH   6  28
ATOM     28  S1  UNL     1      24.763   6.269  33.793  0.00  0.00    -0.088 S 
BRANCH  28  29
ATOM     29  C17 UNL     1      24.420   7.636  32.679  0.00  0.00    +0.013 A 
ATOM     30  C18 UNL     1      23.443   7.507  31.680  0.00  0.00    +0.018 A 
ATOM     31  C19 UNL     1      23.179   8.575  30.815  0.00  0.00    +0.039 A 
ATOM     32  C20 UNL     1      23.894   9.772  30.939  0.00  0.00    +0.123 A 
ATOM     33  F1  UNL     1      23.632  10.808  30.104  0.00  0.00    -0.205 F 
ATOM     34  C21 UNL     1      24.873   9.901  31.931  0.00  0.00    +0.039 A 
ATOM     35  C22 UNL     1      25.138   8.836  32.800  0.00  0.00    +0.018 A 
ENDBRANCH  28  29
ENDBRANCH   6  28
TORSDOF 5
ENDMDL
MODEL 2
REMARK VINA RESULT:    -7.600      1.832      2.264
REMARK INTER + INTRA:         -10.738
REMARK INTER:                  -9.553
REMARK INTRA:                  -1.184
REMARK UNBOUND:                -0.917
REMARK  Name = /home/qwerty/github/datacon2025hack/step_04_hit_selection/docking/ligands/lig_507.pdb
REMARK  5 active torsions:
REMARK  status: ('A' for Active; 'I' for Inactive)
REMARK    1  A    between atoms: N1_3  and  C2_4
REMARK    2  A    between atoms: C6_8  and  C7_9
REMARK    3  A    between atoms: N3_15  and  C11_16
REMARK    4  A    between atoms: C16_21  and  S1_22
REMARK    5  A    between atoms: S1_22  and  C17_23
REMARK                            x       y       z     vdW  Elec       q    Type
REMARK                         _______ _______ _______ _____ _____    ______ ____
ROOT
ATOM      1  C11 UNL     1      21.846   5.311  34.380  0.00  0.00    +0.050 A 
ATOM      2  C12 UNL     1      20.526   5.505  34.884  0.00  0.00    +0.048 A 
ATOM      3  C13 UNL     1      20.286   6.730  35.473  0.00  0.00    +0.048 A 
ATOM      4  C14 UNL     1      21.220   7.715  35.595  0.00  0.00    +0.059 A 
ATOM      5  C15 UNL     1      22.515   7.593  35.135  0.00  0.00    +0.031 A 
ATOM      6  C16 UNL     1      22.832   6.357  34.509  0.00  0.00    +0.035 A 
ATOM      7  C23 UNL     1      20.258   8.566  36.269  0.00  0.00    +0.250 C 
ATOM      8  O3  UNL     1      20.266   9.724  36.764  0.00  0.00    -0.270 OA
ATOM      9  N4  UNL     1      19.299   7.522  36.135  0.00  0.00    -0.281 N 
ATOM     10  H15 UNL     1      18.297   7.391  36.397  0.00  0.00    +0.155 HD
ENDROOT
BRANCH   1  14
ATOM     11  O1  UNL     1      21.484   4.530  31.636  0.00  0.00    -0.252 OA
ATOM     12  C1  UNL     1      21.918   3.672  32.452  0.00  0.00    +0.308 C 
ATOM     13  N1  UNL     1      22.144   2.317  32.034  0.00  0.00    -0.269 N 
ATOM     14  N3  UNL     1      22.213   4.047  33.805  0.00  0.00    -0.268 N 
ATOM     15  H1  UNL     1      22.287   1.601  32.784  0.00  0.00    +0.156 HD
ATOM     16  H8  UNL     1      22.803   3.395  34.372  0.00  0.00    +0.156 HD
BRANCH  13  17
ATOM     17  C2  UNL     1      22.041   1.858  30.675  0.00  0.00    +0.035 A 
ATOM     18  C3  UNL     1      23.213   1.529  29.975  0.00  0.00    +0.023 A 
ATOM     19  C4  UNL     1      23.146   1.105  28.646  0.00  0.00    +0.003 A 
ATOM     20  C5  UNL     1      21.908   1.019  27.996  0.00  0.00    +0.013 A 
ATOM     21  C6  UNL     1      20.725   1.369  28.671  0.00  0.00    +0.039 A 
ATOM     22  C10 UNL     1      20.799   1.793  30.013  0.00  0.00    +0.036 A 
BRANCH  21  23
ATOM     23  C7  UNL     1      19.417   1.305  27.979  0.00  0.00    +0.227 A 
ATOM     24  N2  UNL     1      19.264   1.438  26.642  0.00  0.00    -0.217 NA
ATOM     25  C8  UNL     1      17.933   1.314  26.460  0.00  0.00    +0.152 A 
ATOM     26  C9  UNL     1      17.330   1.112  27.682  0.00  0.00    +0.217 A 
ATOM     27  O2  UNL     1      18.271   1.111  28.597  0.00  0.00    -0.444 OA
ENDBRANCH  21  23
ENDBRANCH  13  17
ENDBRANCH   1  14
BRANCH   6  28
ATOM     28  S1  UNL     1      24.494   6.144  33.850  0.00  0.00    -0.088 S 
BRANCH  28  29
ATOM     29  C17 UNL     1      24.332   7.536  32.725  0.00  0.00    +0.013 A 
ATOM     30  C18 UNL     1      25.154   8.663  32.873  0.00  0.00    +0.018 A 
ATOM     31  C19 UNL     1      25.024   9.745  31.993  0.00  0.00    +0.039 A 
ATOM     32  C20 UNL     1      24.070   9.707  30.970  0.00  0.00    +0.123 A 
ATOM     33  F1  UNL     1      23.950  10.753  30.115  0.00  0.00    -0.205 F 
ATOM     34  C21 UNL     1      23.245   8.585  30.825  0.00  0.00    +0.039 A 
ATOM     35  C22 UNL     1      23.374   7.501  31.701  0.00  0.00    +0.018 A 
ENDBRANCH  28  29
ENDBRANCH   6  28
TORSDOF 5
ENDMDL
MODEL 3
REMARK VINA RESULT:    -7.379      6.657     11.849
REMARK INTER + INTRA:         -10.452
REMARK INTER:                  -9.566
REMARK INTRA:                  -0.887
REMARK UNBOUND:                -0.917
REMARK  Name = /home/qwerty/github/datacon2025hack/step_04_hit_selection/docking/ligands/lig_507.pdb
REMARK  5 active torsions:
REMARK  status: ('A' for Active; 'I' for Inactive)
REMARK    1  A    between atoms: N1_3  and  C2_4
REMARK    2  A    between atoms: C6_8  and  C7_9
REMARK    3  A    between atoms: N3_15  and  C11_16
REMARK    4  A    between atoms: C16_21  and  S1_22
REMARK    5  A    between atoms: S1_22  and  C17_23
REMARK                            x       y       z     vdW  Elec       q    Type
REMARK                         _______ _______ _______ _____ _____    ______ ____
ROOT
ATOM      1  C11 UNL     1      18.438   0.579  24.007  0.00  0.00    +0.050 A 
ATOM      2  C12 UNL     1      18.294   1.898  23.486  0.00  0.00    +0.048 A 
ATOM      3  C13 UNL     1      17.232   2.087  22.625  0.00  0.00    +0.048 A 
ATOM      4  C14 UNL     1      16.359   1.106  22.261  0.00  0.00    +0.059 A 
ATOM      5  C15 UNL     1      16.443  -0.192  22.723  0.00  0.00    +0.031 A 
ATOM      6  C16 UNL     1      17.511  -0.458  23.622  0.00  0.00    +0.035 A 
ATOM      7  C23 UNL     1      15.639   2.037  21.415  0.00  0.00    +0.250 C 
ATOM      8  O3  UNL     1      14.634   1.980  20.658  0.00  0.00    -0.270 OA
ATOM      9  N4  UNL     1      16.565   3.047  21.803  0.00  0.00    -0.281 N 
ATOM     10  H15 UNL     1      16.696   4.060  21.591  0.00  0.00    +0.155 HD
ENDROOT
BRANCH   1  14
ATOM     11  O1  UNL     1      18.790   1.471  26.719  0.00  0.00    -0.252 OA
ATOM     12  C1  UNL     1      19.723   0.819  26.175  0.00  0.00    +0.308 C 
ATOM     13  N1  UNL     1      20.963   0.605  26.868  0.00  0.00    -0.269 N 
ATOM     14  N3  UNL     1      19.548   0.266  24.863  0.00  0.00    -0.268 N 
ATOM     15  H1  UNL     1      21.774   0.260  26.304  0.00  0.00    +0.156 HD
ATOM     16  H8  UNL     1      20.223  -0.471  24.553  0.00  0.00    +0.156 HD
BRANCH  13  17
ATOM     17  C2  UNL     1      21.200   0.967  28.239  0.00  0.00    +0.035 A 
ATOM     18  C3  UNL     1      22.478   1.409  28.617  0.00  0.00    +0.023 A 
ATOM     19  C4  UNL     1      22.744   1.744  29.947  0.00  0.00    +0.003 A 
ATOM     20  C5  UNL     1      21.741   1.627  30.917  0.00  0.00    +0.013 A 
ATOM     21  C6  UNL     1      20.461   1.162  30.564  0.00  0.00    +0.039 A 
ATOM     22  C10 UNL     1      20.198   0.828  29.220  0.00  0.00    +0.036 A 
BRANCH  21  23
ATOM     23  C7  UNL     1      19.405   1.012  31.591  0.00  0.00    +0.227 A 
ATOM     24  N2  UNL     1      19.132  -0.150  32.228  0.00  0.00    -0.217 NA
ATOM     25  C8  UNL     1      18.120   0.173  33.059  0.00  0.00    +0.152 A 
ATOM     26  C9  UNL     1      17.816   1.507  32.898  0.00  0.00    +0.217 A 
ATOM     27  O2  UNL     1      18.625   1.996  31.988  0.00  0.00    -0.444 OA
ENDBRANCH  21  23
ENDBRANCH  13  17
ENDBRANCH   1  14
BRANCH   6  28
ATOM     28  S1  UNL     1      17.656  -2.121  24.295  0.00  0.00    -0.088 S 
BRANCH  28  29
ATOM     29  C17 UNL     1      16.169  -1.955  25.289  0.00  0.00    +0.013 A 
ATOM     30  C18 UNL     1      15.094  -2.837  25.107  0.00  0.00    +0.018 A 
ATOM     31  C19 UNL     1      13.937  -2.704  25.884  0.00  0.00    +0.039 A 
ATOM     32  C20 UNL     1      13.848  -1.686  26.840  0.00  0.00    +0.123 A 
ATOM     33  F1  UNL     1      12.729  -1.562  27.597  0.00  0.00    -0.205 F 
ATOM     34  C21 UNL     1      14.918  -0.800  27.020  0.00  0.00    +0.039 A 
ATOM     35  C22 UNL     1      16.076  -0.933  26.246  0.00  0.00    +0.018 A 
ENDBRANCH  28  29
ENDBRANCH   6  28
TORSDOF 5
ENDMDL
MODEL 4
REMARK VINA RESULT:    -7.307     13.333     15.871
REMARK INTER + INTRA:         -10.359
REMARK INTER:                  -9.099
REMARK INTRA:                  -1.260
REMARK UNBOUND:                -0.917
REMARK  Name = /home/qwerty/github/datacon2025hack/step_04_hit_selection/docking/ligands/lig_507.pdb
REMARK  5 active torsions:
REMARK  status: ('A' for Active; 'I' for Inactive)
REMARK    1  A    between atoms: N1_3  and  C2_4
REMARK    2  A    between atoms: C6_8  and  C7_9
REMARK    3  A    between atoms: N3_15  and  C11_16
REMARK    4  A    between atoms: C16_21  and  S1_22
REMARK    5  A    between atoms: S1_22  and  C17_23
REMARK                            x       y       z     vdW  Elec       q    Type
REMARK                         _______ _______ _______ _____ _____    ______ ____
ROOT
ATOM      1  C11 UNL     1       9.931   6.383  20.373  0.00  0.00    +0.050 A 
ATOM      2  C12 UNL     1      10.622   7.628  20.303  0.00  0.00    +0.048 A 
ATOM      3  C13 UNL     1       9.911   8.731  20.731  0.00  0.00    +0.048 A 
ATOM      4  C14 UNL     1       8.628   8.682  21.190  0.00  0.00    +0.059 A 
ATOM      5  C15 UNL     1       7.900   7.513  21.279  0.00  0.00    +0.031 A 
ATOM      6  C16 UNL     1       8.574   6.334  20.861  0.00  0.00    +0.035 A 
ATOM      7  C23 UNL     1       8.629  10.117  21.395  0.00  0.00    +0.250 C 
ATOM      8  O3  UNL     1       7.804  10.971  21.815  0.00  0.00    -0.270 OA
ATOM      9  N4  UNL     1       9.967  10.147  20.908  0.00  0.00    -0.281 N 
ATOM     10  H15 UNL     1      10.689  10.885  20.755  0.00  0.00    +0.155 HD
ENDROOT
BRANCH   1  14
ATOM     11  O1  UNL     1      12.236   5.105  21.525  0.00  0.00    -0.252 OA
ATOM     12  C1  UNL     1      11.772   4.647  20.446  0.00  0.00    +0.308 C 
ATOM     13  N1  UNL     1      12.434   3.567  19.768  0.00  0.00    -0.269 N 
ATOM     14  N3  UNL     1      10.564   5.187  19.892  0.00  0.00    -0.268 N 
ATOM     15  H1  UNL     1      12.146   3.372  18.781  0.00  0.00    +0.156 HD
ATOM     16  H8  UNL     1      10.075   4.626  19.156  0.00  0.00    +0.156 HD
BRANCH  13  17
ATOM     17  C2  UNL     1      13.553   2.839  20.301  0.00  0.00    +0.035 A 
ATOM     18  C3  UNL     1      14.807   2.964  19.680  0.00  0.00    +0.023 A 
ATOM     19  C4  UNL     1      15.907   2.249  20.160  0.00  0.00    +0.003 A 
ATOM     20  C5  UNL     1      15.764   1.390  21.258  0.00  0.00    +0.013 A 
ATOM     21  C6  UNL     1      14.511   1.231  21.878  0.00  0.00    +0.039 A 
ATOM     22  C10 UNL     1      13.406   1.957  21.391  0.00  0.00    +0.036 A 
BRANCH  21  23
ATOM     23  C7  UNL     1      14.351   0.305  23.022  0.00  0.00    +0.227 A 
ATOM     24  N2  UNL     1      15.111  -0.798  23.211  0.00  0.00    -0.217 NA
ATOM     25  C8  UNL     1      14.624  -1.327  24.352  0.00  0.00    +0.152 A 
ATOM     26  C9  UNL     1      13.594  -0.536  24.811  0.00  0.00    +0.217 A 
ATOM     27  O2  UNL     1      13.451   0.461  23.970  0.00  0.00    -0.444 OA
ENDBRANCH  21  23
ENDBRANCH  13  17
ENDBRANCH   1  14
BRANCH   6  28
ATOM     28  S1  UNL     1       7.696   4.767  20.988  0.00  0.00    -0.088 S 
BRANCH  28  29
ATOM     29  C17 UNL     1       8.480   4.342  22.547  0.00  0.00    +0.013 A 
ATOM     30  C18 UNL     1       9.332   3.230  22.630  0.00  0.00    +0.018 A 
ATOM     31  C19 UNL     1       9.941   2.903  23.848  0.00  0.00    +0.039 A 
ATOM     32  C20 UNL     1       9.695   3.679  24.986  0.00  0.00    +0.123 A 
ATOM     33  F1  UNL     1      10.290   3.364  26.164  0.00  0.00    -0.205 F 
ATOM     34  C21 UNL     1       8.840   4.785  24.907  0.00  0.00    +0.039 A 
ATOM     35  C22 UNL     1       8.232   5.116  23.691  0.00  0.00    +0.018 A 
ENDBRANCH  28  29
ENDBRANCH   6  28
TORSDOF 5
ENDMDL
MODEL 5
REMARK VINA RESULT:    -7.263     11.130     14.773
REMARK INTER + INTRA:         -10.303
REMARK INTER:                  -8.953
REMARK INTRA:                  -1.350
REMARK UNBOUND:                -0.917
REMARK  Name = /home/qwerty/github/datacon2025hack/step_04_hit_selection/docking/ligands/lig_507.pdb
REMARK  5 active torsions:
REMARK  status: ('A' for Active; 'I' for Inactive)
REMARK    1  A    between atoms: N1_3  and  C2_4
REMARK    2  A    between atoms: C6_8  and  C7_9
REMARK    3  A    between atoms: N3_15  and  C11_16
REMARK    4  A    between atoms: C16_21  and  S1_22
REMARK    5  A    between atoms: S1_22  and  C17_23
REMARK                            x       y       z     vdW  Elec       q    Type
REMARK                         _______ _______ _______ _____ _____    ______ ____
ROOT
ATOM      1  C11 UNL     1      13.847   1.161  21.378  0.00  0.00    +0.050 A 
ATOM      2  C12 UNL     1      13.490   0.158  22.327  0.00  0.00    +0.048 A 
ATOM      3  C13 UNL     1      14.546  -0.492  22.934  0.00  0.00    +0.048 A 
ATOM      4  C14 UNL     1      15.857  -0.232  22.669  0.00  0.00    +0.059 A 
ATOM      5  C15 UNL     1      16.272   0.721  21.761  0.00  0.00    +0.031 A 
ATOM      6  C16 UNL     1      15.236   1.436  21.101  0.00  0.00    +0.035 A 
ATOM      7  C23 UNL     1      16.267  -1.250  23.616  0.00  0.00    +0.250 C 
ATOM      8  O3  UNL     1      17.364  -1.711  24.030  0.00  0.00    -0.270 OA
ATOM      9  N4  UNL     1      14.891  -1.510  23.874  0.00  0.00    -0.281 N 
ATOM     10  H15 UNL     1      14.358  -2.158  24.495  0.00  0.00    +0.155 HD
ENDROOT
BRANCH   1  14
ATOM     11  O1  UNL     1      12.225   3.322  22.364  0.00  0.00    -0.252 OA
ATOM     12  C1  UNL     1      11.973   2.856  21.220  0.00  0.00    +0.308 C 
ATOM     13  N1  UNL     1      10.848   3.338  20.468  0.00  0.00    -0.269 N 
ATOM     14  N3  UNL     1      12.820   1.850  20.647  0.00  0.00    -0.268 N 
ATOM     15  H1  UNL     1      10.550   2.775  19.637  0.00  0.00    +0.156 HD
ATOM     16  H8  UNL     1      12.740   1.676  19.618  0.00  0.00    +0.156 HD
BRANCH  13  17
ATOM     17  C2  UNL     1      10.024   4.448  20.862  0.00  0.00    +0.035 A 
ATOM     18  C3  UNL     1       8.819   4.199  21.539  0.00  0.00    +0.023 A 
ATOM     19  C4  UNL     1       7.986   5.256  21.912  0.00  0.00    +0.003 A 
ATOM     20  C5  UNL     1       8.341   6.575  21.599  0.00  0.00    +0.013 A 
ATOM     21  C6  UNL     1       9.530   6.845  20.899  0.00  0.00    +0.039 A 
ATOM     22  C10 UNL     1      10.368   5.774  20.528  0.00  0.00    +0.036 A 
BRANCH  21  23
ATOM     23  C7  UNL     1       9.895   8.235  20.544  0.00  0.00    +0.227 A 
ATOM     24  N2  UNL     1       9.151   9.317  20.871  0.00  0.00    -0.217 NA
ATOM     25  C8  UNL     1       9.849  10.350  20.357  0.00  0.00    +0.152 A 
ATOM     26  C9  UNL     1      10.982   9.865  19.740  0.00  0.00    +0.217 A 
ATOM     27  O2  UNL     1      10.981   8.559  19.873  0.00  0.00    -0.444 OA
ENDBRANCH  21  23
ENDBRANCH  13  17
ENDBRANCH   1  14
BRANCH   6  28
ATOM     28  S1  UNL     1      15.707   2.721  19.932  0.00  0.00    -0.088 S 
BRANCH  28  29
ATOM     29  C17 UNL     1      16.408   3.768  21.213  0.00  0.00    +0.013 A 
ATOM     30  C18 UNL     1      15.574   4.391  22.152  0.00  0.00    +0.018 A 
ATOM     31  C19 UNL     1      16.125   5.206  23.149  0.00  0.00    +0.039 A 
ATOM     32  C20 UNL     1      17.509   5.405  23.206  0.00  0.00    +0.123 A 
ATOM     33  F1  UNL     1      18.043   6.190  24.175  0.00  0.00    -0.205 F 
ATOM     34  C21 UNL     1      18.344   4.788  22.265  0.00  0.00    +0.039 A 
ATOM     35  C22 UNL     1      17.795   3.971  21.269  0.00  0.00    +0.018 A 
ENDBRANCH  28  29
ENDBRANCH   6  28
TORSDOF 5
ENDMDL
MODEL 6
REMARK VINA RESULT:    -7.256      7.722     12.323
REMARK INTER + INTRA:         -10.294
REMARK INTER:                  -9.156
REMARK INTRA:                  -1.138
REMARK UNBOUND:                -0.917
REMARK  Name = /home/qwerty/github/datacon2025hack/step_04_hit_selection/docking/ligands/lig_507.pdb
REMARK  5 active torsions:
REMARK  status: ('A' for Active; 'I' for Inactive)
REMARK    1  A    between atoms: N1_3  and  C2_4
REMARK    2  A    between atoms: C6_8  and  C7_9
REMARK    3  A    between atoms: N3_15  and  C11_16
REMARK    4  A    between atoms: C16_21  and  S1_22
REMARK    5  A    between atoms: S1_22  and  C17_23
REMARK                            x       y       z     vdW  Elec       q    Type
REMARK                         _______ _______ _______ _____ _____    ______ ____
ROOT
ATOM      1  C11 UNL     1      15.195   0.175  23.083  0.00  0.00    +0.050 A 
ATOM      2  C12 UNL     1      14.227   0.118  24.128  0.00  0.00    +0.048 A 
ATOM      3  C13 UNL     1      12.943   0.476  23.773  0.00  0.00    +0.048 A 
ATOM      4  C14 UNL     1      12.579   0.874  22.521  0.00  0.00    +0.059 A 
ATOM      5  C15 UNL     1      13.464   0.957  21.465  0.00  0.00    +0.031 A 
ATOM      6  C16 UNL     1      14.807   0.595  21.757  0.00  0.00    +0.035 A 
ATOM      7  C23 UNL     1      11.210   1.061  22.960  0.00  0.00    +0.250 C 
ATOM      8  O3  UNL     1      10.132   1.433  22.426  0.00  0.00    -0.270 OA
ATOM      9  N4  UNL     1      11.611   0.648  24.262  0.00  0.00    -0.281 N 
ATOM     10  H15 UNL     1      11.137   0.514  25.182  0.00  0.00    +0.155 HD
ENDROOT
BRANCH   1  14
ATOM     11  O1  UNL     1      17.067   1.928  24.386  0.00  0.00    -0.252 OA
ATOM     12  C1  UNL     1      17.489   0.831  23.930  0.00  0.00    +0.308 C 
ATOM     13  N1  UNL     1      18.887   0.507  23.987  0.00  0.00    -0.269 N 
ATOM     14  N3  UNL     1      16.572  -0.118  23.367  0.00  0.00    -0.268 N 
ATOM     15  H1  UNL     1      19.217  -0.299  23.406  0.00  0.00    +0.156 HD
ATOM     16  H8  UNL     1      16.908  -1.101  23.240  0.00  0.00    +0.156 HD
BRANCH  13  17
ATOM     17  C2  UNL     1      19.876   1.299  24.667  0.00  0.00    +0.035 A 
ATOM     18  C3  UNL     1      20.464   2.383  23.994  0.00  0.00    +0.023 A 
ATOM     19  C4  UNL     1      21.446   3.154  24.621  0.00  0.00    +0.003 A 
ATOM     20  C5  UNL     1      21.863   2.842  25.922  0.00  0.00    +0.013 A 
ATOM     21  C6  UNL     1      21.306   1.745  26.603  0.00  0.00    +0.039 A 
ATOM     22  C10 UNL     1      20.313   0.972  25.967  0.00  0.00    +0.036 A 
BRANCH  21  23
ATOM     23  C7  UNL     1      21.762   1.396  27.967  0.00  0.00    +0.227 A 
ATOM     24  N2  UNL     1      20.929   1.048  28.975  0.00  0.00    -0.217 NA
ATOM     25  C8  UNL     1      21.762   0.821  30.011  0.00  0.00    +0.152 A 
ATOM     26  C9  UNL     1      23.059   1.038  29.602  0.00  0.00    +0.217 A 
ATOM     27  O2  UNL     1      23.026   1.390  28.338  0.00  0.00    -0.444 OA
ENDBRANCH  21  23
ENDBRANCH  13  17
ENDBRANCH   1  14
BRANCH   6  28
ATOM     28  S1  UNL     1      16.007   0.642  20.417  0.00  0.00    -0.088 S 
BRANCH  28  29
ATOM     29  C17 UNL     1      16.049   2.438  20.385  0.00  0.00    +0.013 A 
ATOM     30  C18 UNL     1      16.966   3.137  21.183  0.00  0.00    +0.018 A 
ATOM     31  C19 UNL     1      16.995   4.537  21.155  0.00  0.00    +0.039 A 
ATOM     32  C20 UNL     1      16.104   5.241  20.336  0.00  0.00    +0.123 A 
ATOM     33  F1  UNL     1      16.138   6.597  20.306  0.00  0.00    -0.205 F 
ATOM     34  C21 UNL     1      15.184   4.544  19.544  0.00  0.00    +0.039 A 
ATOM     35  C22 UNL     1      15.154   3.145  19.568  0.00  0.00    +0.018 A 
ENDBRANCH  28  29
ENDBRANCH   6  28
TORSDOF 5
ENDMDL
MODEL 7
REMARK VINA RESULT:    -7.119      5.986      9.186
REMARK INTER + INTRA:         -10.116
REMARK INTER:                  -8.776
REMARK INTRA:                  -1.340
REMARK UNBOUND:                -0.917
REMARK  Name = /home/qwerty/github/datacon2025hack/step_04_hit_selection/docking/ligands/lig_507.pdb
REMARK  5 active torsions:
REMARK  status: ('A' for Active; 'I' for Inactive)
REMARK    1  A    between atoms: N1_3  and  C2_4
REMARK    2  A    between atoms: C6_8  and  C7_9
REMARK    3  A    between atoms: N3_15  and  C11_16
REMARK    4  A    between atoms: C16_21  and  S1_22
REMARK    5  A    between atoms: S1_22  and  C17_23
REMARK                            x       y       z     vdW  Elec       q    Type
REMARK                         _______ _______ _______ _____ _____    ______ ____
ROOT
ATOM      1  C11 UNL     1      16.716  12.418  36.530  0.00  0.00    +0.050 A 
ATOM      2  C12 UNL     1      15.589  11.970  37.280  0.00  0.00    +0.048 A 
ATOM      3  C13 UNL     1      14.369  12.481  36.887  0.00  0.00    +0.048 A 
ATOM      4  C14 UNL     1      14.205  13.364  35.862  0.00  0.00    +0.059 A 
ATOM      5  C15 UNL     1      15.250  13.842  35.099  0.00  0.00    +0.031 A 
ATOM      6  C16 UNL     1      16.539  13.351  35.443  0.00  0.00    +0.035 A 
ATOM      7  C23 UNL     1      12.775  13.399  36.099  0.00  0.00    +0.250 C 
ATOM      8  O3  UNL     1      11.787  13.989  35.586  0.00  0.00    -0.270 OA
ATOM      9  N4  UNL     1      12.968  12.480  37.169  0.00  0.00    -0.281 N 
ATOM     10  H15 UNL     1      12.352  11.998  37.860  0.00  0.00    +0.155 HD
ENDROOT
BRANCH   1  14
ATOM     11  O1  UNL     1      17.989   9.963  35.737  0.00  0.00    -0.252 OA
ATOM     12  C1  UNL     1      18.586  10.711  36.559  0.00  0.00    +0.308 C 
ATOM     13  N1  UNL     1      19.830  10.301  37.146  0.00  0.00    -0.269 N 
ATOM     14  N3  UNL     1      18.036  11.991  36.901  0.00  0.00    -0.268 N 
ATOM     15  H1  UNL     1      20.170  10.842  37.976  0.00  0.00    +0.156 HD
ATOM     16  H8  UNL     1      18.668  12.681  37.370  0.00  0.00    +0.156 HD
BRANCH  13  17
ATOM     17  C2  UNL     1      20.558   9.121  36.765  0.00  0.00    +0.035 A 
ATOM     18  C3  UNL     1      20.339   7.926  37.469  0.00  0.00    +0.023 A 
ATOM     19  C4  UNL     1      21.050   6.770  37.138  0.00  0.00    +0.003 A 
ATOM     20  C5  UNL     1      22.000   6.799  36.109  0.00  0.00    +0.013 A 
ATOM     21  C6  UNL     1      22.254   7.993  35.409  0.00  0.00    +0.039 A 
ATOM     22  C10 UNL     1      21.531   9.154  35.746  0.00  0.00    +0.036 A 
BRANCH  21  23
ATOM     23  C7  UNL     1      23.276   8.034  34.338  0.00  0.00    +0.227 A 
ATOM     24  N2  UNL     1      24.216   7.078  34.157  0.00  0.00    -0.217 NA
ATOM     25  C8  UNL     1      24.915   7.519  33.090  0.00  0.00    +0.152 A 
ATOM     26  C9  UNL     1      24.382   8.716  32.667  0.00  0.00    +0.217 A 
ATOM     27  O2  UNL     1      23.373   9.005  33.455  0.00  0.00    -0.444 OA
ENDBRANCH  21  23
ENDBRANCH  13  17
ENDBRANCH   1  14
BRANCH   6  28
ATOM     28  S1  UNL     1      17.944  13.902  34.463  0.00  0.00    -0.088 S 
BRANCH  28  29
ATOM     29  C17 UNL     1      17.369  13.060  32.984  0.00  0.00    +0.013 A 
ATOM     30  C18 UNL     1      17.247  11.663  32.967  0.00  0.00    +0.018 A 
ATOM     31  C19 UNL     1      16.798  11.011  31.812  0.00  0.00    +0.039 A 
ATOM     32  C20 UNL     1      16.476  11.752  30.669  0.00  0.00    +0.123 A 
ATOM     33  F1  UNL     1      16.035  11.120  29.553  0.00  0.00    -0.205 F 
ATOM     34  C21 UNL     1      16.602  13.147  30.682  0.00  0.00    +0.039 A 
ATOM     35  C22 UNL     1      17.049  13.801  31.836  0.00  0.00    +0.018 A 
ENDBRANCH  28  29
ENDBRANCH   6  28
TORSDOF 5
ENDMDL
MODEL 8
REMARK VINA RESULT:    -7.116     13.019     15.353
REMARK INTER + INTRA:         -10.113
REMARK INTER:                  -8.841
REMARK INTRA:                  -1.272
REMARK UNBOUND:                -0.917
REMARK  Name = /home/qwerty/github/datacon2025hack/step_04_hit_selection/docking/ligands/lig_507.pdb
REMARK  5 active torsions:
REMARK  status: ('A' for Active; 'I' for Inactive)
REMARK    1  A    between atoms: N1_3  and  C2_4
REMARK    2  A    between atoms: C6_8  and  C7_9
REMARK    3  A    between atoms: N3_15  and  C11_16
REMARK    4  A    between atoms: C16_21  and  S1_22
REMARK    5  A    between atoms: S1_22  and  C17_23
REMARK                            x       y       z     vdW  Elec       q    Type
REMARK                         _______ _______ _______ _____ _____    ______ ____
ROOT
ATOM      1  C11 UNL     1      10.743   5.023  20.585  0.00  0.00    +0.050 A 
ATOM      2  C12 UNL     1      11.593   6.060  20.100  0.00  0.00    +0.048 A 
ATOM      3  C13 UNL     1      11.095   7.342  20.214  0.00  0.00    +0.048 A 
ATOM      4  C14 UNL     1       9.874   7.644  20.739  0.00  0.00    +0.059 A 
ATOM      5  C15 UNL     1       9.000   6.690  21.221  0.00  0.00    +0.031 A 
ATOM      6  C16 UNL     1       9.452   5.345  21.143  0.00  0.00    +0.035 A 
ATOM      7  C23 UNL     1      10.101   9.055  20.498  0.00  0.00    +0.250 C 
ATOM      8  O3  UNL     1       9.454  10.120  20.686  0.00  0.00    -0.270 OA
ATOM      9  N4  UNL     1      11.370   8.718  19.948  0.00  0.00    -0.281 N 
ATOM     10  H15 UNL     1      12.170   9.249  19.537  0.00  0.00    +0.155 HD
ENDROOT
BRANCH   1  14
ATOM     11  O1  UNL     1      12.933   3.761  21.958  0.00  0.00    -0.252 OA
ATOM     12  C1  UNL     1      12.308   3.097  21.087  0.00  0.00    +0.308 C 
ATOM     13  N1  UNL     1      12.737   1.773  20.733  0.00  0.00    -0.269 N 
ATOM     14  N3  UNL     1      11.145   3.650  20.454  0.00  0.00    -0.268 N 
ATOM     15  H1  UNL     1      12.332   1.354  19.864  0.00  0.00    +0.156 HD
ATOM     16  H8  UNL     1      10.513   2.993  19.942  0.00  0.00    +0.156 HD
BRANCH  13  17
ATOM     17  C2  UNL     1      13.782   1.051  21.407  0.00  0.00    +0.035 A 
ATOM     18  C3  UNL     1      15.051   0.970  20.809  0.00  0.00    +0.023 A 
ATOM     19  C4  UNL     1      16.079   0.254  21.428  0.00  0.00    +0.003 A 
ATOM     20  C5  UNL     1      15.847  -0.401  22.645  0.00  0.00    +0.013 A 
ATOM     21  C6  UNL     1      14.577  -0.354  23.247  0.00  0.00    +0.039 A 
ATOM     22  C10 UNL     1      13.545   0.372  22.619  0.00  0.00    +0.036 A 
BRANCH  21  23
ATOM     23  C7  UNL     1      14.321  -1.067  24.519  0.00  0.00    +0.227 A 
ATOM     24  N2  UNL     1      13.697  -0.510  25.583  0.00  0.00    -0.217 NA
ATOM     25  C8  UNL     1      13.683  -1.502  26.497  0.00  0.00    +0.152 A 
ATOM     26  C9  UNL     1      14.294  -2.615  25.963  0.00  0.00    +0.217 A 
ATOM     27  O2  UNL     1      14.675  -2.315  24.743  0.00  0.00    -0.444 OA
ENDBRANCH  21  23
ENDBRANCH  13  17
ENDBRANCH   1  14
BRANCH   6  28
ATOM     28  S1  UNL     1       8.379   4.053  21.790  0.00  0.00    -0.088 S 
BRANCH  28  29
ATOM     29  C17 UNL     1       8.817   4.407  23.496  0.00  0.00    +0.013 A 
ATOM     30  C18 UNL     1       7.911   5.072  24.336  0.00  0.00    +0.018 A 
ATOM     31  C19 UNL     1       8.258   5.345  25.665  0.00  0.00    +0.039 A 
ATOM     32  C20 UNL     1       9.511   4.962  26.156  0.00  0.00    +0.123 A 
ATOM     33  F1  UNL     1       9.842   5.223  27.445  0.00  0.00    -0.205 F 
ATOM     34  C21 UNL     1      10.419   4.304  25.318  0.00  0.00    +0.039 A 
ATOM     35  C22 UNL     1      10.074   4.027  23.989  0.00  0.00    +0.018 A 
ENDBRANCH  28  29
ENDBRANCH   6  28
TORSDOF 5
ENDMDL
MODEL 9
REMARK VINA RESULT:    -7.083      1.650      2.294
REMARK INTER + INTRA:         -10.070
REMARK INTER:                  -9.151
REMARK INTRA:                  -0.919
REMARK UNBOUND:                -0.917
REMARK  Name = /home/qwerty/github/datacon2025hack/step_04_hit_selection/docking/ligands/lig_507.pdb
REMARK  5 active torsions:
REMARK  status: ('A' for Active; 'I' for Inactive)
REMARK    1  A    between atoms: N1_3  and  C2_4
REMARK    2  A    between atoms: C6_8  and  C7_9
REMARK    3  A    between atoms: N3_15  and  C11_16
REMARK    4  A    between atoms: C16_21  and  S1_22
REMARK    5  A    between atoms: S1_22  and  C17_23
REMARK                            x       y       z     vdW  Elec       q    Type
REMARK                         _______ _______ _______ _____ _____    ______ ____
ROOT
ATOM      1  C11 UNL     1      21.271   6.469  35.059  0.00  0.00    +0.050 A 
ATOM      2  C12 UNL     1      19.963   6.935  35.384  0.00  0.00    +0.048 A 
ATOM      3  C13 UNL     1      19.860   8.286  35.647  0.00  0.00    +0.048 A 
ATOM      4  C14 UNL     1      20.911   9.153  35.620  0.00  0.00    +0.059 A 
ATOM      5  C15 UNL     1      22.202   8.769  35.318  0.00  0.00    +0.031 A 
ATOM      6  C16 UNL     1      22.382   7.389  35.028  0.00  0.00    +0.035 A 
ATOM      7  C23 UNL     1      20.038  10.250  35.988  0.00  0.00    +0.250 C 
ATOM      8  O3  UNL     1      20.176  11.484  36.198  0.00  0.00    -0.270 OA
ATOM      9  N4  UNL     1      18.954   9.327  36.017  0.00  0.00    -0.281 N 
ATOM     10  H15 UNL     1      17.930   9.385  36.211  0.00  0.00    +0.155 HD
ENDROOT
BRANCH   1  14
ATOM     11  O1  UNL     1      20.641   5.026  32.652  0.00  0.00    -0.252 OA
ATOM     12  C1  UNL     1      21.068   4.378  33.645  0.00  0.00    +0.308 C 
ATOM     13  N1  UNL     1      21.155   2.945  33.599  0.00  0.00    -0.269 N 
ATOM     14  N3  UNL     1      21.493   5.069  34.829  0.00  0.00    -0.268 N 
ATOM     15  H1  UNL     1      21.300   2.444  34.507  0.00  0.00    +0.156 HD
ATOM     16  H8  UNL     1      22.072   4.537  35.520  0.00  0.00    +0.156 HD
BRANCH  13  17
ATOM     17  C2  UNL     1      20.914   2.155  32.423  0.00  0.00    +0.035 A 
ATOM     18  C3  UNL     1      20.350   0.876  32.562  0.00  0.00    +0.023 A 
ATOM     19  C4  UNL     1      20.128   0.076  31.439  0.00  0.00    +0.003 A 
ATOM     20  C5  UNL     1      20.480   0.539  30.164  0.00  0.00    +0.013 A 
ATOM     21  C6  UNL     1      21.070   1.806  30.005  0.00  0.00    +0.039 A 
ATOM     22  C10 UNL     1      21.289   2.609  31.142  0.00  0.00    +0.036 A 
BRANCH  21  23
ATOM     23  C7  UNL     1      21.467   2.287  28.663  0.00  0.00    +0.227 A 
ATOM     24  N2  UNL     1      21.770   3.576  28.383  0.00  0.00    -0.217 NA
ATOM     25  C8  UNL     1      22.068   3.553  27.068  0.00  0.00    +0.152 A 
ATOM     26  C9  UNL     1      21.935   2.265  26.598  0.00  0.00    +0.217 A 
ATOM     27  O2  UNL     1      21.565   1.509  27.605  0.00  0.00    -0.444 OA
ENDBRANCH  21  23
ENDBRANCH  13  17
ENDBRANCH   1  14
BRANCH   6  28
ATOM     28  S1  UNL     1      24.034   6.826  34.587  0.00  0.00    -0.088 S 
BRANCH  28  29
ATOM     29  C17 UNL     1      24.116   7.886  33.139  0.00  0.00    +0.013 A 
ATOM     30  C18 UNL     1      25.057   8.924  33.075  0.00  0.00    +0.018 A 
ATOM     31  C19 UNL     1      25.118   9.747  31.944  0.00  0.00    +0.039 A 
ATOM     32  C20 UNL     1      24.235   9.541  30.878  0.00  0.00    +0.123 A 
ATOM     33  F1  UNL     1      24.298  10.336  29.781  0.00  0.00    -0.205 F 
ATOM     34  C21 UNL     1      23.291   8.509  30.943  0.00  0.00    +0.039 A 
ATOM     35  C22 UNL     1      23.230   7.682  32.071  0.00  0.00    +0.018 A 
ENDBRANCH  28  29
ENDBRANCH   6  28
TORSDOF 5
ENDMDL
