REMARK  Name = /home/qwerty/github/datacon2025hack/step_04_hit_selection/docking/ligands/lig_253.pdb
REMARK  7 active torsions:
REMARK  status: ('A' for Active; 'I' for Inactive)
REMARK    1  A    between atoms: C1_1  and  C2_2
REMARK    2  A    between atoms: C2_2  and  C3_3
REMARK    3  A    between atoms: C2_2  and  C4_4
REMARK    4  A    between atoms: C4_4  and  C5_5
REMARK    5  A    between atoms: C5_5  and  C6_6
REMARK    6  A    between atoms: C5_5  and  N1_7
REMARK    7  A    between atoms: C11_14  and  C12_15
REMARK                            x       y       z     vdW  Elec       q    Type
REMARK                         _______ _______ _______ _____ _____    ______ ____
ROOT
ATOM      1  N1  UNL     1      -1.624  -0.548   0.328  0.00  0.00    -0.297 N 
ATOM      2  C7  UNL     1      -0.292  -0.442   0.859  0.00  0.00    +0.303 C 
ATOM      3  O1  UNL     1       0.151   0.684   1.217  0.00  0.00    -0.253 OA
ATOM      4  N2  UNL     1       0.549  -1.605   0.984  0.00  0.00    -0.277 N 
ATOM      5  C8  UNL     1       0.136  -2.951   0.620  0.00  0.00    +0.110 C 
ATOM      6  C9  UNL     1       1.358  -3.834   0.843  0.00  0.00    +0.021 C 
ATOM      7  C10 UNL     1       2.310  -3.020   1.716  0.00  0.00    +0.031 C 
ATOM      8  C11 UNL     1       1.898  -1.559   1.530  0.00  0.00    +0.133 C 
ATOM      9  H14 UNL     1      -2.005  -1.493   0.099  0.00  0.00    +0.151 HD
ENDROOT
BRANCH   8  10
ATOM     10  C12 UNL     1       2.824  -0.843   0.586  0.00  0.00    +0.100 A 
ATOM     11  N3  UNL     1       3.764   0.040   1.005  0.00  0.00    -0.242 NA
ATOM     12  C13 UNL     1       4.486   0.517  -0.040  0.00  0.00    +0.079 A 
ATOM     13  C14 UNL     1       5.521   1.446   0.075  0.00  0.00    +0.029 A 
ATOM     14  C15 UNL     1       6.192   1.857  -1.090  0.00  0.00    +0.002 A 
ATOM     15  C16 UNL     1       5.824   1.337  -2.348  0.00  0.00    +0.001 A 
ATOM     16  C17 UNL     1       4.781   0.402  -2.451  0.00  0.00    +0.017 A 
ATOM     17  C18 UNL     1       4.133   0.012  -1.282  0.00  0.00    +0.039 A 
ATOM     18  S1  UNL     1       2.870  -1.075  -1.096  0.00  0.00    -0.070 S 
ENDBRANCH   8  10
BRANCH   1  19
ATOM     19  C5  UNL     1      -2.464   0.631   0.080  0.00  0.00    +0.072 C 
ATOM     20  C6  UNL     1      -2.008   1.306  -1.220  0.00  0.00    +0.028 C 
BRANCH  19  21
ATOM     21  C4  UNL     1      -3.954   0.200   0.041  0.00  0.00    +0.025 C 
BRANCH  21  23
ATOM     22  C1  UNL     1      -5.317   1.786  -1.468  0.00  0.00    +0.007 C 
ATOM     23  C2  UNL     1      -5.029   1.320  -0.034  0.00  0.00    -0.015 C 
ATOM     24  C3  UNL     1      -4.746   2.509   0.894  0.00  0.00    +0.007 C 
ENDBRANCH  21  23
ENDBRANCH  19  21
ENDBRANCH   1  19
TORSDOF 4
