MODEL 1
REMARK VINA RESULT:    -6.573      0.000      0.000
REMARK INTER + INTRA:          -8.727
REMARK INTER:                  -8.110
REMARK INTRA:                  -0.618
REMARK UNBOUND:                -0.618
REMARK  Name = /home/qwerty/github/datacon2025hack/step_04_hit_selection/docking/ligands/lig_730.pdb
REMARK  6 active torsions:
REMARK  status: ('A' for Active; 'I' for Inactive)
REMARK    1  A    between atoms: C1_1  and  C2_2
REMARK    2  A    between atoms: C2_2  and  C3_3
REMARK    3  A    between atoms: C4_4  and  N1_5
REMARK    4  A    between atoms: C5_6  and  C6_8
REMARK    5  A    between atoms: C8_10  and  C9_11
REMARK    6  A    between atoms: C12_17  and  C13_19
REMARK                            x       y       z     vdW  Elec       q    Type
REMARK                         _______ _______ _______ _____ _____    ______ ____
ROOT
ATOM      1  C3  UNL     1      22.466   1.660  29.142  0.00  0.00    +0.096 C 
ATOM      2  C4  UNL     1      21.884   1.781  30.565  0.00  0.00    +0.095 C 
ATOM      3  C10 UNL     1      20.395   1.438  30.421  0.00  0.00    +0.043 C 
ATOM      4  C11 UNL     1      20.050   1.663  28.955  0.00  0.00    +0.110 C 
ATOM      5  N3  UNL     1      21.319   1.663  28.242  0.00  0.00    -0.293 N 
ATOM      6  C12 UNL     1      21.432   1.979  26.840  0.00  0.00    +0.247 C 
ATOM      7  O3  UNL     1      22.469   2.556  26.413  0.00  0.00    -0.270 OA
ENDROOT
BRANCH   6   8
ATOM      8  C13 UNL     1      20.353   1.655  25.885  0.00  0.00    +0.039 A 
ATOM      9  C14 UNL     1      19.706   2.682  25.150  0.00  0.00    +0.014 A 
ATOM     10  C15 UNL     1      18.665   2.377  24.254  0.00  0.00    +0.011 A 
ATOM     11  C16 UNL     1      18.288   1.044  24.125  0.00  0.00    -0.000 A 
ATOM     12  C17 UNL     1      17.317   0.458  23.344  0.00  0.00    +0.027 A 
ATOM     13  C18 UNL     1      17.387  -0.901  23.636  0.00  0.00    +0.083 A 
ATOM     14  N4  UNL     1      18.353  -1.146  24.553  0.00  0.00    -0.361 N 
ATOM     15  C19 UNL     1      18.893   0.048  24.843  0.00  0.00    +0.047 A 
ATOM     16  C20 UNL     1      19.927   0.315  25.739  0.00  0.00    +0.039 A 
ATOM     17  H21 UNL     1      18.617  -2.074  24.951  0.00  0.00    +0.165 HD
ENDBRANCH   6   8
BRANCH   2  18
ATOM     18  N1  UNL     1      22.058   3.151  31.068  0.00  0.00    -0.305 N 
ATOM     19  C5  UNL     1      21.996   3.452  32.471  0.00  0.00    +0.266 C 
ATOM     20  O1  UNL     1      21.754   2.534  33.301  0.00  0.00    -0.268 OA
ATOM     21  H8  UNL     1      22.233   3.925  30.389  0.00  0.00    +0.149 HD
BRANCH  19  22
ATOM     22  C6  UNL     1      22.212   4.823  32.970  0.00  0.00    +0.168 A 
ATOM     23  C7  UNL     1      22.882   5.849  32.329  0.00  0.00    +0.080 A 
ATOM     24  C8  UNL     1      22.794   6.894  33.223  0.00  0.00    +0.135 A 
ATOM     25  C9  UNL     1      23.376   8.256  33.048  0.00  0.00    +0.089 C 
ATOM     26  O2  UNL     1      22.138   6.496  34.286  0.00  0.00    -0.359 OA
ATOM     27  N2  UNL     1      21.769   5.253  34.168  0.00  0.00    -0.073 NA
ENDBRANCH  19  22
ENDBRANCH   2  18
BRANCH   1  29
ATOM     28  C1  UNL     1      22.531  -0.908  28.881  0.00  0.00    +0.006 C 
ATOM     29  C2  UNL     1      23.331   0.396  28.938  0.00  0.00    +0.021 C 
ENDBRANCH   1  29
TORSDOF 4
ENDMDL
MODEL 2
REMARK VINA RESULT:    -6.456      2.182      8.997
REMARK INTER + INTRA:          -8.583
REMARK INTER:                  -7.954
REMARK INTRA:                  -0.629
REMARK UNBOUND:                -0.618
REMARK  Name = /home/qwerty/github/datacon2025hack/step_04_hit_selection/docking/ligands/lig_730.pdb
REMARK  6 active torsions:
REMARK  status: ('A' for Active; 'I' for Inactive)
REMARK    1  A    between atoms: C1_1  and  C2_2
REMARK    2  A    between atoms: C2_2  and  C3_3
REMARK    3  A    between atoms: C4_4  and  N1_5
REMARK    4  A    between atoms: C5_6  and  C6_8
REMARK    5  A    between atoms: C8_10  and  C9_11
REMARK    6  A    between atoms: C12_17  and  C13_19
REMARK                            x       y       z     vdW  Elec       q    Type
REMARK                         _______ _______ _______ _____ _____    ______ ____
ROOT
ATOM      1  C3  UNL     1      21.413   0.593  28.798  0.00  0.00    +0.096 C 
ATOM      2  C4  UNL     1      21.125   1.165  27.394  0.00  0.00    +0.095 C 
ATOM      3  C10 UNL     1      21.260   2.686  27.545  0.00  0.00    +0.043 C 
ATOM      4  C11 UNL     1      21.075   2.983  29.026  0.00  0.00    +0.110 C 
ATOM      5  N3  UNL     1      21.298   1.720  29.717  0.00  0.00    -0.293 N 
ATOM      6  C12 UNL     1      21.086   1.551  31.132  0.00  0.00    +0.247 C 
ATOM      7  O3  UNL     1      20.690   0.438  31.573  0.00  0.00    -0.270 OA
ENDROOT
BRANCH   6   8
ATOM      8  C13 UNL     1      21.309   2.656  32.085  0.00  0.00    +0.039 A 
ATOM      9  C14 UNL     1      20.262   3.099  32.936  0.00  0.00    +0.014 A 
ATOM     10  C15 UNL     1      20.467   4.164  33.832  0.00  0.00    +0.011 A 
ATOM     11  C16 UNL     1      21.718   4.771  33.844  0.00  0.00    -0.000 A 
ATOM     12  C17 UNL     1      22.199   5.821  34.596  0.00  0.00    +0.027 A 
ATOM     13  C18 UNL     1      23.512   5.998  34.173  0.00  0.00    +0.083 A 
ATOM     14  N4  UNL     1      23.831   5.106  33.206  0.00  0.00    -0.361 N 
ATOM     15  C19 UNL     1      22.728   4.364  33.015  0.00  0.00    +0.047 A 
ATOM     16  C20 UNL     1      22.559   3.313  32.116  0.00  0.00    +0.039 A 
ATOM     17  H21 UNL     1      24.746   5.018  32.713  0.00  0.00    +0.165 HD
ENDBRANCH   6   8
BRANCH   2  18
ATOM     18  N1  UNL     1      19.767   0.800  26.968  0.00  0.00    -0.305 N 
ATOM     19  C5  UNL     1      19.409   0.722  25.579  0.00  0.00    +0.266 C 
ATOM     20  O1  UNL     1      20.262   1.002  24.694  0.00  0.00    -0.268 OA
ATOM     21  H8  UNL     1      19.044   0.591  27.692  0.00  0.00    +0.149 HD
BRANCH  19  22
ATOM     22  C6  UNL     1      18.055   0.315  25.159  0.00  0.00    +0.168 A 
ATOM     23  C7  UNL     1      17.285  -0.702  25.693  0.00  0.00    +0.080 A 
ATOM     24  C8  UNL     1      16.130  -0.655  24.943  0.00  0.00    +0.135 A 
ATOM     25  C9  UNL     1      14.953  -1.560  25.079  0.00  0.00    +0.089 C 
ATOM     26  O2  UNL     1      16.235   0.302  24.053  0.00  0.00    -0.359 OA
ATOM     27  N2  UNL     1      17.381   0.910  24.155  0.00  0.00    -0.073 NA
ENDBRANCH  19  22
ENDBRANCH   2  18
BRANCH   1  29
ATOM     28  C1  UNL     1      23.949   0.891  29.178  0.00  0.00    +0.006 C 
ATOM     29  C2  UNL     1      22.797  -0.082  28.914  0.00  0.00    +0.021 C 
ENDBRANCH   1  29
TORSDOF 4
ENDMDL
MODEL 3
REMARK VINA RESULT:    -6.441      5.358     10.630
REMARK INTER + INTRA:          -8.565
REMARK INTER:                  -8.208
REMARK INTRA:                  -0.357
REMARK UNBOUND:                -0.618
REMARK  Name = /home/qwerty/github/datacon2025hack/step_04_hit_selection/docking/ligands/lig_730.pdb
REMARK  6 active torsions:
REMARK  status: ('A' for Active; 'I' for Inactive)
REMARK    1  A    between atoms: C1_1  and  C2_2
REMARK    2  A    between atoms: C2_2  and  C3_3
REMARK    3  A    between atoms: C4_4  and  N1_5
REMARK    4  A    between atoms: C5_6  and  C6_8
REMARK    5  A    between atoms: C8_10  and  C9_11
REMARK    6  A    between atoms: C12_17  and  C13_19
REMARK                            x       y       z     vdW  Elec       q    Type
REMARK                         _______ _______ _______ _____ _____    ______ ____
ROOT
ATOM      1  C3  UNL     1      16.354  -0.139  22.701  0.00  0.00    +0.096 C 
ATOM      2  C4  UNL     1      15.484   0.881  21.937  0.00  0.00    +0.095 C 
ATOM      3  C10 UNL     1      16.227   2.218  22.067  0.00  0.00    +0.043 C 
ATOM      4  C11 UNL     1      17.137   2.080  23.280  0.00  0.00    +0.110 C 
ATOM      5  N3  UNL     1      17.262   0.650  23.524  0.00  0.00    -0.293 N 
ATOM      6  C12 UNL     1      17.941   0.107  24.673  0.00  0.00    +0.247 C 
ATOM      7  O3  UNL     1      17.539  -0.976  25.179  0.00  0.00    -0.270 OA
ENDROOT
BRANCH   6   8
ATOM      8  C13 UNL     1      19.096   0.794  25.286  0.00  0.00    +0.039 A 
ATOM      9  C14 UNL     1      19.282   0.779  26.693  0.00  0.00    +0.014 A 
ATOM     10  C15 UNL     1      20.371   1.449  27.280  0.00  0.00    +0.011 A 
ATOM     11  C16 UNL     1      21.243   2.132  26.440  0.00  0.00    -0.000 A 
ATOM     12  C17 UNL     1      22.372   2.868  26.725  0.00  0.00    +0.027 A 
ATOM     13  C18 UNL     1      22.830   3.323  25.492  0.00  0.00    +0.083 A 
ATOM     14  N4  UNL     1      22.026   2.892  24.493  0.00  0.00    -0.361 N 
ATOM     15  C19 UNL     1      21.063   2.168  25.084  0.00  0.00    +0.047 A 
ATOM     16  C20 UNL     1      19.996   1.515  24.469  0.00  0.00    +0.039 A 
ATOM     17  H21 UNL     1      22.136   3.088  23.473  0.00  0.00    +0.165 HD
ENDBRANCH   6   8
BRANCH   2  18
ATOM     18  N1  UNL     1      14.149   0.963  22.545  0.00  0.00    -0.305 N 
ATOM     19  C5  UNL     1      13.019   1.466  21.815  0.00  0.00    +0.266 C 
ATOM     20  O1  UNL     1      13.168   1.881  20.634  0.00  0.00    -0.268 OA
ATOM     21  H8  UNL     1      14.018   0.647  23.532  0.00  0.00    +0.149 HD
BRANCH  19  22
ATOM     22  C6  UNL     1      11.674   1.507  22.420  0.00  0.00    +0.168 A 
ATOM     23  C7  UNL     1      11.303   1.033  23.665  0.00  0.00    +0.080 A 
ATOM     24  C8  UNL     1       9.956   1.316  23.725  0.00  0.00    +0.135 A 
ATOM     25  C9  UNL     1       9.036   0.992  24.853  0.00  0.00    +0.089 C 
ATOM     26  O2  UNL     1       9.588   1.895  22.607  0.00  0.00    -0.359 OA
ATOM     27  N2  UNL     1      10.598   2.029  21.798  0.00  0.00    -0.073 NA
ENDBRANCH  19  22
ENDBRANCH   2  18
BRANCH   1  29
ATOM     28  C1  UNL     1      16.756  -0.983  20.294  0.00  0.00    +0.006 C 
ATOM     29  C2  UNL     1      17.133  -1.098  21.773  0.00  0.00    +0.021 C 
ENDBRANCH   1  29
TORSDOF 4
ENDMDL
MODEL 4
REMARK VINA RESULT:    -6.327      9.864     13.247
REMARK INTER + INTRA:          -8.425
REMARK INTER:                  -7.671
REMARK INTRA:                  -0.754
REMARK UNBOUND:                -0.618
REMARK  Name = /home/qwerty/github/datacon2025hack/step_04_hit_selection/docking/ligands/lig_730.pdb
REMARK  6 active torsions:
REMARK  status: ('A' for Active; 'I' for Inactive)
REMARK    1  A    between atoms: C1_1  and  C2_2
REMARK    2  A    between atoms: C2_2  and  C3_3
REMARK    3  A    between atoms: C4_4  and  N1_5
REMARK    4  A    between atoms: C5_6  and  C6_8
REMARK    5  A    between atoms: C8_10  and  C9_11
REMARK    6  A    between atoms: C12_17  and  C13_19
REMARK                            x       y       z     vdW  Elec       q    Type
REMARK                         _______ _______ _______ _____ _____    ______ ____
ROOT
ATOM      1  C3  UNL     1      10.850   2.825  22.881  0.00  0.00    +0.096 C 
ATOM      2  C4  UNL     1      12.070   2.559  23.786  0.00  0.00    +0.095 C 
ATOM      3  C10 UNL     1      12.551   3.948  24.230  0.00  0.00    +0.043 C 
ATOM      4  C11 UNL     1      12.002   4.932  23.207  0.00  0.00    +0.110 C 
ATOM      5  N3  UNL     1      10.918   4.238  22.526  0.00  0.00    -0.293 N 
ATOM      6  C12 UNL     1      10.224   4.788  21.390  0.00  0.00    +0.247 C 
ATOM      7  O3  UNL     1       9.785   4.016  20.495  0.00  0.00    -0.270 OA
ENDROOT
BRANCH   6   8
ATOM      8  C13 UNL     1      10.022   6.243  21.238  0.00  0.00    +0.039 A 
ATOM      9  C14 UNL     1       8.982   6.906  21.941  0.00  0.00    +0.014 A 
ATOM     10  C15 UNL     1       8.776   8.289  21.782  0.00  0.00    +0.011 A 
ATOM     11  C16 UNL     1       9.612   8.974  20.908  0.00  0.00    -0.000 A 
ATOM     12  C17 UNL     1       9.644  10.305  20.554  0.00  0.00    +0.027 A 
ATOM     13  C18 UNL     1      10.684  10.412  19.636  0.00  0.00    +0.083 A 
ATOM     14  N4  UNL     1      11.269   9.209  19.430  0.00  0.00    -0.361 N 
ATOM     15  C19 UNL     1      10.606   8.342  20.211  0.00  0.00    +0.047 A 
ATOM     16  C20 UNL     1      10.838   6.974  20.345  0.00  0.00    +0.039 A 
ATOM     17  H21 UNL     1      12.070   9.003  18.793  0.00  0.00    +0.165 HD
ENDBRANCH   6   8
BRANCH   2  18
ATOM     18  N1  UNL     1      13.119   1.861  23.030  0.00  0.00    -0.305 N 
ATOM     19  C5  UNL     1      13.688   0.627  23.494  0.00  0.00    +0.266 C 
ATOM     20  O1  UNL     1      13.312   0.136  24.593  0.00  0.00    -0.268 OA
ATOM     21  H8  UNL     1      13.458   2.271  22.131  0.00  0.00    +0.149 HD
BRANCH  19  22
ATOM     22  C6  UNL     1      14.711  -0.088  22.709  0.00  0.00    +0.168 A 
ATOM     23  C7  UNL     1      15.187   0.248  21.454  0.00  0.00    +0.080 A 
ATOM     24  C8  UNL     1      16.112  -0.739  21.189  0.00  0.00    +0.135 A 
ATOM     25  C9  UNL     1      16.918  -0.880  19.943  0.00  0.00    +0.089 C 
ATOM     26  O2  UNL     1      16.154  -1.571  22.202  0.00  0.00    -0.359 OA
ATOM     27  N2  UNL     1      15.325  -1.209  23.138  0.00  0.00    -0.073 NA
ENDBRANCH  19  22
ENDBRANCH   2  18
BRANCH   1  29
ATOM     28  C1  UNL     1       9.537   1.225  24.425  0.00  0.00    +0.006 C 
ATOM     29  C2  UNL     1       9.501   2.483  23.553  0.00  0.00    +0.021 C 
ENDBRANCH   1  29
TORSDOF 4
ENDMDL
MODEL 5
REMARK VINA RESULT:    -6.302      5.016     11.136
REMARK INTER + INTRA:          -8.393
REMARK INTER:                  -7.726
REMARK INTRA:                  -0.667
REMARK UNBOUND:                -0.618
REMARK  Name = /home/qwerty/github/datacon2025hack/step_04_hit_selection/docking/ligands/lig_730.pdb
REMARK  6 active torsions:
REMARK  status: ('A' for Active; 'I' for Inactive)
REMARK    1  A    between atoms: C1_1  and  C2_2
REMARK    2  A    between atoms: C2_2  and  C3_3
REMARK    3  A    between atoms: C4_4  and  N1_5
REMARK    4  A    between atoms: C5_6  and  C6_8
REMARK    5  A    between atoms: C8_10  and  C9_11
REMARK    6  A    between atoms: C12_17  and  C13_19
REMARK                            x       y       z     vdW  Elec       q    Type
REMARK                         _______ _______ _______ _____ _____    ______ ____
ROOT
ATOM      1  C3  UNL     1      21.354   7.060  34.973  0.00  0.00    +0.096 C 
ATOM      2  C4  UNL     1      21.609   6.944  33.456  0.00  0.00    +0.095 C 
ATOM      3  C10 UNL     1      20.734   8.031  32.817  0.00  0.00    +0.043 C 
ATOM      4  C11 UNL     1      19.647   8.351  33.834  0.00  0.00    +0.110 C 
ATOM      5  N3  UNL     1      20.137   7.852  35.112  0.00  0.00    -0.293 N 
ATOM      6  C12 UNL     1      19.338   7.846  36.311  0.00  0.00    +0.247 C 
ATOM      7  O3  UNL     1      19.498   6.927  37.160  0.00  0.00    -0.270 OA
ENDROOT
BRANCH   6   8
ATOM      8  C13 UNL     1      18.321   8.885  36.568  0.00  0.00    +0.039 A 
ATOM      9  C14 UNL     1      16.957   8.534  36.743  0.00  0.00    +0.014 A 
ATOM     10  C15 UNL     1      15.984   9.524  36.970  0.00  0.00    +0.011 A 
ATOM     11  C16 UNL     1      16.402  10.850  37.003  0.00  0.00    -0.000 A 
ATOM     12  C17 UNL     1      15.687  12.012  37.196  0.00  0.00    +0.027 A 
ATOM     13  C18 UNL     1      16.628  13.034  37.117  0.00  0.00    +0.083 A 
ATOM     14  N4  UNL     1      17.864  12.533  36.885  0.00  0.00    -0.361 N 
ATOM     15  C19 UNL     1      17.712  11.201  36.817  0.00  0.00    +0.047 A 
ATOM     16  C20 UNL     1      18.701  10.246  36.590  0.00  0.00    +0.039 A 
ATOM     17  H21 UNL     1      18.749  13.076  36.779  0.00  0.00    +0.165 HD
ENDBRANCH   6   8
BRANCH   2  18
ATOM     18  N1  UNL     1      21.219   5.611  32.978  0.00  0.00    -0.305 N 
ATOM     19  C5  UNL     1      22.197   4.613  32.644  0.00  0.00    +0.266 C 
ATOM     20  O1  UNL     1      23.426   4.886  32.728  0.00  0.00    -0.268 OA
ATOM     21  H8  UNL     1      20.205   5.381  32.880  0.00  0.00    +0.149 HD
BRANCH  19  22
ATOM     22  C6  UNL     1      21.796   3.265  32.204  0.00  0.00    +0.168 A 
ATOM     23  C7  UNL     1      21.991   2.701  30.956  0.00  0.00    +0.080 A 
ATOM     24  C8  UNL     1      21.432   1.448  31.081  0.00  0.00    +0.135 A 
ATOM     25  C9  UNL     1      21.341   0.412  30.012  0.00  0.00    +0.089 C 
ATOM     26  O2  UNL     1      20.953   1.311  32.294  0.00  0.00    -0.359 OA
ATOM     27  N2  UNL     1      21.157   2.385  33.000  0.00  0.00    -0.073 NA
ENDBRANCH  19  22
ENDBRANCH   2  18
BRANCH   1  29
ATOM     28  C1  UNL     1      23.301   6.725  36.634  0.00  0.00    +0.006 C 
ATOM     29  C2  UNL     1      22.528   7.702  35.746  0.00  0.00    +0.021 C 
ENDBRANCH   1  29
TORSDOF 4
ENDMDL
MODEL 6
REMARK VINA RESULT:    -6.234     13.373     14.673
REMARK INTER + INTRA:          -8.310
REMARK INTER:                  -7.635
REMARK INTRA:                  -0.675
REMARK UNBOUND:                -0.618
REMARK  Name = /home/qwerty/github/datacon2025hack/step_04_hit_selection/docking/ligands/lig_730.pdb
REMARK  6 active torsions:
REMARK  status: ('A' for Active; 'I' for Inactive)
REMARK    1  A    between atoms: C1_1  and  C2_2
REMARK    2  A    between atoms: C2_2  and  C3_3
REMARK    3  A    between atoms: C4_4  and  N1_5
REMARK    4  A    between atoms: C5_6  and  C6_8
REMARK    5  A    between atoms: C8_10  and  C9_11
REMARK    6  A    between atoms: C12_17  and  C13_19
REMARK                            x       y       z     vdW  Elec       q    Type
REMARK                         _______ _______ _______ _____ _____    ______ ____
ROOT
ATOM      1  C3  UNL     1       8.938  12.462  29.243  0.00  0.00    +0.096 C 
ATOM      2  C4  UNL     1      10.310  13.066  29.608  0.00  0.00    +0.095 C 
ATOM      3  C10 UNL     1      11.230  12.714  28.432  0.00  0.00    +0.043 C 
ATOM      4  C11 UNL     1      10.586  11.526  27.732  0.00  0.00    +0.110 C 
ATOM      5  N3  UNL     1       9.197  11.510  28.169  0.00  0.00    -0.293 N 
ATOM      6  C12 UNL     1       8.280  10.452  27.830  0.00  0.00    +0.247 C 
ATOM      7  O3  UNL     1       7.372  10.130  28.645  0.00  0.00    -0.270 OA
ENDROOT
BRANCH   6   8
ATOM      8  C13 UNL     1       8.381   9.720  26.552  0.00  0.00    +0.039 A 
ATOM      9  C14 UNL     1       9.020   8.454  26.492  0.00  0.00    +0.014 A 
ATOM     10  C15 UNL     1       9.134   7.764  25.271  0.00  0.00    +0.011 A 
ATOM     11  C16 UNL     1       8.614   8.369  24.132  0.00  0.00    -0.000 A 
ATOM     12  C17 UNL     1       8.585   7.942  22.822  0.00  0.00    +0.027 A 
ATOM     13  C18 UNL     1       7.948   8.962  22.122  0.00  0.00    +0.083 A 
ATOM     14  N4  UNL     1       7.600   9.971  22.953  0.00  0.00    -0.361 N 
ATOM     15  C19 UNL     1       8.012   9.597  24.175  0.00  0.00    +0.047 A 
ATOM     16  C20 UNL     1       7.882  10.308  25.367  0.00  0.00    +0.039 A 
ATOM     17  H21 UNL     1       7.114  10.857  22.692  0.00  0.00    +0.165 HD
ENDBRANCH   6   8
BRANCH   2  18
ATOM     18  N1  UNL     1      10.808  12.473  30.857  0.00  0.00    -0.305 N 
ATOM     19  C5  UNL     1      11.446  13.270  31.868  0.00  0.00    +0.266 C 
ATOM     20  O1  UNL     1      11.619  14.504  31.678  0.00  0.00    -0.268 OA
ATOM     21  H8  UNL     1      10.694  11.447  31.015  0.00  0.00    +0.149 HD
BRANCH  19  22
ATOM     22  C6  UNL     1      11.907  12.673  33.135  0.00  0.00    +0.168 A 
ATOM     23  C7  UNL     1      11.218  11.782  33.938  0.00  0.00    +0.080 A 
ATOM     24  C8  UNL     1      12.089  11.554  34.981  0.00  0.00    +0.135 A 
ATOM     25  C9  UNL     1      11.840  10.679  36.163  0.00  0.00    +0.089 C 
ATOM     26  O2  UNL     1      13.178  12.260  34.793  0.00  0.00    -0.359 OA
ATOM     27  N2  UNL     1      13.106  12.945  33.689  0.00  0.00    -0.073 NA
ENDBRANCH  19  22
ENDBRANCH   2  18
BRANCH   1  29
ATOM     28  C1  UNL     1       7.096  14.116  29.972  0.00  0.00    +0.006 C 
ATOM     29  C2  UNL     1       7.896  13.518  28.813  0.00  0.00    +0.021 C 
ENDBRANCH   1  29
TORSDOF 4
ENDMDL
MODEL 7
REMARK VINA RESULT:    -6.149     13.327     16.470
REMARK INTER + INTRA:          -8.204
REMARK INTER:                  -7.659
REMARK INTRA:                  -0.545
REMARK UNBOUND:                -0.618
REMARK  Name = /home/qwerty/github/datacon2025hack/step_04_hit_selection/docking/ligands/lig_730.pdb
REMARK  6 active torsions:
REMARK  status: ('A' for Active; 'I' for Inactive)
REMARK    1  A    between atoms: C1_1  and  C2_2
REMARK    2  A    between atoms: C2_2  and  C3_3
REMARK    3  A    between atoms: C4_4  and  N1_5
REMARK    4  A    between atoms: C5_6  and  C6_8
REMARK    5  A    between atoms: C8_10  and  C9_11
REMARK    6  A    between atoms: C12_17  and  C13_19
REMARK                            x       y       z     vdW  Elec       q    Type
REMARK                         _______ _______ _______ _____ _____    ______ ____
ROOT
ATOM      1  C3  UNL     1       7.900   9.703  27.983  0.00  0.00    +0.096 C 
ATOM      2  C4  UNL     1       8.480   8.304  27.686  0.00  0.00    +0.095 C 
ATOM      3  C10 UNL     1       9.934   8.360  28.176  0.00  0.00    +0.043 C 
ATOM      4  C11 UNL     1      10.309   9.835  28.219  0.00  0.00    +0.110 C 
ATOM      5  N3  UNL     1       9.049  10.567  28.222  0.00  0.00    -0.293 N 
ATOM      6  C12 UNL     1       8.976  12.003  28.126  0.00  0.00    +0.247 C 
ATOM      7  O3  UNL     1       7.998  12.538  27.537  0.00  0.00    -0.270 OA
ENDROOT
BRANCH   6   8
ATOM      8  C13 UNL     1      10.028  12.871  28.691  0.00  0.00    +0.039 A 
ATOM      9  C14 UNL     1      10.942  13.546  27.841  0.00  0.00    +0.014 A 
ATOM     10  C15 UNL     1      11.957  14.359  28.378  0.00  0.00    +0.011 A 
ATOM     11  C16 UNL     1      12.040  14.465  29.762  0.00  0.00    -0.000 A 
ATOM     12  C17 UNL     1      12.917  15.170  30.558  0.00  0.00    +0.027 A 
ATOM     13  C18 UNL     1      12.525  14.892  31.864  0.00  0.00    +0.083 A 
ATOM     14  N4  UNL     1      11.461  14.056  31.879  0.00  0.00    -0.361 N 
ATOM     15  C19 UNL     1      11.176  13.804  30.592  0.00  0.00    +0.047 A 
ATOM     16  C20 UNL     1      10.159  12.991  30.093  0.00  0.00    +0.039 A 
ATOM     17  H21 UNL     1      10.968  13.686  32.722  0.00  0.00    +0.165 HD
ENDBRANCH   6   8
BRANCH   2  18
ATOM     18  N1  UNL     1       8.426   8.028  26.244  0.00  0.00    -0.305 N 
ATOM     19  C5  UNL     1       8.623   6.705  25.722  0.00  0.00    +0.266 C 
ATOM     20  O1  UNL     1       8.885   5.753  26.506  0.00  0.00    -0.268 OA
ATOM     21  H8  UNL     1       8.236   8.814  25.582  0.00  0.00    +0.149 HD
BRANCH  19  22
ATOM     22  C6  UNL     1       8.527   6.430  24.277  0.00  0.00    +0.168 A 
ATOM     23  C7  UNL     1       8.118   5.253  23.676  0.00  0.00    +0.080 A 
ATOM     24  C8  UNL     1       8.217   5.531  22.330  0.00  0.00    +0.135 A 
ATOM     25  C9  UNL     1       7.919   4.592  21.211  0.00  0.00    +0.089 C 
ATOM     26  O2  UNL     1       8.652   6.759  22.176  0.00  0.00    -0.359 OA
ATOM     27  N2  UNL     1       8.847   7.332  23.328  0.00  0.00    -0.073 NA
ENDBRANCH  19  22
ENDBRANCH   2  18
BRANCH   1  29
ATOM     28  C1  UNL     1       7.152   8.591  30.189  0.00  0.00    +0.006 C 
ATOM     29  C2  UNL     1       6.927   9.722  29.183  0.00  0.00    +0.021 C 
ENDBRANCH   1  29
TORSDOF 4
ENDMDL
MODEL 8
REMARK VINA RESULT:    -6.148      1.886      2.448
REMARK INTER + INTRA:          -8.203
REMARK INTER:                  -7.631
REMARK INTRA:                  -0.572
REMARK UNBOUND:                -0.618
REMARK  Name = /home/qwerty/github/datacon2025hack/step_04_hit_selection/docking/ligands/lig_730.pdb
REMARK  6 active torsions:
REMARK  status: ('A' for Active; 'I' for Inactive)
REMARK    1  A    between atoms: C1_1  and  C2_2
REMARK    2  A    between atoms: C2_2  and  C3_3
REMARK    3  A    between atoms: C4_4  and  N1_5
REMARK    4  A    between atoms: C5_6  and  C6_8
REMARK    5  A    between atoms: C8_10  and  C9_11
REMARK    6  A    between atoms: C12_17  and  C13_19
REMARK                            x       y       z     vdW  Elec       q    Type
REMARK                         _______ _______ _______ _____ _____    ______ ____
ROOT
ATOM      1  C3  UNL     1      21.359   2.788  28.405  0.00  0.00    +0.096 C 
ATOM      2  C4  UNL     1      21.793   2.517  29.861  0.00  0.00    +0.095 C 
ATOM      3  C10 UNL     1      21.169   1.162  30.220  0.00  0.00    +0.043 C 
ATOM      4  C11 UNL     1      20.013   0.958  29.251  0.00  0.00    +0.110 C 
ATOM      5  N3  UNL     1      20.256   1.871  28.143  0.00  0.00    -0.293 N 
ATOM      6  C12 UNL     1      19.313   2.076  27.073  0.00  0.00    +0.247 C 
ATOM      7  O3  UNL     1      19.230   3.208  26.524  0.00  0.00    -0.270 OA
ENDROOT
BRANCH   6   8
ATOM      8  C13 UNL     1      18.425   0.992  26.607  0.00  0.00    +0.039 A 
ATOM      9  C14 UNL     1      17.186   0.744  27.253  0.00  0.00    +0.014 A 
ATOM     10  C15 UNL     1      16.347  -0.300  26.822  0.00  0.00    +0.011 A 
ATOM     11  C16 UNL     1      16.779  -1.083  25.757  0.00  0.00    -0.000 A 
ATOM     12  C17 UNL     1      16.184  -2.158  25.133  0.00  0.00    +0.027 A 
ATOM     13  C18 UNL     1      17.080  -2.544  24.141  0.00  0.00    +0.083 A 
ATOM     14  N4  UNL     1      18.176  -1.750  24.149  0.00  0.00    -0.361 N 
ATOM     15  C19 UNL     1      17.980  -0.864  25.138  0.00  0.00    +0.047 A 
ATOM     16  C20 UNL     1      18.835   0.161  25.540  0.00  0.00    +0.039 A 
ATOM     17  H21 UNL     1      19.003  -1.818  23.514  0.00  0.00    +0.165 HD
ENDBRANCH   6   8
BRANCH   2  18
ATOM     18  N1  UNL     1      21.289   3.576  30.745  0.00  0.00    -0.305 N 
ATOM     19  C5  UNL     1      21.974   3.938  31.954  0.00  0.00    +0.266 C 
ATOM     20  O1  UNL     1      23.018   3.318  32.295  0.00  0.00    -0.268 OA
ATOM     21  H8  UNL     1      20.411   4.080  30.488  0.00  0.00    +0.149 HD
BRANCH  19  22
ATOM     22  C6  UNL     1      21.483   5.030  32.816  0.00  0.00    +0.168 A 
ATOM     23  C7  UNL     1      21.793   5.249  34.145  0.00  0.00    +0.080 A 
ATOM     24  C8  UNL     1      21.074   6.382  34.458  0.00  0.00    +0.135 A 
ATOM     25  C9  UNL     1      21.020   7.052  35.789  0.00  0.00    +0.089 C 
ATOM     26  O2  UNL     1      20.404   6.770  33.400  0.00  0.00    -0.359 OA
ATOM     27  N2  UNL     1      20.628   5.981  32.390  0.00  0.00    -0.073 NA
ENDBRANCH  19  22
ENDBRANCH   2  18
BRANCH   1  29
ATOM     28  C1  UNL     1      22.574   3.699  26.318  0.00  0.00    +0.006 C 
ATOM     29  C2  UNL     1      22.498   2.599  27.379  0.00  0.00    +0.021 C 
ENDBRANCH   1  29
TORSDOF 4
ENDMDL
MODEL 9
REMARK VINA RESULT:    -6.023     10.954     15.071
REMARK INTER + INTRA:          -8.049
REMARK INTER:                  -7.303
REMARK INTRA:                  -0.746
REMARK UNBOUND:                -0.618
REMARK  Name = /home/qwerty/github/datacon2025hack/step_04_hit_selection/docking/ligands/lig_730.pdb
REMARK  6 active torsions:
REMARK  status: ('A' for Active; 'I' for Inactive)
REMARK    1  A    between atoms: C1_1  and  C2_2
REMARK    2  A    between atoms: C2_2  and  C3_3
REMARK    3  A    between atoms: C4_4  and  N1_5
REMARK    4  A    between atoms: C5_6  and  C6_8
REMARK    5  A    between atoms: C8_10  and  C9_11
REMARK    6  A    between atoms: C12_17  and  C13_19
REMARK                            x       y       z     vdW  Elec       q    Type
REMARK                         _______ _______ _______ _____ _____    ______ ____
ROOT
ATOM      1  C3  UNL     1      22.793  14.433  22.237  0.00  0.00    +0.096 C 
ATOM      2  C4  UNL     1      21.864  13.393  21.577  0.00  0.00    +0.095 C 
ATOM      3  C10 UNL     1      20.697  13.217  22.558  0.00  0.00    +0.043 C 
ATOM      4  C11 UNL     1      21.208  13.687  23.913  0.00  0.00    +0.110 C 
ATOM      5  N3  UNL     1      22.384  14.501  23.635  0.00  0.00    -0.293 N 
ATOM      6  C12 UNL     1      23.237  15.026  24.671  0.00  0.00    +0.247 C 
ATOM      7  O3  UNL     1      24.471  15.160  24.451  0.00  0.00    -0.270 OA
ENDROOT
BRANCH   6   8
ATOM      8  C13 UNL     1      22.705  15.401  25.996  0.00  0.00    +0.039 A 
ATOM      9  C14 UNL     1      22.140  16.686  26.210  0.00  0.00    +0.014 A 
ATOM     10  C15 UNL     1      21.650  17.053  27.477  0.00  0.00    +0.011 A 
ATOM     11  C16 UNL     1      21.750  16.122  28.506  0.00  0.00    -0.000 A 
ATOM     12  C17 UNL     1      21.367  16.202  29.828  0.00  0.00    +0.027 A 
ATOM     13  C18 UNL     1      21.723  14.976  30.382  0.00  0.00    +0.083 A 
ATOM     14  N4  UNL     1      22.298  14.177  29.454  0.00  0.00    -0.361 N 
ATOM     15  C19 UNL     1      22.308  14.888  28.315  0.00  0.00    +0.047 A 
ATOM     16  C20 UNL     1      22.804  14.493  27.073  0.00  0.00    +0.039 A 
ATOM     17  H21 UNL     1      22.659  13.208  29.599  0.00  0.00    +0.165 HD
ENDBRANCH   6   8
BRANCH   2  18
ATOM     18  N1  UNL     1      22.581  12.125  21.385  0.00  0.00    -0.305 N 
ATOM     19  C5  UNL     1      23.238  11.810  20.147  0.00  0.00    +0.266 C 
ATOM     20  O1  UNL     1      23.178  12.619  19.182  0.00  0.00    -0.268 OA
ATOM     21  H8  UNL     1      22.615  11.435  22.169  0.00  0.00    +0.149 HD
BRANCH  19  22
ATOM     22  C6  UNL     1      23.989  10.553  19.977  0.00  0.00    +0.168 A 
ATOM     23  C7  UNL     1      23.645   9.302  20.459  0.00  0.00    +0.080 A 
ATOM     24  C8  UNL     1      24.677   8.499  20.025  0.00  0.00    +0.135 A 
ATOM     25  C9  UNL     1      24.829   7.039  20.290  0.00  0.00    +0.089 C 
ATOM     26  O2  UNL     1      25.539   9.229  19.359  0.00  0.00    -0.359 OA
ATOM     27  N2  UNL     1      25.156  10.472  19.307  0.00  0.00    -0.073 NA
ENDBRANCH  19  22
ENDBRANCH   2  18
BRANCH   1  29
ATOM     28  C1  UNL     1      23.570  15.949  20.297  0.00  0.00    +0.006 C 
ATOM     29  C2  UNL     1      22.728  15.825  21.570  0.00  0.00    +0.021 C 
ENDBRANCH   1  29
TORSDOF 4
ENDMDL
