REMARK  Name = /home/qwerty/github/datacon2025hack/step_04_hit_selection/docking/ligands/lig_200.pdb
REMARK  5 active torsions:
REMARK  status: ('A' for Active; 'I' for Inactive)
REMARK    1  A    between atoms: C1_1  and  N1_2
REMARK    2  A    between atoms: C3_4  and  C4_5
REMARK    3  A    between atoms: C8_11  and  C9_12
REMARK    4  A    between atoms: C9_12  and  N3_13
REMARK    5  A    between atoms: C10_14  and  C11_16
REMARK                            x       y       z     vdW  Elec       q    Type
REMARK                         _______ _______ _______ _____ _____    ______ ____
ROOT
ATOM      1  C4  UNL     1       3.041  -1.016  -2.016  0.00  0.00    +0.250 C 
ATOM      2  O1  UNL     1       2.907  -1.903  -2.900  0.00  0.00    -0.270 OA
ATOM      3  N2  UNL     1       2.033  -0.012  -1.868  0.00  0.00    -0.293 N 
ATOM      4  C5  UNL     1       2.103   1.248  -2.584  0.00  0.00    +0.108 C 
ATOM      5  C6  UNL     1       1.234   2.214  -1.789  0.00  0.00    +0.021 C 
ATOM      6  C7  UNL     1       0.338   1.339  -0.916  0.00  0.00    +0.025 C 
ATOM      7  C8  UNL     1       1.092   0.015  -0.758  0.00  0.00    +0.093 C 
ENDROOT
BRANCH   1  11
ATOM      8  C1  UNL     1       6.497   0.303   1.340  0.00  0.00    +0.172 C 
ATOM      9  N1  UNL     1       5.748  -0.445   0.340  0.00  0.00    -0.274 N 
ATOM     10  C2  UNL     1       4.578  -0.070  -0.207  0.00  0.00    +0.121 A 
ATOM     11  C3  UNL     1       4.229  -1.015  -1.149  0.00  0.00    +0.074 A 
ATOM     12  C17 UNL     1       5.255  -1.943  -1.131  0.00  0.00    +0.147 A 
ATOM     13  N6  UNL     1       6.174  -1.569  -0.218  0.00  0.00    -0.179 NA
ENDBRANCH   1  11
BRANCH   7  14
ATOM     14  C9  UNL     1       0.158  -1.207  -0.803  0.00  0.00    +0.127 C 
BRANCH  14  15
ATOM     15  N3  UNL     1      -0.808  -1.153   0.295  0.00  0.00    -0.309 N 
ATOM     16  C10 UNL     1      -2.200  -0.868   0.095  0.00  0.00    +0.247 C 
ATOM     17  O2  UNL     1      -2.664  -0.786  -1.072  0.00  0.00    -0.270 OA
ATOM     18  H14 UNL     1      -0.439  -1.263   1.265  0.00  0.00    +0.149 HD
BRANCH  16  19
ATOM     19  C11 UNL     1      -3.104  -0.672   1.242  0.00  0.00    +0.077 A 
ATOM     20  C12 UNL     1      -2.792  -0.608   2.607  0.00  0.00    +0.147 A 
ATOM     21  N4  UNL     1      -3.903  -0.298   3.322  0.00  0.00    -0.179 NA
ATOM     22  N5  UNL     1      -4.881  -0.224   2.438  0.00  0.00    -0.268 N 
ATOM     23  C13 UNL     1      -4.456  -0.413   1.215  0.00  0.00    +0.051 A 
ATOM     24  C14 UNL     1      -5.454  -0.087   0.179  0.00  0.00    +0.057 C 
ATOM     25  C15 UNL     1      -6.677   0.334   1.044  0.00  0.00    +0.029 C 
ATOM     26  C16 UNL     1      -6.221   0.296   2.528  0.00  0.00    +0.144 C 
ENDBRANCH  16  19
ENDBRANCH  14  15
ENDBRANCH   7  14
TORSDOF 4
