REMARK  Name = /home/qwerty/github/datacon2025hack/step_04_hit_selection/docking/ligands/lig_457.pdb
REMARK  11 active torsions:
REMARK  status: ('A' for Active; 'I' for Inactive)
REMARK    1  A    between atoms: C2_2  and  C3_3
REMARK    2  A    between atoms: C3_3  and  C4_4
REMARK    3  A    between atoms: C3_3  and  C6_6
REMARK    4  A    between atoms: C4_4  and  C5_5
REMARK    5  A    between atoms: C6_6  and  C7_7
REMARK    6  A    between atoms: N1_9  and  C8_10
REMARK    7  A    between atoms: C8_10  and  C9_11
REMARK    8  A    between atoms: C8_10  and  C15_21
REMARK    9  A    between atoms: C9_11  and  N2_12
REMARK   10  A    between atoms: C10_13  and  C11_15
REMARK   11  A    between atoms: C13_18  and  C14_19
REMARK                            x       y       z     vdW  Elec       q    Type
REMARK                         _______ _______ _______ _____ _____    ______ ____
ROOT
ATOM      1  C8  UNL     1       0.320  -0.315   0.849  0.00  0.00    +0.093 C 
ENDROOT
BRANCH   1   4
ATOM      2  C7  UNL     1      -2.016   0.708   0.841  0.00  0.00    +0.214 C 
ATOM      3  O1  UNL     1      -1.548   1.876   0.926  0.00  0.00    -0.276 OA
ATOM      4  N1  UNL     1      -1.144  -0.431   0.882  0.00  0.00    -0.311 N 
ATOM      5  H12 UNL     1      -1.574  -1.384   0.917  0.00  0.00    +0.149 HD
BRANCH   2   6
ATOM      6  C6  UNL     1      -3.495   0.518   0.659  0.00  0.00    +0.103 C 
BRANCH   6   7
ATOM      7  C3  UNL     1      -3.910   0.678  -0.822  0.00  0.00    +0.020 C 
BRANCH   7   9
ATOM      8  C1  UNL     1      -3.249  -1.610  -1.614  0.00  0.00    +0.004 C 
ATOM      9  C2  UNL     1      -3.150  -0.280  -1.721  0.00  0.00    -0.031 C 
ENDBRANCH   7   9
BRANCH   7  10
ATOM     10  C4  UNL     1      -5.432   0.501  -1.022  0.00  0.00    +0.004 C 
ATOM     11  C5  UNL     1      -6.248   1.661  -0.448  0.00  0.00    +0.004 C 
ENDBRANCH   7  10
ENDBRANCH   6   7
ENDBRANCH   2   6
ENDBRANCH   1   4
BRANCH   1  12
ATOM     12  C15 UNL     1       0.980  -0.448   2.246  0.00  0.00    +0.011 C 
ATOM     13  C16 UNL     1       0.454  -1.546   3.162  0.00  0.00    +0.006 C 
ATOM     14  C17 UNL     1       0.158  -0.086   3.478  0.00  0.00    +0.006 C 
ENDBRANCH   1  12
BRANCH   1  15
ATOM     15  C9  UNL     1       0.890  -1.370  -0.114  0.00  0.00    +0.127 C 
BRANCH  15  16
ATOM     16  N2  UNL     1       2.332  -1.197  -0.293  0.00  0.00    -0.309 N 
ATOM     17  C10 UNL     1       2.886  -0.132  -1.081  0.00  0.00    +0.252 C 
ATOM     18  O2  UNL     1       2.124   0.603  -1.767  0.00  0.00    -0.270 OA
ATOM     19  H16 UNL     1       2.962  -1.916   0.125  0.00  0.00    +0.149 HD
BRANCH  17  20
ATOM     20  C11 UNL     1       4.338   0.119  -1.113  0.00  0.00    +0.093 A 
ATOM     21  C12 UNL     1       5.316  -0.491  -0.329  0.00  0.00    +0.131 A 
ATOM     22  N3  UNL     1       6.585  -0.062  -0.563  0.00  0.00    -0.252 NA
ATOM     23  C13 UNL     1       6.628   0.897  -1.513  0.00  0.00    +0.076 A 
ATOM     24  C14 UNL     1       7.895   1.500  -2.018  0.00  0.00    +0.073 C 
ATOM     25  S1  UNL     1       5.098   1.232  -2.123  0.00  0.00    -0.068 S 
ENDBRANCH  17  20
ENDBRANCH  15  16
ENDBRANCH   1  15
TORSDOF 9
