MODEL 1
REMARK VINA RESULT:    -6.757      0.000      0.000
REMARK INTER + INTRA:          -8.897
REMARK INTER:                  -8.337
REMARK INTRA:                  -0.560
REMARK UNBOUND:                -0.560
REMARK  Name = /home/qwerty/github/datacon2025hack/step_04_hit_selection/docking/ligands/lig_679.pdb
REMARK  4 active torsions:
REMARK  status: ('A' for Active; 'I' for Inactive)
REMARK    1  A    between atoms: N1_3  and  C2_4
REMARK    2  A    between atoms: C11_14  and  C12_15
REMARK    3  A    between atoms: C12_15  and  C13_16
REMARK    4  A    between atoms: C14_18  and  C15_19
REMARK                            x       y       z     vdW  Elec       q    Type
REMARK                         _______ _______ _______ _____ _____    ______ ____
ROOT
ATOM      1  O1  UNL     1      22.466   5.545  24.701  0.00  0.00    -0.253 OA
ATOM      2  C1  UNL     1      21.709   4.555  24.506  0.00  0.00    +0.302 C 
ATOM      3  N1  UNL     1      21.076   4.390  23.230  0.00  0.00    -0.296 N 
ATOM      4  N2  UNL     1      21.497   3.603  25.566  0.00  0.00    -0.285 N 
ATOM      5  C5  UNL     1      20.287   2.773  25.595  0.00  0.00    +0.112 C 
ATOM      6  C6  UNL     1      19.820   2.543  27.039  0.00  0.00    +0.054 C 
ATOM      7  C7  UNL     1      20.957   2.003  27.938  0.00  0.00    +0.073 C 
ATOM      8  C8  UNL     1      22.122   3.034  27.878  0.00  0.00    +0.054 C 
ATOM      9  C9  UNL     1      22.615   3.234  26.444  0.00  0.00    +0.112 C 
ATOM     10  C10 UNL     1      20.399   1.875  29.385  0.00  0.00    +0.039 C 
ATOM     11  C11 UNL     1      21.354   1.102  30.307  0.00  0.00    +0.003 C 
ATOM     12  C20 UNL     1      21.724  -0.226  29.634  0.00  0.00    +0.032 C 
ATOM     13  C21 UNL     1      22.269   0.038  28.230  0.00  0.00    +0.161 C 
ATOM     14  O3  UNL     1      21.333   0.728  27.418  0.00  0.00    -0.373 OA
ATOM     15  H1  UNL     1      20.615   3.483  22.995  0.00  0.00    +0.151 HD
ENDROOT
BRANCH   3  16
ATOM     16  C2  UNL     1      21.233   5.380  22.170  0.00  0.00    +0.075 C 
ATOM     17  C3  UNL     1      21.385   4.783  20.783  0.00  0.00    +0.024 C 
ATOM     18  C4  UNL     1      20.064   5.408  21.201  0.00  0.00    +0.024 C 
ENDBRANCH   3  16
BRANCH  11  19
ATOM     19  C12 UNL     1      20.707   0.879  31.688  0.00  0.00    +0.102 C 
BRANCH  19  20
ATOM     20  C13 UNL     1      20.906   2.064  32.583  0.00  0.00    +0.228 A 
ATOM     21  N3  UNL     1      21.922   2.940  32.462  0.00  0.00    -0.191 NA
ATOM     22  C14 UNL     1      21.646   3.805  33.462  0.00  0.00    +0.204 A 
ATOM     23  N5  UNL     1      20.532   3.466  34.143  0.00  0.00    -0.056 NA
ATOM     24  O2  UNL     1      20.105   2.384  33.568  0.00  0.00    -0.338 OA
BRANCH  22  25
ATOM     25  C15 UNL     1      22.478   4.985  33.782  0.00  0.00    +0.041 A 
ATOM     26  C16 UNL     1      22.153   5.821  34.862  0.00  0.00    +0.014 A 
ATOM     27  C17 UNL     1      22.952   6.928  35.156  0.00  0.00    +0.020 A 
ATOM     28  C18 UNL     1      24.071   7.193  34.367  0.00  0.00    +0.111 A 
ATOM     29  N4  UNL     1      24.375   6.378  33.324  0.00  0.00    -0.263 NA
ATOM     30  C19 UNL     1      23.613   5.293  33.015  0.00  0.00    +0.122 A 
ENDBRANCH  22  25
ENDBRANCH  19  20
ENDBRANCH  11  19
TORSDOF 4
ENDMDL
MODEL 2
REMARK VINA RESULT:    -6.743     13.419     16.424
REMARK INTER + INTRA:          -8.880
REMARK INTER:                  -8.366
REMARK INTRA:                  -0.514
REMARK UNBOUND:                -0.560
REMARK  Name = /home/qwerty/github/datacon2025hack/step_04_hit_selection/docking/ligands/lig_679.pdb
REMARK  4 active torsions:
REMARK  status: ('A' for Active; 'I' for Inactive)
REMARK    1  A    between atoms: N1_3  and  C2_4
REMARK    2  A    between atoms: C11_14  and  C12_15
REMARK    3  A    between atoms: C12_15  and  C13_16
REMARK    4  A    between atoms: C14_18  and  C15_19
REMARK                            x       y       z     vdW  Elec       q    Type
REMARK                         _______ _______ _______ _____ _____    ______ ____
ROOT
ATOM      1  O1  UNL     1      14.750  11.626  33.729  0.00  0.00    -0.253 OA
ATOM      2  C1  UNL     1      14.362  12.822  33.626  0.00  0.00    +0.302 C 
ATOM      3  N1  UNL     1      14.830  13.799  34.566  0.00  0.00    -0.296 N 
ATOM      4  N2  UNL     1      13.462  13.189  32.564  0.00  0.00    -0.285 N 
ATOM      5  C5  UNL     1      12.597  14.368  32.690  0.00  0.00    +0.112 C 
ATOM      6  C6  UNL     1      11.241  14.122  32.014  0.00  0.00    +0.054 C 
ATOM      7  C7  UNL     1      11.399  13.629  30.556  0.00  0.00    +0.073 C 
ATOM      8  C8  UNL     1      12.254  12.329  30.599  0.00  0.00    +0.054 C 
ATOM      9  C9  UNL     1      13.621  12.581  31.236  0.00  0.00    +0.112 C 
ATOM     10  C10 UNL     1       9.977  13.344  29.994  0.00  0.00    +0.039 C 
ATOM     11  C11 UNL     1       9.991  13.104  28.477  0.00  0.00    +0.003 C 
ATOM     12  C20 UNL     1      10.737  14.262  27.801  0.00  0.00    +0.032 C 
ATOM     13  C21 UNL     1      12.120  14.428  28.433  0.00  0.00    +0.161 C 
ATOM     14  O3  UNL     1      12.039  14.676  29.827  0.00  0.00    -0.373 OA
ATOM     15  H1  UNL     1      14.679  14.814  34.375  0.00  0.00    +0.151 HD
ENDROOT
BRANCH   3  16
ATOM     16  C2  UNL     1      15.691  13.427  35.684  0.00  0.00    +0.075 C 
ATOM     17  C3  UNL     1      15.671  14.416  36.836  0.00  0.00    +0.024 C 
ATOM     18  C4  UNL     1      14.919  13.099  36.949  0.00  0.00    +0.024 C 
ENDBRANCH   3  16
BRANCH  11  19
ATOM     19  C12 UNL     1       8.554  12.962  27.939  0.00  0.00    +0.102 C 
BRANCH  19  20
ATOM     20  C13 UNL     1       8.226  11.534  27.625  0.00  0.00    +0.228 A 
ATOM     21  N3  UNL     1       7.927  10.606  28.553  0.00  0.00    -0.191 NA
ATOM     22  C14 UNL     1       7.697   9.522  27.780  0.00  0.00    +0.204 A 
ATOM     23  N5  UNL     1       7.852   9.786  26.466  0.00  0.00    -0.056 NA
ATOM     24  O2  UNL     1       8.178  11.040  26.414  0.00  0.00    -0.338 OA
BRANCH  22  25
ATOM     25  C15 UNL     1       7.330   8.193  28.315  0.00  0.00    +0.041 A 
ATOM     26  C16 UNL     1       7.142   7.101  27.454  0.00  0.00    +0.014 A 
ATOM     27  C17 UNL     1       6.801   5.850  27.973  0.00  0.00    +0.020 A 
ATOM     28  C18 UNL     1       6.649   5.700  29.351  0.00  0.00    +0.111 A 
ATOM     29  N4  UNL     1       6.833   6.765  30.175  0.00  0.00    -0.263 NA
ATOM     30  C19 UNL     1       7.164   7.994  29.695  0.00  0.00    +0.122 A 
ENDBRANCH  22  25
ENDBRANCH  19  20
ENDBRANCH  11  19
TORSDOF 4
ENDMDL
MODEL 3
REMARK VINA RESULT:    -6.720      7.370     10.090
REMARK INTER + INTRA:          -8.852
REMARK INTER:                  -8.377
REMARK INTRA:                  -0.475
REMARK UNBOUND:                -0.560
REMARK  Name = /home/qwerty/github/datacon2025hack/step_04_hit_selection/docking/ligands/lig_679.pdb
REMARK  4 active torsions:
REMARK  status: ('A' for Active; 'I' for Inactive)
REMARK    1  A    between atoms: N1_3  and  C2_4
REMARK    2  A    between atoms: C11_14  and  C12_15
REMARK    3  A    between atoms: C12_15  and  C13_16
REMARK    4  A    between atoms: C14_18  and  C15_19
REMARK                            x       y       z     vdW  Elec       q    Type
REMARK                         _______ _______ _______ _____ _____    ______ ____
ROOT
ATOM      1  O1  UNL     1      11.341   5.488  22.661  0.00  0.00    -0.253 OA
ATOM      2  C1  UNL     1      11.002   4.425  22.073  0.00  0.00    +0.302 C 
ATOM      3  N1  UNL     1       9.653   4.275  21.607  0.00  0.00    -0.296 N 
ATOM      4  N2  UNL     1      11.973   3.381  21.873  0.00  0.00    -0.285 N 
ATOM      5  C5  UNL     1      11.549   1.988  21.691  0.00  0.00    +0.112 C 
ATOM      6  C6  UNL     1      12.550   1.025  22.343  0.00  0.00    +0.054 C 
ATOM      7  C7  UNL     1      14.001   1.291  21.876  0.00  0.00    +0.073 C 
ATOM      8  C8  UNL     1      14.333   2.772  22.222  0.00  0.00    +0.054 C 
ATOM      9  C9  UNL     1      13.359   3.735  21.541  0.00  0.00    +0.112 C 
ATOM     10  C10 UNL     1      14.935   0.314  22.647  0.00  0.00    +0.039 C 
ATOM     11  C11 UNL     1      16.360   0.303  22.074  0.00  0.00    +0.003 C 
ATOM     12  C20 UNL     1      16.283   0.070  20.560  0.00  0.00    +0.032 C 
ATOM     13  C21 UNL     1      15.348   1.098  19.922  0.00  0.00    +0.161 C 
ATOM     14  O3  UNL     1      14.042   1.039  20.471  0.00  0.00    -0.373 OA
ATOM     15  H1  UNL     1       9.416   3.497  20.953  0.00  0.00    +0.151 HD
ENDROOT
BRANCH   3  16
ATOM     16  C2  UNL     1       8.644   5.298  21.859  0.00  0.00    +0.075 C 
ATOM     17  C3  UNL     1       7.399   5.164  21.001  0.00  0.00    +0.024 C 
ATOM     18  C4  UNL     1       7.366   4.741  22.460  0.00  0.00    +0.024 C 
ENDBRANCH   3  16
BRANCH  11  19
ATOM     19  C12 UNL     1      17.215  -0.772  22.773  0.00  0.00    +0.102 C 
BRANCH  19  20
ATOM     20  C13 UNL     1      17.855  -0.238  24.018  0.00  0.00    +0.228 A 
ATOM     21  N3  UNL     1      19.070   0.342  24.053  0.00  0.00    -0.191 NA
ATOM     22  C14 UNL     1      19.174   0.658  25.363  0.00  0.00    +0.204 A 
ATOM     23  N5  UNL     1      18.087   0.288  26.069  0.00  0.00    -0.056 NA
ATOM     24  O2  UNL     1      17.295  -0.262  25.201  0.00  0.00    -0.338 OA
BRANCH  22  25
ATOM     25  C15 UNL     1      20.353   1.324  25.956  0.00  0.00    +0.041 A 
ATOM     26  C16 UNL     1      20.785   0.998  27.252  0.00  0.00    +0.014 A 
ATOM     27  C17 UNL     1      21.904   1.630  27.797  0.00  0.00    +0.020 A 
ATOM     28  C18 UNL     1      22.584   2.588  27.044  0.00  0.00    +0.111 A 
ATOM     29  N4  UNL     1      22.156   2.896  25.792  0.00  0.00    -0.263 NA
ATOM     30  C19 UNL     1      21.069   2.295  25.237  0.00  0.00    +0.122 A 
ENDBRANCH  22  25
ENDBRANCH  19  20
ENDBRANCH  11  19
TORSDOF 4
ENDMDL
MODEL 4
REMARK VINA RESULT:    -6.717      2.034      9.163
REMARK INTER + INTRA:          -8.848
REMARK INTER:                  -8.346
REMARK INTRA:                  -0.502
REMARK UNBOUND:                -0.560
REMARK  Name = /home/qwerty/github/datacon2025hack/step_04_hit_selection/docking/ligands/lig_679.pdb
REMARK  4 active torsions:
REMARK  status: ('A' for Active; 'I' for Inactive)
REMARK    1  A    between atoms: N1_3  and  C2_4
REMARK    2  A    between atoms: C11_14  and  C12_15
REMARK    3  A    between atoms: C12_15  and  C13_16
REMARK    4  A    between atoms: C14_18  and  C15_19
REMARK                            x       y       z     vdW  Elec       q    Type
REMARK                         _______ _______ _______ _____ _____    ______ ____
ROOT
ATOM      1  O1  UNL     1      19.935   7.107  33.791  0.00  0.00    -0.253 OA
ATOM      2  C1  UNL     1      20.601   6.175  34.319  0.00  0.00    +0.302 C 
ATOM      3  N1  UNL     1      21.116   6.339  35.648  0.00  0.00    -0.296 N 
ATOM      4  N2  UNL     1      20.828   4.958  33.583  0.00  0.00    -0.285 N 
ATOM      5  C5  UNL     1      21.974   4.096  33.897  0.00  0.00    +0.112 C 
ATOM      6  C6  UNL     1      22.537   3.454  32.622  0.00  0.00    +0.054 C 
ATOM      7  C7  UNL     1      21.439   2.740  31.797  0.00  0.00    +0.073 C 
ATOM      8  C8  UNL     1      20.350   3.801  31.463  0.00  0.00    +0.054 C 
ATOM      9  C9  UNL     1      19.760   4.414  32.734  0.00  0.00    +0.112 C 
ATOM     10  C10 UNL     1      22.100   2.191  30.501  0.00  0.00    +0.039 C 
ATOM     11  C11 UNL     1      21.170   1.238  29.735  0.00  0.00    +0.003 C 
ATOM     12  C20 UNL     1      20.652   0.168  30.704  0.00  0.00    +0.032 C 
ATOM     13  C21 UNL     1      20.016   0.836  31.924  0.00  0.00    +0.161 C 
ATOM     14  O3  UNL     1      20.932   1.678  32.605  0.00  0.00    -0.373 OA
ATOM     15  H1  UNL     1      21.490   5.512  36.163  0.00  0.00    +0.151 HD
ENDROOT
BRANCH   3  16
ATOM     16  C2  UNL     1      20.947   7.590  36.379  0.00  0.00    +0.075 C 
ATOM     17  C3  UNL     1      19.931   7.516  37.505  0.00  0.00    +0.024 C 
ATOM     18  C4  UNL     1      21.418   7.508  37.820  0.00  0.00    +0.024 C 
ENDBRANCH   3  16
BRANCH  11  19
ATOM     19  C12 UNL     1      21.907   0.612  28.535  0.00  0.00    +0.102 C 
BRANCH  19  20
ATOM     20  C13 UNL     1      21.412   1.171  27.236  0.00  0.00    +0.228 A 
ATOM     21  N3  UNL     1      21.879   2.302  26.674  0.00  0.00    -0.191 NA
ATOM     22  C14 UNL     1      21.145   2.356  25.541  0.00  0.00    +0.204 A 
ATOM     23  N5  UNL     1      20.289   1.320  25.432  0.00  0.00    -0.056 NA
ATOM     24  O2  UNL     1      20.486   0.611  26.500  0.00  0.00    -0.338 OA
BRANCH  22  25
ATOM     25  C15 UNL     1      21.260   3.437  24.538  0.00  0.00    +0.041 A 
ATOM     26  C16 UNL     1      20.529   3.385  23.340  0.00  0.00    +0.014 A 
ATOM     27  C17 UNL     1      20.643   4.416  22.406  0.00  0.00    +0.020 A 
ATOM     28  C18 UNL     1      21.488   5.492  22.673  0.00  0.00    +0.111 A 
ATOM     29  N4  UNL     1      22.191   5.532  23.835  0.00  0.00    -0.263 NA
ATOM     30  C19 UNL     1      22.099   4.540  24.763  0.00  0.00    +0.122 A 
ENDBRANCH  22  25
ENDBRANCH  19  20
ENDBRANCH  11  19
TORSDOF 4
ENDMDL
MODEL 5
REMARK VINA RESULT:    -6.698      6.004     11.027
REMARK INTER + INTRA:          -8.825
REMARK INTER:                  -8.314
REMARK INTRA:                  -0.511
REMARK UNBOUND:                -0.560
REMARK  Name = /home/qwerty/github/datacon2025hack/step_04_hit_selection/docking/ligands/lig_679.pdb
REMARK  4 active torsions:
REMARK  status: ('A' for Active; 'I' for Inactive)
REMARK    1  A    between atoms: N1_3  and  C2_4
REMARK    2  A    between atoms: C11_14  and  C12_15
REMARK    3  A    between atoms: C12_15  and  C13_16
REMARK    4  A    between atoms: C14_18  and  C15_19
REMARK                            x       y       z     vdW  Elec       q    Type
REMARK                         _______ _______ _______ _____ _____    ______ ____
ROOT
ATOM      1  O1  UNL     1      16.171  12.265  34.273  0.00  0.00    -0.253 OA
ATOM      2  C1  UNL     1      16.885  12.478  35.290  0.00  0.00    +0.302 C 
ATOM      3  N1  UNL     1      16.678  13.669  36.063  0.00  0.00    -0.296 N 
ATOM      4  N2  UNL     1      17.894  11.520  35.665  0.00  0.00    -0.285 N 
ATOM      5  C5  UNL     1      19.051  11.928  36.469  0.00  0.00    +0.112 C 
ATOM      6  C6  UNL     1      20.307  11.154  36.046  0.00  0.00    +0.054 C 
ATOM      7  C7  UNL     1      20.073   9.625  36.038  0.00  0.00    +0.073 C 
ATOM      8  C8  UNL     1      18.883   9.345  35.073  0.00  0.00    +0.054 C 
ATOM      9  C9  UNL     1      17.620  10.085  35.517  0.00  0.00    +0.112 C 
ATOM     10  C10 UNL     1      21.376   8.947  35.528  0.00  0.00    +0.039 C 
ATOM     11  C11 UNL     1      21.354   7.424  35.729  0.00  0.00    +0.003 C 
ATOM     12  C20 UNL     1      20.992   7.123  37.190  0.00  0.00    +0.032 C 
ATOM     13  C21 UNL     1      19.691   7.834  37.560  0.00  0.00    +0.161 C 
ATOM     14  O3  UNL     1      19.784   9.238  37.382  0.00  0.00    -0.373 OA
ATOM     15  H1  UNL     1      17.118  13.757  37.005  0.00  0.00    +0.151 HD
ENDROOT
BRANCH   3  16
ATOM     16  C2  UNL     1      15.704  14.677  35.658  0.00  0.00    +0.075 C 
ATOM     17  C3  UNL     1      14.358  14.549  36.348  0.00  0.00    +0.024 C 
ATOM     18  C4  UNL     1      15.333  15.633  36.778  0.00  0.00    +0.024 C 
ENDBRANCH   3  16
BRANCH  11  19
ATOM     19  C12 UNL     1      22.711   6.807  35.339  0.00  0.00    +0.102 C 
BRANCH  19  20
ATOM     20  C13 UNL     1      22.578   5.891  34.162  0.00  0.00    +0.228 A 
ATOM     21  N3  UNL     1      21.974   4.688  34.206  0.00  0.00    -0.191 NA
ATOM     22  C14 UNL     1      22.098   4.282  32.923  0.00  0.00    +0.204 A 
ATOM     23  N5  UNL     1      22.739   5.189  32.157  0.00  0.00    -0.056 NA
ATOM     24  O2  UNL     1      23.019   6.168  32.961  0.00  0.00    -0.338 OA
BRANCH  22  25
ATOM     25  C15 UNL     1      21.598   2.986  32.418  0.00  0.00    +0.041 A 
ATOM     26  C16 UNL     1      20.761   2.183  33.209  0.00  0.00    +0.014 A 
ATOM     27  C17 UNL     1      20.291   0.964  32.717  0.00  0.00    +0.020 A 
ATOM     28  C18 UNL     1      20.663   0.553  31.438  0.00  0.00    +0.111 A 
ATOM     29  N4  UNL     1      21.475   1.338  30.682  0.00  0.00    -0.263 NA
ATOM     30  C19 UNL     1      21.947   2.529  31.137  0.00  0.00    +0.122 A 
ENDBRANCH  22  25
ENDBRANCH  19  20
ENDBRANCH  11  19
TORSDOF 4
ENDMDL
MODEL 6
REMARK VINA RESULT:    -6.694      3.340      4.845
REMARK INTER + INTRA:          -8.819
REMARK INTER:                  -8.327
REMARK INTRA:                  -0.493
REMARK UNBOUND:                -0.560
REMARK  Name = /home/qwerty/github/datacon2025hack/step_04_hit_selection/docking/ligands/lig_679.pdb
REMARK  4 active torsions:
REMARK  status: ('A' for Active; 'I' for Inactive)
REMARK    1  A    between atoms: N1_3  and  C2_4
REMARK    2  A    between atoms: C11_14  and  C12_15
REMARK    3  A    between atoms: C12_15  and  C13_16
REMARK    4  A    between atoms: C14_18  and  C15_19
REMARK                            x       y       z     vdW  Elec       q    Type
REMARK                         _______ _______ _______ _____ _____    ______ ____
ROOT
ATOM      1  O1  UNL     1      15.932   2.667  24.115  0.00  0.00    -0.253 OA
ATOM      2  C1  UNL     1      16.926   2.096  23.588  0.00  0.00    +0.302 C 
ATOM      3  N1  UNL     1      16.819   1.580  22.254  0.00  0.00    -0.296 N 
ATOM      4  N2  UNL     1      18.154   1.977  24.331  0.00  0.00    -0.285 N 
ATOM      5  C5  UNL     1      19.122   0.920  24.013  0.00  0.00    +0.112 C 
ATOM      6  C6  UNL     1      19.806   0.409  25.288  0.00  0.00    +0.054 C 
ATOM      7  C7  UNL     1      20.408   1.561  26.127  0.00  0.00    +0.073 C 
ATOM      8  C8  UNL     1      19.248   2.543  26.463  0.00  0.00    +0.054 C 
ATOM      9  C9  UNL     1      18.591   3.084  25.192  0.00  0.00    +0.112 C 
ATOM     10  C10 UNL     1      21.009   0.942  27.422  0.00  0.00    +0.039 C 
ATOM     11  C11 UNL     1      21.865   1.951  28.202  0.00  0.00    +0.003 C 
ATOM     12  C20 UNL     1      22.889   2.576  27.244  0.00  0.00    +0.032 C 
ATOM     13  C21 UNL     1      22.172   3.157  26.025  0.00  0.00    +0.161 C 
ATOM     14  O3  UNL     1      21.424   2.172  25.331  0.00  0.00    -0.373 OA
ATOM     15  H1  UNL     1      17.681   1.289  21.742  0.00  0.00    +0.151 HD
ENDROOT
BRANCH   3  16
ATOM     16  C2  UNL     1      15.562   1.637  21.516  0.00  0.00    +0.075 C 
ATOM     17  C3  UNL     1      15.674   2.303  20.155  0.00  0.00    +0.024 C 
ATOM     18  C4  UNL     1      15.570   0.789  20.256  0.00  0.00    +0.024 C 
ENDBRANCH   3  16
BRANCH  11  19
ATOM     19  C12 UNL     1      22.550   1.266  29.400  0.00  0.00    +0.102 C 
BRANCH  19  20
ATOM     20  C13 UNL     1      21.917   1.668  30.696  0.00  0.00    +0.228 A 
ATOM     21  N3  UNL     1      20.812   1.093  31.207  0.00  0.00    -0.191 NA
ATOM     22  C14 UNL     1      20.667   1.779  32.362  0.00  0.00    +0.204 A 
ATOM     23  N5  UNL     1      21.628   2.710  32.532  0.00  0.00    -0.056 NA
ATOM     24  O2  UNL     1      22.381   2.608  31.480  0.00  0.00    -0.338 OA
BRANCH  22  25
ATOM     25  C15 UNL     1      19.570   1.544  33.326  0.00  0.00    +0.041 A 
ATOM     26  C16 UNL     1      19.451   2.331  34.482  0.00  0.00    +0.014 A 
ATOM     27  C17 UNL     1      18.406   2.101  35.380  0.00  0.00    +0.020 A 
ATOM     28  C18 UNL     1      17.489   1.084  35.118  0.00  0.00    +0.111 A 
ATOM     29  N4  UNL     1      17.616   0.328  33.997  0.00  0.00    -0.263 NA
ATOM     30  C19 UNL     1      18.624   0.530  33.106  0.00  0.00    +0.122 A 
ENDBRANCH  22  25
ENDBRANCH  19  20
ENDBRANCH  11  19
TORSDOF 4
ENDMDL
MODEL 7
REMARK VINA RESULT:    -6.689     10.768     14.712
REMARK INTER + INTRA:          -8.813
REMARK INTER:                  -8.424
REMARK INTRA:                  -0.389
REMARK UNBOUND:                -0.560
REMARK  Name = /home/qwerty/github/datacon2025hack/step_04_hit_selection/docking/ligands/lig_679.pdb
REMARK  4 active torsions:
REMARK  status: ('A' for Active; 'I' for Inactive)
REMARK    1  A    between atoms: N1_3  and  C2_4
REMARK    2  A    between atoms: C11_14  and  C12_15
REMARK    3  A    between atoms: C12_15  and  C13_16
REMARK    4  A    between atoms: C14_18  and  C15_19
REMARK                            x       y       z     vdW  Elec       q    Type
REMARK                         _______ _______ _______ _____ _____    ______ ____
ROOT
ATOM      1  O1  UNL     1      20.103   9.082  35.110  0.00  0.00    -0.253 OA
ATOM      2  C1  UNL     1      19.728   9.329  36.288  0.00  0.00    +0.302 C 
ATOM      3  N1  UNL     1      20.532   8.887  37.392  0.00  0.00    -0.296 N 
ATOM      4  N2  UNL     1      18.504  10.055  36.509  0.00  0.00    -0.285 N 
ATOM      5  C5  UNL     1      17.772   9.921  37.774  0.00  0.00    +0.112 C 
ATOM      6  C6  UNL     1      16.257   9.986  37.534  0.00  0.00    +0.054 C 
ATOM      7  C7  UNL     1      15.851  11.236  36.718  0.00  0.00    +0.073 C 
ATOM      8  C8  UNL     1      16.635  11.185  35.374  0.00  0.00    +0.054 C 
ATOM      9  C9  UNL     1      18.146  11.160  35.611  0.00  0.00    +0.112 C 
ATOM     10  C10 UNL     1      14.316  11.166  36.473  0.00  0.00    +0.039 C 
ATOM     11  C11 UNL     1      13.760  12.481  35.906  0.00  0.00    +0.003 C 
ATOM     12  C20 UNL     1      14.223  13.639  36.798  0.00  0.00    +0.032 C 
ATOM     13  C21 UNL     1      15.744  13.604  36.948  0.00  0.00    +0.161 C 
ATOM     14  O3  UNL     1      16.193  12.379  37.504  0.00  0.00    -0.373 OA
ATOM     15  H1  UNL     1      20.340   9.254  38.350  0.00  0.00    +0.151 HD
ENDROOT
BRANCH   3  16
ATOM     16  C2  UNL     1      21.740   8.096  37.183  0.00  0.00    +0.075 C 
ATOM     17  C3  UNL     1      21.940   6.992  38.206  0.00  0.00    +0.024 C 
ATOM     18  C4  UNL     1      21.451   6.653  36.808  0.00  0.00    +0.024 C 
ENDBRANCH   3  16
BRANCH  11  19
ATOM     19  C12 UNL     1      12.223  12.418  35.806  0.00  0.00    +0.102 C 
BRANCH  19  20
ATOM     20  C13 UNL     1      11.720  13.182  34.619  0.00  0.00    +0.228 A 
ATOM     21  N3  UNL     1      12.047  12.898  33.344  0.00  0.00    -0.191 NA
ATOM     22  C14 UNL     1      11.340  13.835  32.675  0.00  0.00    +0.204 A 
ATOM     23  N5  UNL     1      10.633  14.633  33.501  0.00  0.00    -0.056 NA
ATOM     24  O2  UNL     1      10.895  14.196  34.694  0.00  0.00    -0.338 OA
BRANCH  22  25
ATOM     25  C15 UNL     1      11.350  13.977  31.203  0.00  0.00    +0.041 A 
ATOM     26  C16 UNL     1      10.269  13.525  30.432  0.00  0.00    +0.014 A 
ATOM     27  C17 UNL     1      10.289  13.671  29.043  0.00  0.00    +0.020 A 
ATOM     28  C18 UNL     1      11.393  14.267  28.434  0.00  0.00    +0.111 A 
ATOM     29  N4  UNL     1      12.435  14.700  29.191  0.00  0.00    -0.263 NA
ATOM     30  C19 UNL     1      12.441  14.569  30.545  0.00  0.00    +0.122 A 
ENDBRANCH  22  25
ENDBRANCH  19  20
ENDBRANCH  11  19
TORSDOF 4
ENDMDL
MODEL 8
REMARK VINA RESULT:    -6.577      7.990     11.257
REMARK INTER + INTRA:          -8.675
REMARK INTER:                  -8.183
REMARK INTRA:                  -0.492
REMARK UNBOUND:                -0.560
REMARK  Name = /home/qwerty/github/datacon2025hack/step_04_hit_selection/docking/ligands/lig_679.pdb
REMARK  4 active torsions:
REMARK  status: ('A' for Active; 'I' for Inactive)
REMARK    1  A    between atoms: N1_3  and  C2_4
REMARK    2  A    between atoms: C11_14  and  C12_15
REMARK    3  A    between atoms: C12_15  and  C13_16
REMARK    4  A    between atoms: C14_18  and  C15_19
REMARK                            x       y       z     vdW  Elec       q    Type
REMARK                         _______ _______ _______ _____ _____    ______ ____
ROOT
ATOM      1  O1  UNL     1      14.542  11.187  33.856  0.00  0.00    -0.253 OA
ATOM      2  C1  UNL     1      14.457  11.056  35.108  0.00  0.00    +0.302 C 
ATOM      3  N1  UNL     1      13.391  11.706  35.814  0.00  0.00    -0.296 N 
ATOM      4  N2  UNL     1      15.426  10.252  35.807  0.00  0.00    -0.285 N 
ATOM      5  C5  UNL     1      15.694  10.475  37.233  0.00  0.00    +0.112 C 
ATOM      6  C6  UNL     1      17.176  10.239  37.550  0.00  0.00    +0.054 C 
ATOM      7  C7  UNL     1      17.669   8.864  37.039  0.00  0.00    +0.073 C 
ATOM      8  C8  UNL     1      17.404   8.819  35.506  0.00  0.00    +0.054 C 
ATOM      9  C9  UNL     1      15.920   9.014  35.191  0.00  0.00    +0.112 C 
ATOM     10  C10 UNL     1      19.190   8.759  37.347  0.00  0.00    +0.039 C 
ATOM     11  C11 UNL     1      19.729   7.337  37.127  0.00  0.00    +0.003 C 
ATOM     12  C20 UNL     1      18.841   6.348  37.893  0.00  0.00    +0.032 C 
ATOM     13  C21 UNL     1      17.379   6.544  37.492  0.00  0.00    +0.161 C 
ATOM     14  O3  UNL     1      16.932   7.866  37.747  0.00  0.00    -0.373 OA
ATOM     15  H1  UNL     1      13.194  11.446  36.806  0.00  0.00    +0.151 HD
ENDROOT
BRANCH   3  16
ATOM     16  C2  UNL     1      12.441  12.574  35.126  0.00  0.00    +0.075 C 
ATOM     17  C3  UNL     1      11.285  13.037  35.994  0.00  0.00    +0.024 C 
ATOM     18  C4  UNL     1      12.423  13.991  35.672  0.00  0.00    +0.024 C 
ENDBRANCH   3  16
BRANCH  11  19
ATOM     19  C12 UNL     1      21.201   7.243  37.571  0.00  0.00    +0.102 C 
BRANCH  19  20
ATOM     20  C13 UNL     1      22.132   7.319  36.399  0.00  0.00    +0.228 A 
ATOM     21  N3  UNL     1      22.073   8.270  35.447  0.00  0.00    -0.191 NA
ATOM     22  C14 UNL     1      23.107   7.916  34.654  0.00  0.00    +0.204 A 
ATOM     23  N5  UNL     1      23.748   6.818  35.105  0.00  0.00    -0.056 NA
ATOM     24  O2  UNL     1      23.114   6.481  36.185  0.00  0.00    -0.338 OA
BRANCH  22  25
ATOM     25  C15 UNL     1      23.488   8.644  33.425  0.00  0.00    +0.041 A 
ATOM     26  C16 UNL     1      24.834   8.749  33.041  0.00  0.00    +0.014 A 
ATOM     27  C17 UNL     1      25.177   9.435  31.874  0.00  0.00    +0.020 A 
ATOM     28  C18 UNL     1      24.173  10.012  31.099  0.00  0.00    +0.111 A 
ATOM     29  N4  UNL     1      22.873   9.905  31.481  0.00  0.00    -0.263 NA
ATOM     30  C19 UNL     1      22.511   9.244  32.613  0.00  0.00    +0.122 A 
ENDBRANCH  22  25
ENDBRANCH  19  20
ENDBRANCH  11  19
TORSDOF 4
ENDMDL
MODEL 9
REMARK VINA RESULT:    -6.458     11.331     13.295
REMARK INTER + INTRA:          -8.528
REMARK INTER:                  -8.023
REMARK INTRA:                  -0.505
REMARK UNBOUND:                -0.560
REMARK  Name = /home/qwerty/github/datacon2025hack/step_04_hit_selection/docking/ligands/lig_679.pdb
REMARK  4 active torsions:
REMARK  status: ('A' for Active; 'I' for Inactive)
REMARK    1  A    between atoms: N1_3  and  C2_4
REMARK    2  A    between atoms: C11_14  and  C12_15
REMARK    3  A    between atoms: C12_15  and  C13_16
REMARK    4  A    between atoms: C14_18  and  C15_19
REMARK                            x       y       z     vdW  Elec       q    Type
REMARK                         _______ _______ _______ _____ _____    ______ ____
ROOT
ATOM      1  O1  UNL     1      11.562  11.923  29.253  0.00  0.00    -0.253 OA
ATOM      2  C1  UNL     1      10.910  12.712  29.991  0.00  0.00    +0.302 C 
ATOM      3  N1  UNL     1       9.817  13.457  29.437  0.00  0.00    -0.296 N 
ATOM      4  N2  UNL     1      11.270  12.847  31.379  0.00  0.00    -0.285 N 
ATOM      5  C5  UNL     1      10.929  14.065  32.125  0.00  0.00    +0.112 C 
ATOM      6  C6  UNL     1      12.030  14.407  33.138  0.00  0.00    +0.054 C 
ATOM      7  C7  UNL     1      12.377  13.205  34.048  0.00  0.00    +0.073 C 
ATOM      8  C8  UNL     1      12.807  12.032  33.120  0.00  0.00    +0.054 C 
ATOM      9  C9  UNL     1      11.695  11.663  32.136  0.00  0.00    +0.112 C 
ATOM     10  C10 UNL     1      13.544  13.637  34.981  0.00  0.00    +0.039 C 
ATOM     11  C11 UNL     1      13.795  12.619  36.105  0.00  0.00    +0.003 C 
ATOM     12  C20 UNL     1      12.466  12.332  36.816  0.00  0.00    +0.032 C 
ATOM     13  C21 UNL     1      11.411  11.907  35.795  0.00  0.00    +0.161 C 
ATOM     14  O3  UNL     1      11.203  12.899  34.802  0.00  0.00    -0.373 OA
ATOM     15  H1  UNL     1       9.154  13.952  30.073  0.00  0.00    +0.151 HD
ENDROOT
BRANCH   3  16
ATOM     16  C2  UNL     1       9.483  13.376  28.019  0.00  0.00    +0.075 C 
ATOM     17  C3  UNL     1       8.402  12.361  27.695  0.00  0.00    +0.024 C 
ATOM     18  C4  UNL     1       8.072  13.845  27.710  0.00  0.00    +0.024 C 
ENDBRANCH   3  16
BRANCH  11  19
ATOM     19  C12 UNL     1      14.862  13.146  37.082  0.00  0.00    +0.102 C 
BRANCH  19  20
ATOM     20  C13 UNL     1      16.187  12.485  36.855  0.00  0.00    +0.228 A 
ATOM     21  N3  UNL     1      16.479  11.227  37.238  0.00  0.00    -0.191 NA
ATOM     22  C14 UNL     1      17.750  11.104  36.797  0.00  0.00    +0.204 A 
ATOM     23  N5  UNL     1      18.193  12.222  36.186  0.00  0.00    -0.056 NA
ATOM     24  O2  UNL     1      17.197  13.051  36.243  0.00  0.00    -0.338 OA
BRANCH  22  25
ATOM     25  C15 UNL     1      18.568   9.885  36.974  0.00  0.00    +0.041 A 
ATOM     26  C16 UNL     1      18.102   8.816  37.756  0.00  0.00    +0.014 A 
ATOM     27  C17 UNL     1      18.882   7.669  37.909  0.00  0.00    +0.020 A 
ATOM     28  C18 UNL     1      20.125   7.597  37.282  0.00  0.00    +0.111 A 
ATOM     29  N4  UNL     1      20.567   8.639  36.528  0.00  0.00    -0.263 NA
ATOM     30  C19 UNL     1      19.827   9.768  36.363  0.00  0.00    +0.122 A 
ENDBRANCH  22  25
ENDBRANCH  19  20
ENDBRANCH  11  19
TORSDOF 4
ENDMDL
