REMARK  Name = /home/qwerty/github/datacon2025hack/step_04_hit_selection/docking/ligands/lig_9.pdb
REMARK  6 active torsions:
REMARK  status: ('A' for Active; 'I' for Inactive)
REMARK    1  A    between atoms: C1_1  and  O1_2
REMARK    2  A    between atoms: O1_2  and  C2_3
REMARK    3  A    between atoms: C5_6  and  C6_7
REMARK    4  A    between atoms: C9_11  and  C10_12
REMARK    5  A    between atoms: N2_14  and  C11_15
REMARK    6  A    between atoms: C14_18  and  N3_19
REMARK                            x       y       z     vdW  Elec       q    Type
REMARK                         _______ _______ _______ _____ _____    ______ ____
ROOT
ATOM      1  C10 UNL     1       0.011  -2.275   1.193  0.00  0.00    +0.251 C 
ATOM      2  O2  UNL     1      -0.851  -2.852   1.910  0.00  0.00    -0.270 OA
ATOM      3  N2  UNL     1      -0.413  -1.410   0.125  0.00  0.00    -0.266 N 
ATOM      4  H8  UNL     1       0.199  -1.331  -0.718  0.00  0.00    +0.157 HD
ENDROOT
BRANCH   1   9
ATOM      5  C6  UNL     1       3.802  -1.933   1.169  0.00  0.00    +0.001 A 
ATOM      6  C7  UNL     1       4.144  -3.070   1.919  0.00  0.00    +0.119 A 
ATOM      7  N1  UNL     1       3.175  -3.891   2.400  0.00  0.00    -0.262 NA
ATOM      8  C8  UNL     1       1.856  -3.654   2.180  0.00  0.00    +0.123 A 
ATOM      9  C9  UNL     1       1.451  -2.540   1.429  0.00  0.00    +0.056 A 
ATOM     10  C20 UNL     1       2.441  -1.675   0.932  0.00  0.00    +0.024 A 
BRANCH   5  14
ATOM     11  C2  UNL     1       6.849   0.706  -0.353  0.00  0.00    +0.120 A 
ATOM     12  C3  UNL     1       5.727   0.386  -1.140  0.00  0.00    +0.046 A 
ATOM     13  C4  UNL     1       4.739  -0.471  -0.645  0.00  0.00    +0.012 A 
ATOM     14  C5  UNL     1       4.852  -1.024   0.643  0.00  0.00    -0.016 A 
ATOM     15  C21 UNL     1       5.975  -0.700   1.425  0.00  0.00    +0.012 A 
ATOM     16  C22 UNL     1       6.962   0.157   0.928  0.00  0.00    +0.046 A 
BRANCH  11  18
ATOM     17  C1  UNL     1       7.880   2.188  -2.082  0.00  0.00    +0.277 C 
ATOM     18  O1  UNL     1       7.866   1.560  -0.804  0.00  0.00    -0.495 OA
ENDBRANCH  11  18
ENDBRANCH   5  14
ENDBRANCH   1   9
BRANCH   3  19
ATOM     19  C11 UNL     1      -1.699  -0.775   0.068  0.00  0.00    +0.125 A 
ATOM     20  C12 UNL     1      -2.393  -0.410   1.234  0.00  0.00    +0.045 A 
ATOM     21  C13 UNL     1      -3.628   0.230   1.127  0.00  0.00    +0.028 A 
ATOM     22  C14 UNL     1      -4.166   0.521  -0.135  0.00  0.00    +0.048 A 
ATOM     23  C19 UNL     1      -3.434   0.153  -1.274  0.00  0.00    +0.136 A 
ATOM     24  N4  UNL     1      -2.232  -0.469  -1.146  0.00  0.00    -0.238 NA
BRANCH  22  25
ATOM     25  N3  UNL     1      -5.443   1.178  -0.253  0.00  0.00    -0.324 N 
ATOM     26  C15 UNL     1      -5.668   2.467   0.409  0.00  0.00    +0.133 C 
ATOM     27  C16 UNL     1      -7.157   2.627   0.733  0.00  0.00    +0.178 C 
ATOM     28  O3  UNL     1      -7.947   2.415  -0.422  0.00  0.00    -0.377 OA
ATOM     29  C17 UNL     1      -7.817   1.073  -0.852  0.00  0.00    +0.178 C 
ATOM     30  C18 UNL     1      -6.383   0.783  -1.306  0.00  0.00    +0.133 C 
ENDBRANCH  22  25
ENDBRANCH   3  19
TORSDOF 5
