REMARK  Name = /home/qwerty/github/datacon2025hack/step_04_hit_selection/docking/ligands/lig_511.pdb
REMARK  5 active torsions:
REMARK  status: ('A' for Active; 'I' for Inactive)
REMARK    1  A    between atoms: C4_4  and  C5_5
REMARK    2  A    between atoms: C4_4  and  C6_6
REMARK    3  A    between atoms: N1_8  and  C7_9
REMARK    4  A    between atoms: C7_9  and  C8_10
REMARK    5  A    between atoms: C11_14  and  C12_16
REMARK                            x       y       z     vdW  Elec       q    Type
REMARK                         _______ _______ _______ _____ _____    ______ ____
ROOT
ATOM      1  C8  UNL     1      -0.040  -2.600   0.292  0.00  0.00    +0.095 C 
ATOM      2  C9  UNL     1      -1.187  -3.330   0.924  0.00  0.00    +0.043 C 
ATOM      3  C10 UNL     1      -0.932  -2.389   2.055  0.00  0.00    +0.110 C 
ATOM      4  N2  UNL     1       0.197  -1.678   1.425  0.00  0.00    -0.292 N 
ATOM      5  C11 UNL     1       1.073  -0.611   1.793  0.00  0.00    +0.267 C 
ATOM      6  O2  UNL     1       0.834   0.049   2.839  0.00  0.00    -0.268 OA
ENDROOT
BRANCH   5   7
ATOM      7  C12 UNL     1       2.245  -0.273   0.972  0.00  0.00    +0.147 A 
ATOM      8  C13 UNL     1       3.034   0.872   1.120  0.00  0.00    +0.057 A 
ATOM      9  C14 UNL     1       3.949   0.741   0.103  0.00  0.00    +0.040 A 
ATOM     10  N3  UNL     1       3.718  -0.366  -0.560  0.00  0.00    -0.268 N 
ATOM     11  N4  UNL     1       2.661  -1.002  -0.092  0.00  0.00    -0.166 NA
ATOM     12  C15 UNL     1       4.354  -0.421  -1.850  0.00  0.00    +0.144 C 
ATOM     13  C16 UNL     1       5.205   0.877  -1.876  0.00  0.00    +0.029 C 
ATOM     14  C17 UNL     1       4.851   1.677  -0.592  0.00  0.00    +0.057 C 
ENDBRANCH   5   7
BRANCH   1  15
ATOM     15  C7  UNL     1      -0.408  -1.862  -1.015  0.00  0.00    +0.126 C 
BRANCH  15  18
ATOM     16  C6  UNL     1      -2.630  -0.606  -0.903  0.00  0.00    +0.220 C 
ATOM     17  O1  UNL     1      -3.243  -1.596  -1.390  0.00  0.00    -0.275 OA
ATOM     18  N1  UNL     1      -1.200  -0.657  -0.759  0.00  0.00    -0.313 N 
ATOM     19  H8  UNL     1      -0.692   0.182  -0.400  0.00  0.00    +0.149 HD
BRANCH  16  23
ATOM     20  C1  UNL     1      -1.864   3.560   0.773  0.00  0.00    +0.007 C 
ATOM     21  C2  UNL     1      -2.452   2.465   0.299  0.00  0.00    -0.075 C 
ATOM     22  C3  UNL     1      -3.029   1.176   0.864  0.00  0.00    +0.046 C 
ATOM     23  C4  UNL     1      -3.412   0.634  -0.492  0.00  0.00    +0.051 C 
ATOM     24  C5  UNL     1      -4.937   0.499  -0.678  0.00  0.00    +0.021 C 
ATOM     25  C18 UNL     1      -2.857   1.916  -1.061  0.00  0.00    +0.046 C 
ENDBRANCH  16  23
ENDBRANCH  15  18
ENDBRANCH   1  15
TORSDOF 4
