REMARK  Name = /home/qwerty/github/datacon2025hack/step_04_hit_selection/docking/ligands/lig_269.pdb
REMARK  5 active torsions:
REMARK  status: ('A' for Active; 'I' for Inactive)
REMARK    1  A    between atoms: C1_2  and  C21_27
REMARK    2  A    between atoms: N1_3  and  C2_4
REMARK    3  A    between atoms: C5_7  and  C6_8
REMARK    4  A    between atoms: C7_10  and  C8_11
REMARK    5  A    between atoms: C12_15  and  C13_16
REMARK                            x       y       z     vdW  Elec       q    Type
REMARK                         _______ _______ _______ _____ _____    ______ ____
ROOT
ATOM      1  C6  UNL     1       0.252  -0.635   0.194  0.00  0.00    +0.259 A 
ATOM      2  N2  UNL     1      -0.574   0.407  -0.030  0.00  0.00    -0.187 NA
ATOM      3  C7  UNL     1      -1.772  -0.121   0.303  0.00  0.00    +0.202 A 
ATOM      4  N4  UNL     1      -1.672  -1.405   0.703  0.00  0.00    -0.056 NA
ATOM      5  O2  UNL     1      -0.407  -1.684   0.622  0.00  0.00    -0.332 OA
ENDROOT
BRANCH   1   9
ATOM      6  C2  UNL     1       4.506  -0.537  -0.398  0.00  0.00    +0.033 A 
ATOM      7  C3  UNL     1       3.875  -1.708   0.047  0.00  0.00    +0.024 A 
ATOM      8  C4  UNL     1       2.491  -1.737   0.244  0.00  0.00    +0.015 A 
ATOM      9  C5  UNL     1       1.712  -0.598  -0.015  0.00  0.00    +0.040 A 
ATOM     10  C19 UNL     1       2.340   0.568  -0.482  0.00  0.00    +0.015 A 
ATOM     11  C20 UNL     1       3.724   0.597  -0.678  0.00  0.00    +0.024 A 
BRANCH   6  14
ATOM     12  O1  UNL     1       6.349   1.585   0.263  0.00  0.00    -0.275 OA
ATOM     13  C1  UNL     1       6.760   0.624  -0.440  0.00  0.00    +0.220 C 
ATOM     14  N1  UNL     1       5.928  -0.540  -0.614  0.00  0.00    -0.285 N 
ATOM     15  H1  UNL     1       6.379  -1.461  -0.806  0.00  0.00    +0.155 HD
BRANCH  13  16
ATOM     16  C21 UNL     1       8.142   0.736  -1.040  0.00  0.00    +0.075 C 
ATOM     17  C22 UNL     1       9.053  -0.466  -0.839  0.00  0.00    +0.013 C 
ATOM     18  C23 UNL     1       8.478  -0.167  -2.218  0.00  0.00    +0.013 C 
ENDBRANCH  13  16
ENDBRANCH   6  14
ENDBRANCH   1   9
BRANCH   3  19
ATOM     19  C8  UNL     1      -3.048   0.625   0.235  0.00  0.00    +0.023 A 
ATOM     20  C9  UNL     1      -3.066   1.963  -0.192  0.00  0.00    +0.012 A 
ATOM     21  C10 UNL     1      -4.270   2.665  -0.259  0.00  0.00    +0.001 A 
ATOM     22  C11 UNL     1      -5.468   2.044   0.099  0.00  0.00    +0.008 A 
ATOM     23  C12 UNL     1      -5.475   0.706   0.531  0.00  0.00    -0.017 A 
ATOM     24  C18 UNL     1      -4.257   0.004   0.595  0.00  0.00    +0.020 A 
BRANCH  23  25
ATOM     25  C13 UNL     1      -6.749   0.045   0.914  0.00  0.00    -0.015 A 
ATOM     26  C14 UNL     1      -7.921   0.260   0.168  0.00  0.00    +0.028 A 
ATOM     27  C15 UNL     1      -9.108  -0.372   0.545  0.00  0.00    +0.111 A 
ATOM     28  N3  UNL     1      -9.130  -1.191   1.629  0.00  0.00    -0.263 NA
ATOM     29  C16 UNL     1      -8.015  -1.420   2.372  0.00  0.00    +0.111 A 
ATOM     30  C17 UNL     1      -6.807  -0.808   2.029  0.00  0.00    +0.028 A 
ENDBRANCH  23  25
ENDBRANCH   3  19
TORSDOF 5
