REMARK  Name = /home/qwerty/github/datacon2025hack/step_04_hit_selection/docking/ligands/lig_654.pdb
REMARK  7 active torsions:
REMARK  status: ('A' for Active; 'I' for Inactive)
REMARK    1  A    between atoms: C1_1  and  C2_2
REMARK    2  A    between atoms: C4_5  and  C5_7
REMARK    3  A    between atoms: C7_9  and  C8_10
REMARK    4  A    between atoms: C12_17  and  N3_18
REMARK    5  A    between atoms: N3_18  and  C13_19
REMARK    6  A    between atoms: C13_19  and  C14_20
REMARK    7  A    between atoms: C14_20  and  C15_21
REMARK                            x       y       z     vdW  Elec       q    Type
REMARK                         _______ _______ _______ _____ _____    ______ ____
ROOT
ATOM      1  C1  UNL     1      -0.601   2.989   1.113  0.00  0.00    +0.010 C 
ATOM      2  C2  UNL     1      -0.826   1.900   0.052  0.00  0.00    +0.020 C 
ATOM      3  C3  UNL     1       0.405   1.783  -0.873  0.00  0.00    +0.113 C 
ATOM      4  N1  UNL     1       1.491   1.065  -0.199  0.00  0.00    -0.297 N 
ATOM      5  C4  UNL     1       2.757   1.707   0.033  0.00  0.00    +0.253 C 
ATOM      6  O1  UNL     1       2.785   2.915   0.393  0.00  0.00    -0.269 OA
ATOM      7  C10 UNL     1       1.196  -0.260   0.353  0.00  0.00    +0.109 C 
ATOM      8  C11 UNL     1       0.029  -0.159   1.337  0.00  0.00    +0.038 C 
ATOM      9  C12 UNL     1      -1.200   0.534   0.713  0.00  0.00    +0.059 C 
ENDROOT
BRANCH   5  10
ATOM     10  C5  UNL     1       4.030   0.989  -0.158  0.00  0.00    +0.075 A 
ATOM     11  C6  UNL     1       4.217  -0.193  -0.865  0.00  0.00    +0.033 A 
ATOM     12  C7  UNL     1       5.557  -0.619  -0.907  0.00  0.00    +0.044 A 
ATOM     13  C9  UNL     1       6.426   0.245  -0.237  0.00  0.00    +0.059 A 
ATOM     14  S1  UNL     1       5.527   1.518   0.392  0.00  0.00    -0.091 S 
BRANCH  12  15
ATOM     15  C8  UNL     1       5.979  -1.853  -1.608  0.00  0.00    +0.242 C 
ATOM     16  N2  UNL     1       7.338  -2.299  -1.598  0.00  0.00    -0.325 N 
ATOM     17  O2  UNL     1       5.121  -2.534  -2.232  0.00  0.00    -0.270 OA
ATOM     18  H8  UNL     1       7.603  -3.168  -2.113  0.00  0.00    +0.145 HD
ATOM     19  H9  UNL     1       8.086  -1.794  -1.076  0.00  0.00    +0.145 HD
ENDBRANCH  12  15
ENDBRANCH   5  10
BRANCH   9  20
ATOM     20  N3  UNL     1      -1.850  -0.390  -0.241  0.00  0.00    -0.313 NA
ATOM     21  H16 UNL     1      -1.423  -0.299  -1.191  0.00  0.00    +0.122 HD
BRANCH  20  22
ATOM     22  C13 UNL     1      -3.301  -0.173  -0.348  0.00  0.00    +0.081 C 
BRANCH  22  23
ATOM     23  C14 UNL     1      -4.039  -1.048   0.668  0.00  0.00    +0.018 C 
BRANCH  23  24
ATOM     24  C15 UNL     1      -5.555  -0.840   0.549  0.00  0.00    -0.010 C 
ATOM     25  C16 UNL     1      -6.273  -1.765  -0.422  0.00  0.00    +0.004 C 
ATOM     26  C17 UNL     1      -6.402  -1.987   1.078  0.00  0.00    +0.004 C 
ENDBRANCH  23  24
ENDBRANCH  22  23
ENDBRANCH  20  22
ENDBRANCH   9  20
TORSDOF 6
