REMARK  Name = /home/qwerty/github/datacon2025hack/step_04_hit_selection/docking/ligands/lig_127.pdb
REMARK  6 active torsions:
REMARK  status: ('A' for Active; 'I' for Inactive)
REMARK    1  A    between atoms: N1_3  and  C2_4
REMARK    2  A    between atoms: C2_4  and  C3_5
REMARK    3  A    between atoms: C2_4  and  C9_12
REMARK    4  A    between atoms: C14_18  and  O2_19
REMARK    5  A    between atoms: C16_21  and  C17_22
REMARK    6  A    between atoms: C17_22  and  O3_23
REMARK                            x       y       z     vdW  Elec       q    Type
REMARK                         _______ _______ _______ _____ _____    ______ ____
ROOT
ATOM      1  O1  UNL     1       0.696   0.510   1.685  0.00  0.00    -0.253 OA
ATOM      2  C1  UNL     1       0.889   0.227   0.471  0.00  0.00    +0.303 C 
ATOM      3  N1  UNL     1      -0.221   0.220  -0.441  0.00  0.00    -0.292 N 
ATOM      4  N2  UNL     1       2.218  -0.087   0.017  0.00  0.00    -0.278 N 
ATOM      5  C13 UNL     1       2.484  -0.803  -1.223  0.00  0.00    +0.141 C 
ATOM      6  C14 UNL     1       3.979  -1.120  -1.215  0.00  0.00    +0.134 C 
ATOM      7  C15 UNL     1       4.425  -0.925   0.238  0.00  0.00    +0.057 C 
ATOM      8  C16 UNL     1       3.402   0.027   0.864  0.00  0.00    +0.105 C 
ATOM      9  H1  UNL     1      -0.047   0.028  -1.452  0.00  0.00    +0.151 HD
ENDROOT
BRANCH   6  10
ATOM     10  O2  UNL     1       4.657  -0.222  -2.056  0.00  0.00    -0.390 OA
ATOM     11  H17 UNL     1       5.569  -0.591  -2.191  0.00  0.00    +0.210 HD
ENDBRANCH   6  10
BRANCH   3  12
ATOM     12  C2  UNL     1      -1.592   0.493   0.004  0.00  0.00    +0.108 C 
BRANCH  12  13
ATOM     13  C3  UNL     1      -2.117  -0.683   0.801  0.00  0.00    -0.027 A 
ATOM     14  C4  UNL     1      -2.051  -1.989   0.281  0.00  0.00    +0.007 A 
ATOM     15  C5  UNL     1      -2.556  -3.068   1.013  0.00  0.00    +0.020 A 
ATOM     16  C6  UNL     1      -3.127  -2.855   2.271  0.00  0.00    +0.041 A 
ATOM     17 CL1  UNL     1      -3.757  -4.210   3.190  0.00  0.00    -0.084 Cl
ATOM     18  C7  UNL     1      -3.193  -1.560   2.799  0.00  0.00    +0.020 A 
ATOM     19  C8  UNL     1      -2.694  -0.478   2.067  0.00  0.00    +0.007 A 
ENDBRANCH  12  13
BRANCH  12  20
ATOM     20  C9  UNL     1      -2.510   0.767  -1.210  0.00  0.00    +0.014 C 
ATOM     21  C10 UNL     1      -2.175   2.061  -1.953  0.00  0.00    +0.006 C 
ATOM     22  C11 UNL     1      -3.537   2.628  -1.580  0.00  0.00    +0.001 C 
ATOM     23  C12 UNL     1      -3.878   1.342  -0.841  0.00  0.00    +0.006 C 
ENDBRANCH  12  20
ENDBRANCH   3  12
BRANCH   8  24
ATOM     24  C17 UNL     1       3.921   1.476   0.877  0.00  0.00    +0.178 C 
BRANCH  24  25
ATOM     25  O3  UNL     1       2.999   2.328   1.503  0.00  0.00    -0.393 OA
ATOM     26  H23 UNL     1       2.394   2.667   0.794  0.00  0.00    +0.209 HD
ENDBRANCH  24  25
ENDBRANCH   8  24
TORSDOF 6
