MODEL 1
REMARK VINA RESULT:    -6.672      0.000      0.000
REMARK INTER + INTRA:          -8.187
REMARK INTER:                  -7.452
REMARK INTRA:                  -0.735
REMARK UNBOUND:                -0.735
REMARK  Name = /home/qwerty/github/datacon2025hack/step_04_hit_selection/docking/ligands/lig_43.pdb
REMARK  4 active torsions:
REMARK  status: ('A' for Active; 'I' for Inactive)
REMARK    1  A    between atoms: C1_1  and  C2_2
REMARK    2  A    between atoms: C6_7  and  C7_8
REMARK    3  A    between atoms: C7_8  and  C8_9
REMARK    4  A    between atoms: C18_23  and  C19_24
REMARK                            x       y       z     vdW  Elec       q    Type
REMARK                         _______ _______ _______ _____ _____    ______ ____
ROOT
ATOM      1  C7  UNL     1      21.989  15.496  18.865  0.00  0.00    +0.134 C 
ENDROOT
BRANCH   1   2
ATOM      2  C8  UNL     1      23.011  16.022  19.827  0.00  0.00    +0.220 C 
ATOM      3  O2  UNL     1      23.915  16.794  19.405  0.00  0.00    -0.275 OA
ATOM      4  N1  UNL     1      23.040  15.566  21.189  0.00  0.00    -0.301 N 
ATOM      5  C9  UNL     1      21.927  15.893  22.088  0.00  0.00    +0.113 C 
ATOM      6  C10 UNL     1      21.722  14.772  23.113  0.00  0.00    +0.084 C 
ATOM      7  C11 UNL     1      23.035  14.410  23.835  0.00  0.00    +0.173 C 
ATOM      8  C12 UNL     1      24.124  14.060  22.803  0.00  0.00    +0.084 C 
ATOM      9  C13 UNL     1      24.324  15.188  21.786  0.00  0.00    +0.113 C 
ATOM     10  O3  UNL     1      22.805  13.277  24.647  0.00  0.00    -0.346 OA
ATOM     11  C14 UNL     1      22.969  13.704  25.960  0.00  0.00    +0.191 C 
ATOM     12  C15 UNL     1      23.679  15.019  25.891  0.00  0.00    +0.191 C 
ATOM     13  O4  UNL     1      23.459  15.514  24.610  0.00  0.00    -0.346 OA
ENDBRANCH   1   2
BRANCH   1  20
ATOM     14  C1  UNL     1      19.218   9.266  19.067  0.00  0.00    +0.044 C 
ATOM     15  C2  UNL     1      19.924  10.592  18.963  0.00  0.00    -0.044 A 
ATOM     16  C3  UNL     1      21.314  10.612  18.702  0.00  0.00    +0.050 A 
ATOM     17  C4  UNL     1      21.954  11.844  18.624  0.00  0.00    +0.135 A 
ATOM     18  O1  UNL     1      23.229  12.073  18.413  0.00  0.00    -0.463 OA
ATOM     19  C5  UNL     1      23.414  13.381  18.438  0.00  0.00    +0.200 A 
ATOM     20  C6  UNL     1      22.204  14.028  18.661  0.00  0.00    +0.007 A 
ATOM     21  C16 UNL     1      21.275  13.018  18.787  0.00  0.00    +0.024 A 
ATOM     22  C17 UNL     1      19.910  13.049  19.050  0.00  0.00    +0.015 A 
ATOM     23  C18 UNL     1      19.219  11.822  19.156  0.00  0.00    -0.047 A 
ATOM     24  C19 UNL     1      17.744  11.838  19.451  0.00  0.00    +0.044 C 
ENDBRANCH   1  20
TORSDOF 2
ENDMDL
MODEL 2
REMARK VINA RESULT:    -6.547      1.937      2.901
REMARK INTER + INTRA:          -8.048
REMARK INTER:                  -7.455
REMARK INTRA:                  -0.593
REMARK UNBOUND:                -0.735
REMARK  Name = /home/qwerty/github/datacon2025hack/step_04_hit_selection/docking/ligands/lig_43.pdb
REMARK  4 active torsions:
REMARK  status: ('A' for Active; 'I' for Inactive)
REMARK    1  A    between atoms: C1_1  and  C2_2
REMARK    2  A    between atoms: C6_7  and  C7_8
REMARK    3  A    between atoms: C7_8  and  C8_9
REMARK    4  A    between atoms: C18_23  and  C19_24
REMARK                            x       y       z     vdW  Elec       q    Type
REMARK                         _______ _______ _______ _____ _____    ______ ____
ROOT
ATOM      1  C7  UNL     1      22.822  16.647  21.779  0.00  0.00    +0.134 C 
ENDROOT
BRANCH   1   2
ATOM      2  C8  UNL     1      23.746  15.669  22.440  0.00  0.00    +0.220 C 
ATOM      3  O2  UNL     1      24.681  15.155  21.768  0.00  0.00    -0.275 OA
ATOM      4  N1  UNL     1      23.505  15.228  23.785  0.00  0.00    -0.301 N 
ATOM      5  C9  UNL     1      23.615  16.183  24.893  0.00  0.00    +0.113 C 
ATOM      6  C10 UNL     1      22.631  15.819  26.011  0.00  0.00    +0.084 C 
ATOM      7  C11 UNL     1      22.764  14.342  26.431  0.00  0.00    +0.173 C 
ATOM      8  C12 UNL     1      22.609  13.428  25.202  0.00  0.00    +0.084 C 
ATOM      9  C13 UNL     1      23.599  13.797  24.092  0.00  0.00    +0.113 C 
ATOM     10  O3  UNL     1      21.734  14.040  27.349  0.00  0.00    -0.346 OA
ATOM     11  C14 UNL     1      22.363  13.757  28.557  0.00  0.00    +0.191 C 
ATOM     12  C15 UNL     1      23.805  13.522  28.237  0.00  0.00    +0.191 C 
ATOM     13  O4  UNL     1      24.038  14.137  27.011  0.00  0.00    -0.346 OA
ENDBRANCH   1   2
BRANCH   1  20
ATOM     14  C1  UNL     1      18.850  11.710  19.252  0.00  0.00    +0.044 C 
ATOM     15  C2  UNL     1      19.723  12.852  19.700  0.00  0.00    -0.044 A 
ATOM     16  C3  UNL     1      20.386  13.635  18.725  0.00  0.00    +0.050 A 
ATOM     17  C4  UNL     1      21.200  14.676  19.156  0.00  0.00    +0.135 A 
ATOM     18  O1  UNL     1      21.910  15.496  18.417  0.00  0.00    -0.463 OA
ATOM     19  C5  UNL     1      22.552  16.317  19.228  0.00  0.00    +0.200 A 
ATOM     20  C6  UNL     1      22.232  16.027  20.549  0.00  0.00    +0.007 A 
ATOM     21  C16 UNL     1      21.365  14.958  20.482  0.00  0.00    +0.024 A 
ATOM     22  C17 UNL     1      20.739  14.215  21.477  0.00  0.00    +0.015 A 
ATOM     23  C18 UNL     1      19.916  13.135  21.089  0.00  0.00    -0.047 A 
ATOM     24  C19 UNL     1      19.239  12.315  22.154  0.00  0.00    +0.044 C 
ENDBRANCH   1  20
TORSDOF 2
ENDMDL
MODEL 3
REMARK VINA RESULT:    -6.140     12.633     14.566
REMARK INTER + INTRA:          -7.593
REMARK INTER:                  -6.592
REMARK INTRA:                  -1.001
REMARK UNBOUND:                -0.735
REMARK  Name = /home/qwerty/github/datacon2025hack/step_04_hit_selection/docking/ligands/lig_43.pdb
REMARK  4 active torsions:
REMARK  status: ('A' for Active; 'I' for Inactive)
REMARK    1  A    between atoms: C1_1  and  C2_2
REMARK    2  A    between atoms: C6_7  and  C7_8
REMARK    3  A    between atoms: C7_8  and  C8_9
REMARK    4  A    between atoms: C18_23  and  C19_24
REMARK                            x       y       z     vdW  Elec       q    Type
REMARK                         _______ _______ _______ _____ _____    ______ ____
ROOT
ATOM      1  C7  UNL     1      12.952  14.875  28.890  0.00  0.00    +0.134 C 
ENDROOT
BRANCH   1   2
ATOM      2  C8  UNL     1      13.851  14.844  30.089  0.00  0.00    +0.220 C 
ATOM      3  O2  UNL     1      15.079  15.088  29.943  0.00  0.00    -0.275 OA
ATOM      4  N1  UNL     1      13.352  14.427  31.370  0.00  0.00    -0.301 N 
ATOM      5  C9  UNL     1      12.348  15.246  32.059  0.00  0.00    +0.113 C 
ATOM      6  C10 UNL     1      11.415  14.359  32.891  0.00  0.00    +0.084 C 
ATOM      7  C11 UNL     1      12.203  13.410  33.815  0.00  0.00    +0.173 C 
ATOM      8  C12 UNL     1      13.206  12.583  32.990  0.00  0.00    +0.084 C 
ATOM      9  C13 UNL     1      14.136  13.478  32.164  0.00  0.00    +0.113 C 
ATOM     10  O3  UNL     1      11.292  12.525  34.434  0.00  0.00    -0.346 OA
ATOM     11  C14 UNL     1      11.332  12.819  35.793  0.00  0.00    +0.191 C 
ATOM     12  C15 UNL     1      12.568  13.631  36.014  0.00  0.00    +0.191 C 
ATOM     13  O4  UNL     1      12.904  14.173  34.777  0.00  0.00    -0.346 OA
ENDBRANCH   1   2
BRANCH   1  20
ATOM     14  C1  UNL     1       7.522  10.762  29.259  0.00  0.00    +0.044 C 
ATOM     15  C2  UNL     1       8.773  11.585  29.108  0.00  0.00    -0.044 A 
ATOM     16  C3  UNL     1       9.972  10.948  28.707  0.00  0.00    +0.050 A 
ATOM     17  C4  UNL     1      11.122  11.720  28.588  0.00  0.00    +0.135 A 
ATOM     18  O1  UNL     1      12.325  11.317  28.253  0.00  0.00    -0.463 OA
ATOM     19  C5  UNL     1      13.126  12.367  28.282  0.00  0.00    +0.200 A 
ATOM     20  C6  UNL     1      12.406  13.503  28.638  0.00  0.00    +0.007 A 
ATOM     21  C16 UNL     1      11.116  13.062  28.840  0.00  0.00    +0.024 A 
ATOM     22  C17 UNL     1       9.966  13.732  29.241  0.00  0.00    +0.015 A 
ATOM     23  C18 UNL     1       8.776  12.987  29.394  0.00  0.00    -0.047 A 
ATOM     24  C19 UNL     1       7.524  13.695  29.837  0.00  0.00    +0.044 C 
ENDBRANCH   1  20
TORSDOF 2
ENDMDL
MODEL 4
REMARK VINA RESULT:    -6.079     13.391     15.771
REMARK INTER + INTRA:          -7.525
REMARK INTER:                  -6.447
REMARK INTRA:                  -1.078
REMARK UNBOUND:                -0.735
REMARK  Name = /home/qwerty/github/datacon2025hack/step_04_hit_selection/docking/ligands/lig_43.pdb
REMARK  4 active torsions:
REMARK  status: ('A' for Active; 'I' for Inactive)
REMARK    1  A    between atoms: C1_1  and  C2_2
REMARK    2  A    between atoms: C6_7  and  C7_8
REMARK    3  A    between atoms: C7_8  and  C8_9
REMARK    4  A    between atoms: C18_23  and  C19_24
REMARK                            x       y       z     vdW  Elec       q    Type
REMARK                         _______ _______ _______ _____ _____    ______ ____
ROOT
ATOM      1  C7  UNL     1      19.185   0.539  32.585  0.00  0.00    +0.134 C 
ENDROOT
BRANCH   1   2
ATOM      2  C8  UNL     1      19.112   1.619  33.621  0.00  0.00    +0.220 C 
ATOM      3  O2  UNL     1      18.212   1.568  34.503  0.00  0.00    -0.275 OA
ATOM      4  N1  UNL     1      19.976   2.765  33.549  0.00  0.00    -0.301 N 
ATOM      5  C9  UNL     1      21.422   2.595  33.730  0.00  0.00    +0.113 C 
ATOM      6  C10 UNL     1      22.190   3.623  32.891  0.00  0.00    +0.084 C 
ATOM      7  C11 UNL     1      21.683   5.057  33.140  0.00  0.00    +0.173 C 
ATOM      8  C12 UNL     1      20.164   5.129  32.898  0.00  0.00    +0.084 C 
ATOM      9  C13 UNL     1      19.405   4.100  33.744  0.00  0.00    +0.113 C 
ATOM     10  O3  UNL     1      22.325   5.926  32.231  0.00  0.00    -0.346 OA
ATOM     11  C14 UNL     1      23.114   6.775  33.000  0.00  0.00    +0.191 C 
ATOM     12  C15 UNL     1      22.630   6.642  34.408  0.00  0.00    +0.191 C 
ATOM     13  O4  UNL     1      21.963   5.423  34.477  0.00  0.00    -0.346 OA
ENDBRANCH   1   2
BRANCH   1  20
ATOM     14  C1  UNL     1      22.612   2.416  26.993  0.00  0.00    +0.044 C 
ATOM     15  C2  UNL     1      21.753   2.017  28.164  0.00  0.00    -0.044 A 
ATOM     16  C3  UNL     1      20.387   2.387  28.173  0.00  0.00    +0.050 A 
ATOM     17  C4  UNL     1      19.612   2.025  29.268  0.00  0.00    +0.135 A 
ATOM     18  O1  UNL     1      18.343   2.290  29.474  0.00  0.00    -0.463 OA
ATOM     19  C5  UNL     1      18.009   1.782  30.647  0.00  0.00    +0.200 A 
ATOM     20  C6  UNL     1      19.106   1.148  31.219  0.00  0.00    +0.007 A 
ATOM     21  C16 UNL     1      20.133   1.324  30.318  0.00  0.00    +0.024 A 
ATOM     22  C17 UNL     1      21.470   0.942  30.358  0.00  0.00    +0.015 A 
ATOM     23  C18 UNL     1      22.302   1.303  29.275  0.00  0.00    -0.047 A 
ATOM     24  C19 UNL     1      23.753   0.906  29.308  0.00  0.00    +0.044 C 
ENDBRANCH   1  20
TORSDOF 2
ENDMDL
MODEL 5
REMARK VINA RESULT:    -6.077     12.164     14.326
REMARK INTER + INTRA:          -7.523
REMARK INTER:                  -7.143
REMARK INTRA:                  -0.380
REMARK UNBOUND:                -0.735
REMARK  Name = /home/qwerty/github/datacon2025hack/step_04_hit_selection/docking/ligands/lig_43.pdb
REMARK  4 active torsions:
REMARK  status: ('A' for Active; 'I' for Inactive)
REMARK    1  A    between atoms: C1_1  and  C2_2
REMARK    2  A    between atoms: C6_7  and  C7_8
REMARK    3  A    between atoms: C7_8  and  C8_9
REMARK    4  A    between atoms: C18_23  and  C19_24
REMARK                            x       y       z     vdW  Elec       q    Type
REMARK                         _______ _______ _______ _____ _____    ______ ____
ROOT
ATOM      1  C7  UNL     1      12.091   4.919  19.787  0.00  0.00    +0.134 C 
ENDROOT
BRANCH   1   2
ATOM      2  C8  UNL     1      13.103   4.757  20.881  0.00  0.00    +0.220 C 
ATOM      3  O2  UNL     1      13.344   5.731  21.646  0.00  0.00    -0.275 OA
ATOM      4  N1  UNL     1      13.878   3.552  20.992  0.00  0.00    -0.301 N 
ATOM      5  C9  UNL     1      13.211   2.289  21.329  0.00  0.00    +0.113 C 
ATOM      6  C10 UNL     1      13.931   1.112  20.661  0.00  0.00    +0.084 C 
ATOM      7  C11 UNL     1      15.444   1.128  20.950  0.00  0.00    +0.173 C 
ATOM      8  C12 UNL     1      16.046   2.484  20.538  0.00  0.00    +0.084 C 
ATOM      9  C13 UNL     1      15.323   3.654  21.213  0.00  0.00    +0.113 C 
ATOM     10  O3  UNL     1      16.060   0.112  20.186  0.00  0.00    -0.346 OA
ATOM     11  C14 UNL     1      16.561  -0.809  21.100  0.00  0.00    +0.191 C 
ATOM     12  C15 UNL     1      16.568  -0.123  22.429  0.00  0.00    +0.191 C 
ATOM     13  O4  UNL     1      15.655   0.922  22.333  0.00  0.00    -0.346 OA
ENDBRANCH   1   2
BRANCH   1  20
ATOM     14  C1  UNL     1       8.328  10.391  21.344  0.00  0.00    +0.044 C 
ATOM     15  C2  UNL     1       9.059   9.116  21.020  0.00  0.00    -0.044 A 
ATOM     16  C3  UNL     1       8.521   7.883  21.459  0.00  0.00    +0.050 A 
ATOM     17  C4  UNL     1       9.216   6.716  21.165  0.00  0.00    +0.135 A 
ATOM     18  O1  UNL     1       8.897   5.487  21.499  0.00  0.00    -0.463 OA
ATOM     19  C5  UNL     1       9.841   4.685  21.039  0.00  0.00    +0.200 A 
ATOM     20  C6  UNL     1      10.806   5.425  20.365  0.00  0.00    +0.007 A 
ATOM     21  C16 UNL     1      10.389   6.735  20.465  0.00  0.00    +0.024 A 
ATOM     22  C17 UNL     1      10.961   7.921  20.017  0.00  0.00    +0.015 A 
ATOM     23  C18 UNL     1      10.300   9.135  20.307  0.00  0.00    -0.047 A 
ATOM     24  C19 UNL     1      10.911  10.428  19.838  0.00  0.00    +0.044 C 
ENDBRANCH   1  20
TORSDOF 2
ENDMDL
MODEL 6
REMARK VINA RESULT:    -6.065     11.407     14.340
REMARK INTER + INTRA:          -7.510
REMARK INTER:                  -6.432
REMARK INTRA:                  -1.078
REMARK UNBOUND:                -0.735
REMARK  Name = /home/qwerty/github/datacon2025hack/step_04_hit_selection/docking/ligands/lig_43.pdb
REMARK  4 active torsions:
REMARK  status: ('A' for Active; 'I' for Inactive)
REMARK    1  A    between atoms: C1_1  and  C2_2
REMARK    2  A    between atoms: C6_7  and  C7_8
REMARK    3  A    between atoms: C7_8  and  C8_9
REMARK    4  A    between atoms: C18_23  and  C19_24
REMARK                            x       y       z     vdW  Elec       q    Type
REMARK                         _______ _______ _______ _____ _____    ______ ____
ROOT
ATOM      1  C7  UNL     1      22.238   3.686  25.332  0.00  0.00    +0.134 C 
ENDROOT
BRANCH   1   2
ATOM      2  C8  UNL     1      21.064   3.607  24.404  0.00  0.00    +0.220 C 
ATOM      3  O2  UNL     1      20.956   4.453  23.474  0.00  0.00    -0.275 OA
ATOM      4  N1  UNL     1      20.009   2.659  24.634  0.00  0.00    -0.301 N 
ATOM      5  C9  UNL     1      20.286   1.223  24.515  0.00  0.00    +0.113 C 
ATOM      6  C10 UNL     1      19.409   0.428  25.490  0.00  0.00    +0.084 C 
ATOM      7  C11 UNL     1      17.920   0.801  25.354  0.00  0.00    +0.173 C 
ATOM      8  C12 UNL     1      17.740   2.322  25.520  0.00  0.00    +0.084 C 
ATOM      9  C13 UNL     1      18.617   3.107  24.539  0.00  0.00    +0.113 C 
ATOM     10  O3  UNL     1      17.197   0.149  26.377  0.00  0.00    -0.346 OA
ATOM     11  C14 UNL     1      16.353  -0.753  25.739  0.00  0.00    +0.191 C 
ATOM     12  C15 UNL     1      16.312  -0.347  24.299  0.00  0.00    +0.191 C 
ATOM     13  O4  UNL     1      17.458   0.411  24.076  0.00  0.00    -0.346 OA
ENDBRANCH   1   2
BRANCH   1  20
ATOM     14  C1  UNL     1      21.004   0.706  31.343  0.00  0.00    +0.044 C 
ATOM     15  C2  UNL     1      21.263   1.471  30.073  0.00  0.00    -0.044 A 
ATOM     16  C3  UNL     1      20.845   2.820  29.984  0.00  0.00    +0.050 A 
ATOM     17  C4  UNL     1      21.077   3.507  28.798  0.00  0.00    +0.135 A 
ATOM     18  O1  UNL     1      20.750   4.746  28.513  0.00  0.00    -0.463 OA
ATOM     19  C5  UNL     1      21.136   4.991  27.274  0.00  0.00    +0.200 A 
ATOM     20  C6  UNL     1      21.754   3.866  26.738  0.00  0.00    +0.007 A 
ATOM     21  C16 UNL     1      21.698   2.916  27.735  0.00  0.00    +0.024 A 
ATOM     22  C17 UNL     1      22.122   1.593  27.771  0.00  0.00    +0.015 A 
ATOM     23  C18 UNL     1      21.892   0.848  28.949  0.00  0.00    -0.047 A 
ATOM     24  C19 UNL     1      22.336  -0.590  29.001  0.00  0.00    +0.044 C 
ENDBRANCH   1  20
TORSDOF 2
ENDMDL
MODEL 7
REMARK VINA RESULT:    -6.055     12.011     14.249
REMARK INTER + INTRA:          -7.498
REMARK INTER:                  -6.928
REMARK INTRA:                  -0.570
REMARK UNBOUND:                -0.735
REMARK  Name = /home/qwerty/github/datacon2025hack/step_04_hit_selection/docking/ligands/lig_43.pdb
REMARK  4 active torsions:
REMARK  status: ('A' for Active; 'I' for Inactive)
REMARK    1  A    between atoms: C1_1  and  C2_2
REMARK    2  A    between atoms: C6_7  and  C7_8
REMARK    3  A    between atoms: C7_8  and  C8_9
REMARK    4  A    between atoms: C18_23  and  C19_24
REMARK                            x       y       z     vdW  Elec       q    Type
REMARK                         _______ _______ _______ _____ _____    ______ ____
ROOT
ATOM      1  C7  UNL     1       8.629   8.262  25.596  0.00  0.00    +0.134 C 
ENDROOT
BRANCH   1   2
ATOM      2  C8  UNL     1       8.264   8.950  26.877  0.00  0.00    +0.220 C 
ATOM      3  O2  UNL     1       7.277   8.531  27.541  0.00  0.00    -0.275 OA
ATOM      4  N1  UNL     1       8.949  10.142  27.291  0.00  0.00    -0.301 N 
ATOM      5  C9  UNL     1      10.370  10.074  27.653  0.00  0.00    +0.113 C 
ATOM      6  C10 UNL     1      11.075  11.387  27.294  0.00  0.00    +0.084 C 
ATOM      7  C11 UNL     1      10.332  12.610  27.867  0.00  0.00    +0.173 C 
ATOM      8  C12 UNL     1       8.862  12.597  27.407  0.00  0.00    +0.084 C 
ATOM      9  C13 UNL     1       8.165  11.283  27.772  0.00  0.00    +0.113 C 
ATOM     10  O3  UNL     1      10.947  13.782  27.374  0.00  0.00    -0.346 OA
ATOM     11  C14 UNL     1      11.497  14.424  28.479  0.00  0.00    +0.191 C 
ATOM     12  C15 UNL     1      10.862  13.806  29.685  0.00  0.00    +0.191 C 
ATOM     13  O4  UNL     1      10.382  12.565  29.279  0.00  0.00    -0.346 OA
ENDBRANCH   1   2
BRANCH   1  20
ATOM     14  C1  UNL     1      10.427  10.688  19.480  0.00  0.00    +0.044 C 
ATOM     15  C2  UNL     1       9.918  10.194  20.808  0.00  0.00    -0.044 A 
ATOM     16  C3  UNL     1       8.724  10.742  21.334  0.00  0.00    +0.050 A 
ATOM     17  C4  UNL     1       8.276  10.287  22.569  0.00  0.00    +0.135 A 
ATOM     18  O1  UNL     1       7.213  10.681  23.230  0.00  0.00    -0.463 OA
ATOM     19  C5  UNL     1       7.171  10.008  24.366  0.00  0.00    +0.200 A 
ATOM     20  C6  UNL     1       8.246   9.129  24.437  0.00  0.00    +0.007 A 
ATOM     21  C16 UNL     1       8.953   9.331  23.271  0.00  0.00    +0.024 A 
ATOM     22  C17 UNL     1      10.132   8.766  22.798  0.00  0.00    +0.015 A 
ATOM     23  C18 UNL     1      10.637   9.209  21.556  0.00  0.00    -0.047 A 
ATOM     24  C19 UNL     1      11.918   8.615  21.036  0.00  0.00    +0.044 C 
ENDBRANCH   1  20
TORSDOF 2
ENDMDL
MODEL 8
REMARK VINA RESULT:    -5.993     11.982     14.241
REMARK INTER + INTRA:          -7.429
REMARK INTER:                  -7.057
REMARK INTRA:                  -0.372
REMARK UNBOUND:                -0.735
REMARK  Name = /home/qwerty/github/datacon2025hack/step_04_hit_selection/docking/ligands/lig_43.pdb
REMARK  4 active torsions:
REMARK  status: ('A' for Active; 'I' for Inactive)
REMARK    1  A    between atoms: C1_1  and  C2_2
REMARK    2  A    between atoms: C6_7  and  C7_8
REMARK    3  A    between atoms: C7_8  and  C8_9
REMARK    4  A    between atoms: C18_23  and  C19_24
REMARK                            x       y       z     vdW  Elec       q    Type
REMARK                         _______ _______ _______ _____ _____    ______ ____
ROOT
ATOM      1  C7  UNL     1      22.898   2.104  28.102  0.00  0.00    +0.134 C 
ENDROOT
BRANCH   1   2
ATOM      2  C8  UNL     1      22.652   1.183  29.259  0.00  0.00    +0.220 C 
ATOM      3  O2  UNL     1      23.254   0.076  29.303  0.00  0.00    -0.275 OA
ATOM      4  N1  UNL     1      21.658   1.496  30.247  0.00  0.00    -0.301 N 
ATOM      5  C9  UNL     1      21.847   2.657  31.125  0.00  0.00    +0.113 C 
ATOM      6  C10 UNL     1      20.493   3.276  31.490  0.00  0.00    +0.084 C 
ATOM      7  C11 UNL     1      19.511   2.221  32.036  0.00  0.00    +0.173 C 
ATOM      8  C12 UNL     1      19.367   1.063  31.031  0.00  0.00    +0.084 C 
ATOM      9  C13 UNL     1      20.725   0.450  30.674  0.00  0.00    +0.113 C 
ATOM     10  O3  UNL     1      18.247   2.827  32.208  0.00  0.00    -0.346 OA
ATOM     11  C14 UNL     1      17.995   2.815  33.576  0.00  0.00    +0.191 C 
ATOM     12  C15 UNL     1      18.961   1.841  34.174  0.00  0.00    +0.191 C 
ATOM     13  O4  UNL     1      20.004   1.718  33.263  0.00  0.00    -0.346 OA
ENDBRANCH   1   2
BRANCH   1  20
ATOM     14  C1  UNL     1      19.951   4.361  22.379  0.00  0.00    +0.044 C 
ATOM     15  C2  UNL     1      20.551   3.754  23.619  0.00  0.00    -0.044 A 
ATOM     16  C3  UNL     1      20.000   2.559  24.137  0.00  0.00    +0.050 A 
ATOM     17  C4  UNL     1      20.556   2.020  25.291  0.00  0.00    +0.135 A 
ATOM     18  O1  UNL     1      20.178   0.940  25.934  0.00  0.00    -0.463 OA
ATOM     19  C5  UNL     1      20.962   0.802  26.989  0.00  0.00    +0.200 A 
ATOM     20  C6  UNL     1      21.898   1.829  27.022  0.00  0.00    +0.007 A 
ATOM     21  C16 UNL     1      21.614   2.610  25.923  0.00  0.00    +0.024 A 
ATOM     22  C17 UNL     1      22.187   3.788  25.456  0.00  0.00    +0.015 A 
ATOM     23  C18 UNL     1      21.644   4.383  24.295  0.00  0.00    -0.047 A 
ATOM     24  C19 UNL     1      22.247   5.663  23.783  0.00  0.00    +0.044 C 
ENDBRANCH   1  20
TORSDOF 2
ENDMDL
MODEL 9
REMARK VINA RESULT:    -5.895     13.279     16.431
REMARK INTER + INTRA:          -7.319
REMARK INTER:                  -6.250
REMARK INTRA:                  -1.069
REMARK UNBOUND:                -0.735
REMARK  Name = /home/qwerty/github/datacon2025hack/step_04_hit_selection/docking/ligands/lig_43.pdb
REMARK  4 active torsions:
REMARK  status: ('A' for Active; 'I' for Inactive)
REMARK    1  A    between atoms: C1_1  and  C2_2
REMARK    2  A    between atoms: C6_7  and  C7_8
REMARK    3  A    between atoms: C7_8  and  C8_9
REMARK    4  A    between atoms: C18_23  and  C19_24
REMARK                            x       y       z     vdW  Elec       q    Type
REMARK                         _______ _______ _______ _____ _____    ______ ____
ROOT
ATOM      1  C7  UNL     1       7.344   9.123  29.940  0.00  0.00    +0.134 C 
ENDROOT
BRANCH   1   2
ATOM      2  C8  UNL     1       7.423   7.947  29.014  0.00  0.00    +0.220 C 
ATOM      3  O2  UNL     1       7.104   6.804  29.441  0.00  0.00    -0.275 OA
ATOM      4  N1  UNL     1       7.966   8.089  27.691  0.00  0.00    -0.301 N 
ATOM      5  C9  UNL     1       7.258   8.908  26.701  0.00  0.00    +0.113 C 
ATOM      6  C10 UNL     1       8.257   9.570  25.744  0.00  0.00    +0.084 C 
ATOM      7  C11 UNL     1       9.234   8.544  25.138  0.00  0.00    +0.173 C 
ATOM      8  C12 UNL     1       9.939   7.760  26.261  0.00  0.00    +0.084 C 
ATOM      9  C13 UNL     1       8.933   7.099  27.210  0.00  0.00    +0.113 C 
ATOM     10  O3  UNL     1      10.212   9.239  24.393  0.00  0.00    -0.346 OA
ATOM     11  C14 UNL     1      10.027   8.862  23.067  0.00  0.00    +0.191 C 
ATOM     12  C15 UNL     1       9.170   7.636  23.092  0.00  0.00    +0.191 C 
ATOM     13  O4  UNL     1       8.514   7.644  24.318  0.00  0.00    -0.346 OA
ENDBRANCH   1   2
BRANCH   1  20
ATOM     14  C1  UNL     1      10.984  14.503  27.859  0.00  0.00    +0.044 C 
ATOM     15  C2  UNL     1      10.270  13.292  28.397  0.00  0.00    -0.044 A 
ATOM     16  C3  UNL     1      11.008  12.318  29.110  0.00  0.00    +0.050 A 
ATOM     17  C4  UNL     1      10.337  11.198  29.587  0.00  0.00    +0.135 A 
ATOM     18  O1  UNL     1      10.842  10.182  30.245  0.00  0.00    -0.463 OA
ATOM     19  C5  UNL     1       9.862   9.329  30.487  0.00  0.00    +0.200 A 
ATOM     20  C6  UNL     1       8.667   9.822  29.975  0.00  0.00    +0.007 A 
ATOM     21  C16 UNL     1       8.997  11.025  29.389  0.00  0.00    +0.024 A 
ATOM     22  C17 UNL     1       8.229  11.952  28.692  0.00  0.00    +0.015 A 
ATOM     23  C18 UNL     1       8.871  13.098  28.173  0.00  0.00    -0.047 A 
ATOM     24  C19 UNL     1       8.055  14.105  27.407  0.00  0.00    +0.044 C 
ENDBRANCH   1  20
TORSDOF 2
ENDMDL
