REMARK  Name = /home/qwerty/github/datacon2025hack/step_04_hit_selection/docking/ligands/lig_130.pdb
REMARK  9 active torsions:
REMARK  status: ('A' for Active; 'I' for Inactive)
REMARK    1  A    between atoms: C2_2  and  C3_3
REMARK    2  A    between atoms: C3_3  and  C4_4
REMARK    3  A    between atoms: C3_3  and  C5_5
REMARK    4  A    between atoms: C3_3  and  C6_6
REMARK    5  A    between atoms: C6_6  and  C7_7
REMARK    6  A    between atoms: N1_9  and  C8_10
REMARK    7  A    between atoms: C10_13  and  C11_15
REMARK    8  A    between atoms: C15_22  and  C16_23
REMARK    9  A    between atoms: C15_22  and  C17_24
REMARK                            x       y       z     vdW  Elec       q    Type
REMARK                         _______ _______ _______ _____ _____    ______ ____
ROOT
ATOM      1  C8  UNL     1       0.419   0.200  -0.321  0.00  0.00    +0.097 C 
ATOM      2  C9  UNL     1       1.135  -1.148  -0.247  0.00  0.00    +0.131 C 
ATOM      3  N2  UNL     1       2.542  -0.822  -0.078  0.00  0.00    -0.294 N 
ATOM      4  C10 UNL     1       3.570  -1.833  -0.077  0.00  0.00    +0.270 C 
ATOM      5  O2  UNL     1       3.234  -3.048  -0.063  0.00  0.00    -0.268 OA
ATOM      6  C14 UNL     1       2.759   0.596   0.176  0.00  0.00    +0.116 C 
ATOM      7  C15 UNL     1       1.357   1.194   0.413  0.00  0.00    +0.001 C 
ATOM      8  C16 UNL     1       1.252   2.612  -0.180  0.00  0.00    +0.014 C 
ATOM      9  C17 UNL     1       1.069   1.252   1.933  0.00  0.00    +0.014 C 
ENDROOT
BRANCH   4  10
ATOM     10  C11 UNL     1       5.011  -1.499  -0.101  0.00  0.00    +0.182 A 
ATOM     11  N3  UNL     1       5.519  -0.265  -0.292  0.00  0.00    -0.166 NA
ATOM     12  N4  UNL     1       6.840  -0.361  -0.275  0.00  0.00    -0.281 N 
ATOM     13  C12 UNL     1       7.201  -1.642  -0.081  0.00  0.00    +0.144 A 
ATOM     14  C13 UNL     1       6.056  -2.394   0.031  0.00  0.00    +0.173 A 
ATOM     15  F1  UNL     1       5.980  -3.733   0.228  0.00  0.00    -0.201 F 
ATOM     16  H16 UNL     1       7.489   0.447  -0.398  0.00  0.00    +0.188 HD
ENDBRANCH   4  10
BRANCH   1  19
ATOM     17  C7  UNL     1      -2.014   0.938  -0.221  0.00  0.00    +0.214 C 
ATOM     18  O1  UNL     1      -1.857   1.693  -1.219  0.00  0.00    -0.276 OA
ATOM     19  N1  UNL     1      -0.928   0.132   0.259  0.00  0.00    -0.310 N 
ATOM     20  H12 UNL     1      -1.087  -0.455   1.109  0.00  0.00    +0.149 HD
BRANCH  17  21
ATOM     21  C6  UNL     1      -3.359   0.873   0.451  0.00  0.00    +0.106 C 
BRANCH  21  22
ATOM     22  C3  UNL     1      -4.318  -0.189  -0.164  0.00  0.00    -0.009 C 
ATOM     23  C4  UNL     1      -3.688  -1.597  -0.073  0.00  0.00    +0.016 C 
ATOM     24  C5  UNL     1      -4.618   0.126  -1.647  0.00  0.00    +0.016 C 
BRANCH  22  26
ATOM     25  C1  UNL     1      -6.438   0.858   0.709  0.00  0.00    +0.004 C 
ATOM     26  C2  UNL     1      -5.622  -0.201   0.626  0.00  0.00    -0.028 C 
ENDBRANCH  22  26
ENDBRANCH  21  22
ENDBRANCH  17  21
ENDBRANCH   1  19
TORSDOF 5
