REMARK  Name = /home/qwerty/github/datacon2025hack/step_04_hit_selection/docking/ligands/lig_383.pdb
REMARK  4 active torsions:
REMARK  status: ('A' for Active; 'I' for Inactive)
REMARK    1  A    between atoms: C1_2  and  O2_3
REMARK    2  A    between atoms: C1_2  and  C2_4
REMARK    3  A    between atoms: C10_14  and  C11_16
REMARK    4  A    between atoms: C14_19  and  N2_20
REMARK                            x       y       z     vdW  Elec       q    Type
REMARK                         _______ _______ _______ _____ _____    ______ ____
ROOT
ATOM      1  C2  UNL     1      -6.389  -0.734  -0.008  0.00  0.00    +0.062 A 
ATOM      2  C3  UNL     1      -5.843  -1.268  -1.186  0.00  0.00    +0.015 A 
ATOM      3  C4  UNL     1      -4.634  -0.784  -1.689  0.00  0.00    +0.009 A 
ATOM      4  C5  UNL     1      -3.934   0.231  -1.015  0.00  0.00    +0.012 A 
ATOM      5  C6  UNL     1      -4.466   0.756   0.182  0.00  0.00    +0.126 A 
ATOM      6  C7  UNL     1      -5.694   0.286   0.663  0.00  0.00    +0.061 A 
ATOM      7  O3  UNL     1      -3.814   1.758   0.911  0.00  0.00    -0.490 OA
ATOM      8  C8  UNL     1      -2.481   1.623   1.400  0.00  0.00    +0.248 C 
ATOM      9  C9  UNL     1      -1.454   1.838   0.294  0.00  0.00    +0.149 C 
ATOM     10  N1  UNL     1      -1.566   0.782  -0.716  0.00  0.00    -0.290 N 
ATOM     11  C10 UNL     1      -0.782  -0.422  -0.601  0.00  0.00    +0.248 C 
ATOM     12  O4  UNL     1      -1.355  -1.544  -0.663  0.00  0.00    -0.270 OA
ATOM     13  C20 UNL     1      -2.697   0.818  -1.645  0.00  0.00    +0.147 C 
ENDROOT
BRANCH  11  14
ATOM     14  C11 UNL     1       0.689  -0.367  -0.433  0.00  0.00    +0.055 A 
ATOM     15  C12 UNL     1       1.379  -1.426   0.173  0.00  0.00    +0.018 A 
ATOM     16  C13 UNL     1       2.768  -1.376   0.312  0.00  0.00    +0.044 A 
ATOM     17  C14 UNL     1       3.480  -0.262  -0.176  0.00  0.00    +0.121 A 
ATOM     18  N3  UNL     1       2.780   0.748  -0.770  0.00  0.00    -0.240 NA
ATOM     19  C19 UNL     1       1.429   0.723  -0.910  0.00  0.00    +0.126 A 
BRANCH  17  20
ATOM     20  N2  UNL     1       4.923  -0.161  -0.061  0.00  0.00    -0.311 N 
ATOM     21  C15 UNL     1       5.551   1.141  -0.362  0.00  0.00    +0.134 C 
ATOM     22  C16 UNL     1       7.077   1.057  -0.440  0.00  0.00    +0.178 C 
ATOM     23  O5  UNL     1       7.590   0.255   0.600  0.00  0.00    -0.377 OA
ATOM     24  C17 UNL     1       7.214  -1.082   0.365  0.00  0.00    +0.178 C 
ATOM     25  C18 UNL     1       5.703  -1.265   0.531  0.00  0.00    +0.134 C 
ENDBRANCH  17  20
ENDBRANCH  11  14
BRANCH   1  27
ATOM     26  O1  UNL     1      -8.301  -2.151  -0.078  0.00  0.00    -0.245 OA
ATOM     27  C1  UNL     1      -7.677  -1.235   0.522  0.00  0.00    +0.337 C 
BRANCH  27  28
ATOM     28  O2  UNL     1      -8.212  -0.700   1.692  0.00  0.00    -0.477 OA
ATOM     29  H1  UNL     1      -9.094  -1.033   2.060  0.00  0.00    +0.295 HD
ENDBRANCH  27  28
ENDBRANCH   1  27
TORSDOF 4
