REMARK  Name = /home/qwerty/github/datacon2025hack/step_04_hit_selection/docking/ligands/lig_234.pdb
REMARK  8 active torsions:
REMARK  status: ('A' for Active; 'I' for Inactive)
REMARK    1  A    between atoms: C1_1  and  C2_2
REMARK    2  A    between atoms: C2_2  and  C3_3
REMARK    3  A    between atoms: C2_2  and  O1_4
REMARK    4  A    between atoms: O1_4  and  C4_5
REMARK    5  A    between atoms: C7_8  and  N1_9
REMARK    6  A    between atoms: C8_10  and  C9_12
REMARK    7  A    between atoms: C12_17  and  C13_18
REMARK    8  A    between atoms: C15_20  and  C16_21
REMARK                            x       y       z     vdW  Elec       q    Type
REMARK                         _______ _______ _______ _____ _____    ______ ____
ROOT
ATOM      1  N1  UNL     1       1.099   0.143  -0.953  0.00  0.00    -0.276 N 
ATOM      2  C8  UNL     1      -0.067   0.661  -0.291  0.00  0.00    +0.303 C 
ATOM      3  O2  UNL     1       0.048   1.267   0.809  0.00  0.00    -0.265 OA
ATOM      4  H10 UNL     1       1.040  -0.057  -1.977  0.00  0.00    +0.155 HD
ENDROOT
BRANCH   2   5
ATOM      5  C9  UNL     1      -1.397   0.549  -0.927  0.00  0.00    +0.302 C 
ATOM      6  O3  UNL     1      -1.468   0.231  -2.144  0.00  0.00    -0.265 OA
ATOM      7  N2  UNL     1      -2.610   0.834  -0.198  0.00  0.00    -0.294 N 
ATOM      8  C10 UNL     1      -3.661   1.621  -0.847  0.00  0.00    +0.108 C 
ATOM      9  C11 UNL     1      -4.619   0.707  -1.612  0.00  0.00    +0.022 C 
ATOM     10  C12 UNL     1      -5.526  -0.126  -0.684  0.00  0.00    -0.012 C 
ATOM     11  C13 UNL     1      -6.468  -0.984  -1.542  0.00  0.00    +0.007 C 
ATOM     12  C14 UNL     1      -4.724  -1.038   0.284  0.00  0.00    +0.008 C 
ATOM     13  C15 UNL     1      -4.079  -0.330   1.506  0.00  0.00    +0.004 C 
ATOM     14  C16 UNL     1      -5.072   0.532   2.305  0.00  0.00    +0.009 C 
ATOM     15  C17 UNL     1      -2.755   0.425   1.207  0.00  0.00    +0.111 C 
ENDBRANCH   2   5
BRANCH   1  19
ATOM     16  C4  UNL     1       4.869  -0.412   0.901  0.00  0.00    +0.215 A 
ATOM     17  C5  UNL     1       4.797  -0.086  -0.465  0.00  0.00    +0.069 A 
ATOM     18  C6  UNL     1       3.550   0.097  -1.066  0.00  0.00    +0.030 A 
ATOM     19  C7  UNL     1       2.377  -0.025  -0.314  0.00  0.00    +0.052 A 
ATOM     20  C18 UNL     1       2.487  -0.372   1.041  0.00  0.00    +0.138 A 
ATOM     21  N3  UNL     1       3.711  -0.549   1.603  0.00  0.00    -0.219 NA
BRANCH  16  22
ATOM     22  O1  UNL     1       6.075  -0.613   1.598  0.00  0.00    -0.474 OA
BRANCH  22  24
ATOM     23  C1  UNL     1       7.811   0.880   0.673  0.00  0.00    +0.051 C 
ATOM     24  C2  UNL     1       7.427  -0.534   1.124  0.00  0.00    +0.169 C 
ATOM     25  C3  UNL     1       7.748  -1.614   0.084  0.00  0.00    +0.051 C 
ENDBRANCH  22  24
ENDBRANCH  16  22
ENDBRANCH   1  19
TORSDOF 4
