MODEL 1
REMARK VINA RESULT:    -6.522      0.000      0.000
REMARK INTER + INTRA:          -8.063
REMARK INTER:                  -7.666
REMARK INTRA:                  -0.397
REMARK UNBOUND:                -0.397
REMARK  Name = /home/qwerty/github/datacon2025hack/step_04_hit_selection/docking/ligands/lig_430.pdb
REMARK  4 active torsions:
REMARK  status: ('A' for Active; 'I' for Inactive)
REMARK    1  A    between atoms: C1_1  and  C2_2
REMARK    2  A    between atoms: C5_5  and  N1_6
REMARK    3  A    between atoms: N2_9  and  C7_10
REMARK    4  A    between atoms: C11_14  and  C12_15
REMARK                            x       y       z     vdW  Elec       q    Type
REMARK                         _______ _______ _______ _____ _____    ______ ____
ROOT
ATOM      1  N1  UNL     1      10.061   4.929  19.984  0.00  0.00    -0.296 N 
ATOM      2  C6  UNL     1      11.379   4.554  20.407  0.00  0.00    +0.304 C 
ATOM      3  O1  UNL     1      11.693   4.623  21.628  0.00  0.00    -0.253 OA
ATOM      4  N2  UNL     1      12.320   4.062  19.442  0.00  0.00    -0.269 N 
ATOM      5  H10 UNL     1       9.855   4.918  18.960  0.00  0.00    +0.151 HD
ATOM      6  H11 UNL     1      11.945   3.751  18.517  0.00  0.00    +0.156 HD
ENDROOT
BRANCH   1  11
ATOM      7  C1  UNL     1       5.396   6.134  20.389  0.00  0.00    +0.007 C 
ATOM      8  C2  UNL     1       6.705   5.949  21.163  0.00  0.00    -0.012 C 
ATOM      9  C3  UNL     1       7.504   7.252  21.296  0.00  0.00    +0.005 C 
ATOM     10  C4  UNL     1       8.972   6.896  21.053  0.00  0.00    +0.022 C 
ATOM     11  C5  UNL     1       9.035   5.372  20.934  0.00  0.00    +0.075 C 
ATOM     12  C16 UNL     1       7.642   4.956  20.484  0.00  0.00    +0.025 C 
ENDBRANCH   1  11
BRANCH   4  13
ATOM     13  C7  UNL     1      13.718   3.854  19.708  0.00  0.00    +0.035 A 
ATOM     14  C8  UNL     1      14.654   4.892  19.563  0.00  0.00    +0.023 A 
ATOM     15  C9  UNL     1      16.008   4.657  19.805  0.00  0.00    +0.002 A 
ATOM     16  C10 UNL     1      16.446   3.386  20.182  0.00  0.00    +0.010 A 
ATOM     17  C11 UNL     1      15.531   2.327  20.310  0.00  0.00    +0.009 A 
ATOM     18  C15 UNL     1      14.167   2.571  20.062  0.00  0.00    +0.034 A 
BRANCH  17  19
ATOM     19  C12 UNL     1      16.006   0.978  20.698  0.00  0.00    +0.108 A 
ATOM     20  N3  UNL     1      16.352   0.023  19.805  0.00  0.00    -0.247 NA
ATOM     21  C13 UNL     1      16.756  -1.128  20.409  0.00  0.00    +0.119 A 
ATOM     22  C14 UNL     1      16.737  -1.105  21.796  0.00  0.00    +0.067 A 
ATOM     23  S1  UNL     1      16.195   0.412  22.275  0.00  0.00    -0.076 S 
ENDBRANCH  17  19
ENDBRANCH   4  13
TORSDOF 3
ENDMDL
MODEL 2
REMARK VINA RESULT:    -6.087      1.867      2.426
REMARK INTER + INTRA:          -7.552
REMARK INTER:                  -7.151
REMARK INTRA:                  -0.401
REMARK UNBOUND:                -0.397
REMARK  Name = /home/qwerty/github/datacon2025hack/step_04_hit_selection/docking/ligands/lig_430.pdb
REMARK  4 active torsions:
REMARK  status: ('A' for Active; 'I' for Inactive)
REMARK    1  A    between atoms: C1_1  and  C2_2
REMARK    2  A    between atoms: C5_5  and  N1_6
REMARK    3  A    between atoms: N2_9  and  C7_10
REMARK    4  A    between atoms: C11_14  and  C12_15
REMARK                            x       y       z     vdW  Elec       q    Type
REMARK                         _______ _______ _______ _____ _____    ______ ____
ROOT
ATOM      1  N1  UNL     1      10.505   3.635  20.668  0.00  0.00    -0.296 N 
ATOM      2  C6  UNL     1      11.792   3.211  21.137  0.00  0.00    +0.304 C 
ATOM      3  O1  UNL     1      12.371   3.851  22.058  0.00  0.00    -0.253 OA
ATOM      4  N2  UNL     1      12.394   2.031  20.583  0.00  0.00    -0.269 N 
ATOM      5  H10 UNL     1      10.083   3.119  19.864  0.00  0.00    +0.151 HD
ATOM      6  H11 UNL     1      11.776   1.380  20.047  0.00  0.00    +0.156 HD
ENDROOT
BRANCH   1  11
ATOM      7  C1  UNL     1       6.356   6.116  20.583  0.00  0.00    +0.007 C 
ATOM      8  C2  UNL     1       7.738   6.025  21.237  0.00  0.00    -0.012 C 
ATOM      9  C3  UNL     1       8.784   6.903  20.539  0.00  0.00    +0.005 C 
ATOM     10  C4  UNL     1      10.069   6.078  20.458  0.00  0.00    +0.022 C 
ATOM     11  C5  UNL     1       9.809   4.791  21.244  0.00  0.00    +0.075 C 
ATOM     12  C16 UNL     1       8.299   4.607  21.207  0.00  0.00    +0.025 C 
ENDBRANCH   1  11
BRANCH   4  13
ATOM     13  C7  UNL     1      13.753   1.628  20.822  0.00  0.00    +0.035 A 
ATOM     14  C8  UNL     1      14.821   2.182  20.094  0.00  0.00    +0.023 A 
ATOM     15  C9  UNL     1      16.128   1.757  20.330  0.00  0.00    +0.002 A 
ATOM     16  C10 UNL     1      16.388   0.769  21.283  0.00  0.00    +0.010 A 
ATOM     17  C11 UNL     1      15.334   0.185  22.006  0.00  0.00    +0.009 A 
ATOM     18  C15 UNL     1      14.017   0.618  21.761  0.00  0.00    +0.034 A 
BRANCH  17  19
ATOM     19  C12 UNL     1      15.616  -0.872  23.006  0.00  0.00    +0.108 A 
ATOM     20  N3  UNL     1      16.697  -1.682  22.952  0.00  0.00    -0.247 NA
ATOM     21  C13 UNL     1      16.732  -2.568  23.984  0.00  0.00    +0.119 A 
ATOM     22  C14 UNL     1      15.674  -2.476  24.877  0.00  0.00    +0.067 A 
ATOM     23  S1  UNL     1      14.666  -1.239  24.350  0.00  0.00    -0.076 S 
ENDBRANCH  17  19
ENDBRANCH   4  13
TORSDOF 3
ENDMDL
MODEL 3
REMARK VINA RESULT:    -6.025      3.375      8.815
REMARK INTER + INTRA:          -7.479
REMARK INTER:                  -7.108
REMARK INTRA:                  -0.371
REMARK UNBOUND:                -0.397
REMARK  Name = /home/qwerty/github/datacon2025hack/step_04_hit_selection/docking/ligands/lig_430.pdb
REMARK  4 active torsions:
REMARK  status: ('A' for Active; 'I' for Inactive)
REMARK    1  A    between atoms: C1_1  and  C2_2
REMARK    2  A    between atoms: C5_5  and  N1_6
REMARK    3  A    between atoms: N2_9  and  C7_10
REMARK    4  A    between atoms: C11_14  and  C12_15
REMARK                            x       y       z     vdW  Elec       q    Type
REMARK                         _______ _______ _______ _____ _____    ______ ____
ROOT
ATOM      1  N1  UNL     1      12.941   1.798  20.612  0.00  0.00    -0.296 N 
ATOM      2  C6  UNL     1      12.189   2.891  21.156  0.00  0.00    +0.304 C 
ATOM      3  O1  UNL     1      12.701   3.629  22.042  0.00  0.00    -0.253 OA
ATOM      4  N2  UNL     1      10.871   3.162  20.656  0.00  0.00    -0.269 N 
ATOM      5  H10 UNL     1      12.465   1.170  19.925  0.00  0.00    +0.151 HD
ATOM      6  H11 UNL     1      10.600   2.725  19.747  0.00  0.00    +0.156 HD
ENDROOT
BRANCH   1  11
ATOM      7  C1  UNL     1      16.815  -0.933  19.656  0.00  0.00    +0.007 C 
ATOM      8  C2  UNL     1      16.270   0.182  20.553  0.00  0.00    -0.012 C 
ATOM      9  C3  UNL     1      15.676  -0.349  21.865  0.00  0.00    +0.005 C 
ATOM     10  C4  UNL     1      14.385   0.433  22.112  0.00  0.00    +0.022 C 
ATOM     11  C5  UNL     1      14.318   1.514  21.032  0.00  0.00    +0.075 C 
ATOM     12  C16 UNL     1      15.151   0.970  19.880  0.00  0.00    +0.025 C 
ENDBRANCH   1  11
BRANCH   4  13
ATOM     13  C7  UNL     1       9.953   4.090  21.260  0.00  0.00    +0.035 A 
ATOM     14  C8  UNL     1       8.928   3.653  22.117  0.00  0.00    +0.023 A 
ATOM     15  C9  UNL     1       8.036   4.572  22.671  0.00  0.00    +0.002 A 
ATOM     16  C10 UNL     1       8.146   5.931  22.370  0.00  0.00    +0.010 A 
ATOM     17  C11 UNL     1       9.148   6.387  21.497  0.00  0.00    +0.009 A 
ATOM     18  C15 UNL     1      10.043   5.454  20.940  0.00  0.00    +0.034 A 
BRANCH  17  19
ATOM     19  C12 UNL     1       9.250   7.829  21.171  0.00  0.00    +0.108 A 
ATOM     20  N3  UNL     1      10.206   8.349  20.369  0.00  0.00    -0.247 NA
ATOM     21  C13 UNL     1      10.085   9.696  20.225  0.00  0.00    +0.119 A 
ATOM     22  C14 UNL     1       9.025  10.270  20.913  0.00  0.00    +0.067 A 
ATOM     23  S1  UNL     1       8.218   9.042  21.727  0.00  0.00    -0.076 S 
ENDBRANCH  17  19
ENDBRANCH   4  13
TORSDOF 3
ENDMDL
MODEL 4
REMARK VINA RESULT:    -6.021     17.856     18.454
REMARK INTER + INTRA:          -7.474
REMARK INTER:                  -7.080
REMARK INTRA:                  -0.394
REMARK UNBOUND:                -0.397
REMARK  Name = /home/qwerty/github/datacon2025hack/step_04_hit_selection/docking/ligands/lig_430.pdb
REMARK  4 active torsions:
REMARK  status: ('A' for Active; 'I' for Inactive)
REMARK    1  A    between atoms: C1_1  and  C2_2
REMARK    2  A    between atoms: C5_5  and  N1_6
REMARK    3  A    between atoms: N2_9  and  C7_10
REMARK    4  A    between atoms: C11_14  and  C12_15
REMARK                            x       y       z     vdW  Elec       q    Type
REMARK                         _______ _______ _______ _____ _____    ______ ____
ROOT
ATOM      1  N1  UNL     1      17.407  12.638  36.835  0.00  0.00    -0.296 N 
ATOM      2  C6  UNL     1      17.959  11.358  36.497  0.00  0.00    +0.304 C 
ATOM      3  O1  UNL     1      17.398  10.640  35.624  0.00  0.00    -0.253 OA
ATOM      4  N2  UNL     1      19.174  10.922  37.125  0.00  0.00    -0.269 N 
ATOM      5  H10 UNL     1      17.862  13.179  37.605  0.00  0.00    +0.151 HD
ATOM      6  H11 UNL     1      19.752  11.645  37.612  0.00  0.00    +0.156 HD
ENDROOT
BRANCH   1  11
ATOM      7  C1  UNL     1      14.598  16.553  36.433  0.00  0.00    +0.007 C 
ATOM      8  C2  UNL     1      14.811  15.118  35.940  0.00  0.00    -0.012 C 
ATOM      9  C3  UNL     1      14.009  14.088  36.747  0.00  0.00    +0.005 C 
ATOM     10  C4  UNL     1      14.934  12.893  36.978  0.00  0.00    +0.022 C 
ATOM     11  C5  UNL     1      16.208  13.168  36.176  0.00  0.00    +0.075 C 
ATOM     12  C16 UNL     1      16.269  14.683  36.043  0.00  0.00    +0.025 C 
ENDBRANCH   1  11
BRANCH   4  13
ATOM     13  C7  UNL     1      19.705   9.590  37.022  0.00  0.00    +0.035 A 
ATOM     14  C8  UNL     1      19.192   8.535  37.796  0.00  0.00    +0.023 A 
ATOM     15  C9  UNL     1      19.741   7.256  37.693  0.00  0.00    +0.002 A 
ATOM     16  C10 UNL     1      20.811   7.016  36.829  0.00  0.00    +0.010 A 
ATOM     17  C11 UNL     1      21.355   8.061  36.063  0.00  0.00    +0.009 A 
ATOM     18  C15 UNL     1      20.797   9.349  36.173  0.00  0.00    +0.034 A 
BRANCH  17  19
ATOM     19  C12 UNL     1      22.499   7.800  35.158  0.00  0.00    +0.108 A 
ATOM     20  N3  UNL     1      22.813   8.587  34.105  0.00  0.00    -0.247 NA
ATOM     21  C13 UNL     1      23.906   8.138  33.430  0.00  0.00    +0.119 A 
ATOM     22  C14 UNL     1      24.480   6.983  33.940  0.00  0.00    +0.067 A 
ATOM     23  S1  UNL     1      23.582   6.514  35.281  0.00  0.00    -0.076 S 
ENDBRANCH  17  19
ENDBRANCH   4  13
TORSDOF 3
ENDMDL
MODEL 5
REMARK VINA RESULT:    -5.927      2.395      4.040
REMARK INTER + INTRA:          -7.363
REMARK INTER:                  -7.062
REMARK INTRA:                  -0.302
REMARK UNBOUND:                -0.397
REMARK  Name = /home/qwerty/github/datacon2025hack/step_04_hit_selection/docking/ligands/lig_430.pdb
REMARK  4 active torsions:
REMARK  status: ('A' for Active; 'I' for Inactive)
REMARK    1  A    between atoms: C1_1  and  C2_2
REMARK    2  A    between atoms: C5_5  and  N1_6
REMARK    3  A    between atoms: N2_9  and  C7_10
REMARK    4  A    between atoms: C11_14  and  C12_15
REMARK                            x       y       z     vdW  Elec       q    Type
REMARK                         _______ _______ _______ _____ _____    ______ ____
ROOT
ATOM      1  N1  UNL     1      10.040   4.678  20.091  0.00  0.00    -0.296 N 
ATOM      2  C6  UNL     1      11.413   4.525  20.476  0.00  0.00    +0.304 C 
ATOM      3  O1  UNL     1      11.814   4.984  21.581  0.00  0.00    -0.253 OA
ATOM      4  N2  UNL     1      12.315   3.811  19.616  0.00  0.00    -0.269 N 
ATOM      5  H10 UNL     1       9.757   4.340  19.144  0.00  0.00    +0.151 HD
ATOM      6  H11 UNL     1      11.896   3.211  18.870  0.00  0.00    +0.156 HD
ENDROOT
BRANCH   1  11
ATOM      7  C1  UNL     1       5.443   6.154  20.341  0.00  0.00    +0.007 C 
ATOM      8  C2  UNL     1       6.761   6.053  21.114  0.00  0.00    -0.012 C 
ATOM      9  C3  UNL     1       7.618   7.320  20.993  0.00  0.00    +0.005 C 
ATOM     10  C4  UNL     1       9.063   6.857  20.796  0.00  0.00    +0.022 C 
ATOM     11  C5  UNL     1       9.057   5.335  20.959  0.00  0.00    +0.075 C 
ATOM     12  C16 UNL     1       7.637   4.909  20.616  0.00  0.00    +0.025 C 
ENDBRANCH   1  11
BRANCH   4  13
ATOM     13  C7  UNL     1      13.741   3.772  19.793  0.00  0.00    +0.035 A 
ATOM     14  C8  UNL     1      14.400   2.590  20.173  0.00  0.00    +0.023 A 
ATOM     15  C9  UNL     1      15.782   2.585  20.361  0.00  0.00    +0.002 A 
ATOM     16  C10 UNL     1      16.522   3.757  20.186  0.00  0.00    +0.010 A 
ATOM     17  C11 UNL     1      15.881   4.956  19.829  0.00  0.00    +0.009 A 
ATOM     18  C15 UNL     1      14.485   4.953  19.643  0.00  0.00    +0.034 A 
BRANCH  17  19
ATOM     19  C12 UNL     1      16.671   6.198  19.658  0.00  0.00    +0.108 A 
ATOM     20  N3  UNL     1      16.608   7.246  20.509  0.00  0.00    -0.247 NA
ATOM     21  C13 UNL     1      17.428   8.266  20.137  0.00  0.00    +0.119 A 
ATOM     22  C14 UNL     1      18.159   8.042  18.979  0.00  0.00    +0.067 A 
ATOM     23  S1  UNL     1      17.758   6.513  18.409  0.00  0.00    -0.076 S 
ENDBRANCH  17  19
ENDBRANCH   4  13
TORSDOF 3
ENDMDL
MODEL 6
REMARK VINA RESULT:    -5.806     17.815     18.120
REMARK INTER + INTRA:          -7.222
REMARK INTER:                  -6.818
REMARK INTRA:                  -0.404
REMARK UNBOUND:                -0.397
REMARK  Name = /home/qwerty/github/datacon2025hack/step_04_hit_selection/docking/ligands/lig_430.pdb
REMARK  4 active torsions:
REMARK  status: ('A' for Active; 'I' for Inactive)
REMARK    1  A    between atoms: C1_1  and  C2_2
REMARK    2  A    between atoms: C5_5  and  N1_6
REMARK    3  A    between atoms: N2_9  and  C7_10
REMARK    4  A    between atoms: C11_14  and  C12_15
REMARK                            x       y       z     vdW  Elec       q    Type
REMARK                         _______ _______ _______ _____ _____    ______ ____
ROOT
ATOM      1  N1  UNL     1      14.353  12.111  37.160  0.00  0.00    -0.296 N 
ATOM      2  C6  UNL     1      15.572  11.942  36.424  0.00  0.00    +0.304 C 
ATOM      3  O1  UNL     1      15.537  11.542  35.228  0.00  0.00    -0.253 OA
ATOM      4  N2  UNL     1      16.825  12.272  37.043  0.00  0.00    -0.269 N 
ATOM      5  H10 UNL     1      14.423  12.384  38.166  0.00  0.00    +0.151 HD
ATOM      6  H11 UNL     1      16.796  12.859  37.908  0.00  0.00    +0.156 HD
ENDROOT
BRANCH   1  11
ATOM      7  C1  UNL     1      10.136  14.180  36.014  0.00  0.00    +0.007 C 
ATOM      8  C2  UNL     1      10.940  12.877  35.954  0.00  0.00    -0.012 C 
ATOM      9  C3  UNL     1      10.661  11.952  37.145  0.00  0.00    +0.005 C 
ATOM     10  C4  UNL     1      12.010  11.384  37.587  0.00  0.00    +0.022 C 
ATOM     11  C5  UNL     1      13.039  11.858  36.558  0.00  0.00    +0.075 C 
ATOM     12  C16 UNL     1      12.444  13.126  35.965  0.00  0.00    +0.025 C 
ENDBRANCH   1  11
BRANCH   4  13
ATOM     13  C7  UNL     1      18.111  11.953  36.485  0.00  0.00    +0.035 A 
ATOM     14  C8  UNL     1      18.776  12.841  35.622  0.00  0.00    +0.023 A 
ATOM     15  C9  UNL     1      20.013  12.498  35.076  0.00  0.00    +0.002 A 
ATOM     16  C10 UNL     1      20.596  11.264  35.372  0.00  0.00    +0.010 A 
ATOM     17  C11 UNL     1      19.938  10.350  36.213  0.00  0.00    +0.009 A 
ATOM     18  C15 UNL     1      18.690  10.704  36.759  0.00  0.00    +0.034 A 
BRANCH  17  19
ATOM     19  C12 UNL     1      20.557   9.037  36.511  0.00  0.00    +0.108 A 
ATOM     20  N3  UNL     1      20.080   8.180  37.441  0.00  0.00    -0.247 NA
ATOM     21  C13 UNL     1      20.821   7.043  37.527  0.00  0.00    +0.119 A 
ATOM     22  C14 UNL     1      21.905   6.979  36.662  0.00  0.00    +0.067 A 
ATOM     23  S1  UNL     1      21.927   8.398  35.764  0.00  0.00    -0.076 S 
ENDBRANCH  17  19
ENDBRANCH   4  13
TORSDOF 3
ENDMDL
MODEL 7
REMARK VINA RESULT:    -5.751      3.580      9.059
REMARK INTER + INTRA:          -7.157
REMARK INTER:                  -6.780
REMARK INTRA:                  -0.377
REMARK UNBOUND:                -0.397
REMARK  Name = /home/qwerty/github/datacon2025hack/step_04_hit_selection/docking/ligands/lig_430.pdb
REMARK  4 active torsions:
REMARK  status: ('A' for Active; 'I' for Inactive)
REMARK    1  A    between atoms: C1_1  and  C2_2
REMARK    2  A    between atoms: C5_5  and  N1_6
REMARK    3  A    between atoms: N2_9  and  C7_10
REMARK    4  A    between atoms: C11_14  and  C12_15
REMARK                            x       y       z     vdW  Elec       q    Type
REMARK                         _______ _______ _______ _____ _____    ______ ____
ROOT
ATOM      1  N1  UNL     1      13.108   0.670  21.250  0.00  0.00    -0.296 N 
ATOM      2  C6  UNL     1      12.323   1.643  21.952  0.00  0.00    +0.304 C 
ATOM      3  O1  UNL     1      12.892   2.543  22.629  0.00  0.00    -0.253 OA
ATOM      4  N2  UNL     1      10.892   1.609  21.844  0.00  0.00    -0.269 N 
ATOM      5  H10 UNL     1      12.605  -0.097  20.750  0.00  0.00    +0.151 HD
ATOM      6  H11 UNL     1      10.480   1.047  21.065  0.00  0.00    +0.156 HD
ENDROOT
BRANCH   1  11
ATOM      7  C1  UNL     1      17.053  -1.139  19.118  0.00  0.00    +0.007 C 
ATOM      8  C2  UNL     1      16.554  -0.173  20.197  0.00  0.00    -0.012 C 
ATOM      9  C3  UNL     1      16.472  -0.825  21.584  0.00  0.00    +0.005 C 
ATOM     10  C4  UNL     1      15.165  -0.346  22.218  0.00  0.00    +0.022 C 
ATOM     11  C5  UNL     1      14.576   0.695  21.265  0.00  0.00    +0.075 C 
ATOM     12  C16 UNL     1      15.153   0.350  19.900  0.00  0.00    +0.025 C 
ENDBRANCH   1  11
BRANCH   4  13
ATOM     13  C7  UNL     1      10.001   2.394  22.655  0.00  0.00    +0.035 A 
ATOM     14  C8  UNL     1       9.416   1.868  23.819  0.00  0.00    +0.023 A 
ATOM     15  C9  UNL     1       8.537   2.642  24.577  0.00  0.00    +0.002 A 
ATOM     16  C10 UNL     1       8.221   3.943  24.178  0.00  0.00    +0.010 A 
ATOM     17  C11 UNL     1       8.776   4.482  23.005  0.00  0.00    +0.009 A 
ATOM     18  C15 UNL     1       9.661   3.693  22.245  0.00  0.00    +0.034 A 
BRANCH  17  19
ATOM     19  C12 UNL     1       8.426   5.858  22.581  0.00  0.00    +0.108 A 
ATOM     20  N3  UNL     1       8.838   6.968  23.234  0.00  0.00    -0.247 NA
ATOM     21  C13 UNL     1       8.385   8.110  22.650  0.00  0.00    +0.119 A 
ATOM     22  C14 UNL     1       7.604   7.925  21.518  0.00  0.00    +0.067 A 
ATOM     23  S1  UNL     1       7.481   6.271  21.248  0.00  0.00    -0.076 S 
ENDBRANCH  17  19
ENDBRANCH   4  13
TORSDOF 3
ENDMDL
MODEL 8
REMARK VINA RESULT:    -5.648     13.217     15.328
REMARK INTER + INTRA:          -7.036
REMARK INTER:                  -6.659
REMARK INTRA:                  -0.377
REMARK UNBOUND:                -0.397
REMARK  Name = /home/qwerty/github/datacon2025hack/step_04_hit_selection/docking/ligands/lig_430.pdb
REMARK  4 active torsions:
REMARK  status: ('A' for Active; 'I' for Inactive)
REMARK    1  A    between atoms: C1_1  and  C2_2
REMARK    2  A    between atoms: C5_5  and  N1_6
REMARK    3  A    between atoms: N2_9  and  C7_10
REMARK    4  A    between atoms: C11_14  and  C12_15
REMARK                            x       y       z     vdW  Elec       q    Type
REMARK                         _______ _______ _______ _____ _____    ______ ____
ROOT
ATOM      1  N1  UNL     1      21.060   6.009  33.234  0.00  0.00    -0.296 N 
ATOM      2  C6  UNL     1      21.652   5.312  32.130  0.00  0.00    +0.304 C 
ATOM      3  O1  UNL     1      22.872   5.485  31.856  0.00  0.00    -0.253 OA
ATOM      4  N2  UNL     1      20.860   4.388  31.369  0.00  0.00    -0.269 N 
ATOM      5  H10 UNL     1      20.035   5.890  33.396  0.00  0.00    +0.151 HD
ATOM      6  H11 UNL     1      19.962   4.060  31.792  0.00  0.00    +0.156 HD
ENDROOT
BRANCH   1  11
ATOM      7  C1  UNL     1      22.121   7.052  37.835  0.00  0.00    +0.007 C 
ATOM      8  C2  UNL     1      22.401   7.431  36.378  0.00  0.00    -0.012 C 
ATOM      9  C3  UNL     1      21.493   8.561  35.874  0.00  0.00    +0.005 C 
ATOM     10  C4  UNL     1      21.059   8.178  34.457  0.00  0.00    +0.022 C 
ATOM     11  C5  UNL     1      21.837   6.913  34.092  0.00  0.00    +0.075 C 
ATOM     12  C16 UNL     1      22.176   6.262  35.424  0.00  0.00    +0.025 C 
ENDBRANCH   1  11
BRANCH   4  13
ATOM     13  C7  UNL     1      21.280   3.793  30.130  0.00  0.00    +0.035 A 
ATOM     14  C8  UNL     1      20.925   4.354  28.891  0.00  0.00    +0.023 A 
ATOM     15  C9  UNL     1      21.326   3.744  27.702  0.00  0.00    +0.002 A 
ATOM     16  C10 UNL     1      22.072   2.564  27.732  0.00  0.00    +0.010 A 
ATOM     17  C11 UNL     1      22.418   1.972  28.959  0.00  0.00    +0.009 A 
ATOM     18  C15 UNL     1      22.008   2.593  30.154  0.00  0.00    +0.034 A 
BRANCH  17  19
ATOM     19  C12 UNL     1      23.198   0.713  28.982  0.00  0.00    +0.108 A 
ATOM     20  N3  UNL     1      24.533   0.665  29.189  0.00  0.00    -0.247 NA
ATOM     21  C13 UNL     1      25.016  -0.607  29.165  0.00  0.00    +0.119 A 
ATOM     22  C14 UNL     1      24.067  -1.594  28.938  0.00  0.00    +0.067 A 
ATOM     23  S1  UNL     1      22.576  -0.839  28.762  0.00  0.00    -0.076 S 
ENDBRANCH  17  19
ENDBRANCH   4  13
TORSDOF 3
ENDMDL
MODEL 9
REMARK VINA RESULT:    -5.585     17.560     19.643
REMARK INTER + INTRA:          -6.962
REMARK INTER:                  -7.126
REMARK INTRA:                   0.164
REMARK UNBOUND:                -0.397
REMARK  Name = /home/qwerty/github/datacon2025hack/step_04_hit_selection/docking/ligands/lig_430.pdb
REMARK  4 active torsions:
REMARK  status: ('A' for Active; 'I' for Inactive)
REMARK    1  A    between atoms: C1_1  and  C2_2
REMARK    2  A    between atoms: C5_5  and  N1_6
REMARK    3  A    between atoms: N2_9  and  C7_10
REMARK    4  A    between atoms: C11_14  and  C12_15
REMARK                            x       y       z     vdW  Elec       q    Type
REMARK                         _______ _______ _______ _____ _____    ______ ____
ROOT
ATOM      1  N1  UNL     1      22.943   8.094  36.083  0.00  0.00    -0.296 N 
ATOM      2  C6  UNL     1      21.516   8.215  36.158  0.00  0.00    +0.304 C 
ATOM      3  O1  UNL     1      20.789   7.653  35.292  0.00  0.00    -0.253 OA
ATOM      4  N2  UNL     1      20.923   8.941  37.245  0.00  0.00    -0.269 N 
ATOM      5  H10 UNL     1      23.516   8.621  36.779  0.00  0.00    +0.151 HD
ATOM      6  H11 UNL     1      21.523   9.139  38.078  0.00  0.00    +0.156 HD
ENDROOT
BRANCH   1  11
ATOM      7  C1  UNL     1      22.897   7.092  31.353  0.00  0.00    +0.007 C 
ATOM      8  C2  UNL     1      23.616   6.814  32.676  0.00  0.00    -0.012 C 
ATOM      9  C3  UNL     1      23.083   5.565  33.391  0.00  0.00    +0.005 C 
ATOM     10  C4  UNL     1      22.985   5.916  34.876  0.00  0.00    +0.022 C 
ATOM     11  C5  UNL     1      23.604   7.306  35.036  0.00  0.00    +0.075 C 
ATOM     12  C16 UNL     1      23.458   7.960  33.670  0.00  0.00    +0.025 C 
ENDBRANCH   1  11
BRANCH   4  13
ATOM     13  C7  UNL     1      19.533   9.301  37.313  0.00  0.00    +0.035 A 
ATOM     14  C8  UNL     1      18.580   8.440  37.883  0.00  0.00    +0.023 A 
ATOM     15  C9  UNL     1      17.233   8.803  37.916  0.00  0.00    +0.002 A 
ATOM     16  C10 UNL     1      16.818  10.021  37.372  0.00  0.00    +0.010 A 
ATOM     17  C11 UNL     1      17.750  10.887  36.775  0.00  0.00    +0.009 A 
ATOM     18  C15 UNL     1      19.107  10.512  36.745  0.00  0.00    +0.034 A 
BRANCH  17  19
ATOM     19  C12 UNL     1      17.301  12.171  36.188  0.00  0.00    +0.108 A 
ATOM     20  N3  UNL     1      17.910  12.767  35.139  0.00  0.00    -0.247 NA
ATOM     21  C13 UNL     1      17.308  13.935  34.786  0.00  0.00    +0.119 A 
ATOM     22  C14 UNL     1      16.207  14.287  35.553  0.00  0.00    +0.067 A 
ATOM     23  S1  UNL     1      15.986  13.089  36.710  0.00  0.00    -0.076 S 
ENDBRANCH  17  19
ENDBRANCH   4  13
TORSDOF 3
ENDMDL
