REMARK  Name = /home/qwerty/github/datacon2025hack/step_04_hit_selection/docking/ligands/lig_663.pdb
REMARK  5 active torsions:
REMARK  status: ('A' for Active; 'I' for Inactive)
REMARK    1  A    between atoms: C1_2  and  O2_3
REMARK    2  A    between atoms: C1_2  and  C2_4
REMARK    3  A    between atoms: C6_9  and  N1_10
REMARK    4  A    between atoms: N1_10  and  C7_11
REMARK    5  A    between atoms: C10_16  and  C11_17
REMARK                            x       y       z     vdW  Elec       q    Type
REMARK                         _______ _______ _______ _____ _____    ______ ____
ROOT
ATOM      1  C7  UNL     1       1.074  -1.692   0.275  0.00  0.00    +0.052 A 
ATOM      2  C8  UNL     1       0.350  -2.867   0.609  0.00  0.00    +0.136 A 
ATOM      3  N2  UNL     1      -1.017  -2.871   0.609  0.00  0.00    -0.234 NA
ATOM      4  C9  UNL     1      -1.671  -1.732   0.273  0.00  0.00    +0.158 A 
ATOM      5  N3  UNL     1      -2.993  -1.552   0.204  0.00  0.00    -0.323 N 
ATOM      6  C10 UNL     1      -3.116  -0.256  -0.198  0.00  0.00    +0.140 A 
ATOM      7  N4  UNL     1      -1.916   0.366  -0.381  0.00  0.00    -0.226 NA
ATOM      8  C17 UNL     1      -1.027  -0.593  -0.073  0.00  0.00    +0.110 A 
ATOM      9  C18 UNL     1       0.360  -0.527  -0.095  0.00  0.00    +0.056 A 
ATOM     10  H6  UNL     1      -3.732  -2.261   0.401  0.00  0.00    +0.169 HD
ENDROOT
BRANCH   6  11
ATOM     11  C11 UNL     1      -4.414   0.428  -0.428  0.00  0.00    +0.020 A 
ATOM     12  C12 UNL     1      -4.433   1.734  -0.955  0.00  0.00    +0.012 A 
ATOM     13  C13 UNL     1      -5.645   2.393  -1.178  0.00  0.00    +0.003 A 
ATOM     14  C14 UNL     1      -6.852   1.760  -0.876  0.00  0.00    +0.038 A 
ATOM     15  C15 UNL     1      -6.850   0.467  -0.350  0.00  0.00    +0.124 A 
ATOM     16  F2  UNL     1      -8.023  -0.145  -0.055  0.00  0.00    -0.205 F 
ATOM     17  C16 UNL     1      -5.639  -0.198  -0.126  0.00  0.00    +0.049 A 
ENDBRANCH   6  11
BRANCH   1  18
ATOM     18  N1  UNL     1       2.511  -1.727   0.254  0.00  0.00    -0.313 N 
ATOM     19  H4  UNL     1       2.973  -2.640   0.037  0.00  0.00    +0.152 HD
BRANCH  18  25
ATOM     20  C2  UNL     1       5.463   0.580   0.107  0.00  0.00    +0.063 A 
ATOM     21  C3  UNL     1       5.062   1.581   1.010  0.00  0.00    +0.053 A 
ATOM     22  C4  UNL     1       3.830   1.491   1.663  0.00  0.00    +0.126 A 
ATOM     23  F1  UNL     1       3.460   2.452   2.545  0.00  0.00    -0.205 F 
ATOM     24  C5  UNL     1       2.983   0.408   1.418  0.00  0.00    +0.061 A 
ATOM     25  C6  UNL     1       3.355  -0.589   0.501  0.00  0.00    +0.035 A 
ATOM     26  C19 UNL     1       4.604  -0.507  -0.134  0.00  0.00    +0.038 A 
BRANCH  20  28
ATOM     27  O1  UNL     1       7.545   1.637  -0.363  0.00  0.00    -0.245 OA
ATOM     28  C1  UNL     1       6.772   0.664  -0.579  0.00  0.00    +0.337 C 
BRANCH  28  29
ATOM     29  O2  UNL     1       7.162  -0.331  -1.471  0.00  0.00    -0.477 OA
ATOM     30  H1  UNL     1       8.056  -0.283  -1.946  0.00  0.00    +0.295 HD
ENDBRANCH  28  29
ENDBRANCH  20  28
ENDBRANCH  18  25
ENDBRANCH   1  18
TORSDOF 5
