MODEL 1
REMARK VINA RESULT:    -6.660      0.000      0.000
REMARK INTER + INTRA:          -8.474
REMARK INTER:                  -7.828
REMARK INTRA:                  -0.646
REMARK UNBOUND:                -0.646
REMARK  Name = /home/qwerty/github/datacon2025hack/step_04_hit_selection/docking/ligands/lig_69.pdb
REMARK  3 active torsions:
REMARK  status: ('A' for Active; 'I' for Inactive)
REMARK    1  A    between atoms: C1_2  and  C12_16
REMARK    2  A    between atoms: N1_3  and  C2_4
REMARK    3  A    between atoms: C4_6  and  C5_7
REMARK                            x       y       z     vdW  Elec       q    Type
REMARK                         _______ _______ _______ _____ _____    ______ ____
ROOT
ATOM      1  O1  UNL     1      18.689   0.789  27.049  0.00  0.00    -0.270 OA
ATOM      2  C1  UNL     1      19.664   0.684  26.257  0.00  0.00    +0.252 C 
ATOM      3  N1  UNL     1      19.641  -0.304  25.217  0.00  0.00    -0.265 N 
ATOM      4  H1  UNL     1      20.548  -0.741  24.938  0.00  0.00    +0.157 HD
ENDROOT
BRANCH   2   5
ATOM      5  C12 UNL     1      20.850   1.534  26.462  0.00  0.00    +0.067 A 
ATOM      6  C13 UNL     1      21.780   1.407  27.500  0.00  0.00    +0.127 A 
ATOM      7  N4  UNL     1      22.760   2.347  27.439  0.00  0.00    -0.237 NA
ATOM      8  C14 UNL     1      22.452   3.082  26.357  0.00  0.00    +0.141 A 
ATOM      9  N5  UNL     1      23.117   4.171  25.909  0.00  0.00    -0.330 N 
ATOM     10  C15 UNL     1      22.619   4.832  24.820  0.00  0.00    +0.197 A 
ATOM     11  N6  UNL     1      21.464   4.413  24.208  0.00  0.00    -0.245 NA
ATOM     12  C16 UNL     1      20.765   3.321  24.634  0.00  0.00    +0.124 A 
ATOM     13  C17 UNL     1      21.267   2.618  25.720  0.00  0.00    +0.049 A 
ATOM     14  H10 UNL     1      23.984   4.506  26.386  0.00  0.00    +0.168 HD
ENDBRANCH   2   5
BRANCH   3  15
ATOM     15  C2  UNL     1      18.439  -0.851  24.654  0.00  0.00    +0.148 A 
ATOM     16  C3  UNL     1      17.682  -0.150  23.704  0.00  0.00    +0.055 A 
ATOM     17  C4  UNL     1      16.526  -0.735  23.167  0.00  0.00    +0.005 A 
ATOM     18  C11 UNL     1      16.175  -2.022  23.598  0.00  0.00    +0.143 A 
ATOM     19  N2  UNL     1      16.955  -2.669  24.501  0.00  0.00    -0.155 NA
ATOM     20  N3  UNL     1      18.050  -2.104  25.009  0.00  0.00    -0.134 NA
BRANCH  17  21
ATOM     21  C5  UNL     1      15.701  -0.015  22.164  0.00  0.00    -0.016 A 
ATOM     22  C6  UNL     1      16.252   0.365  20.925  0.00  0.00    +0.008 A 
ATOM     23  C7  UNL     1      15.472   1.043  19.982  0.00  0.00    +0.001 A 
ATOM     24  C8  UNL     1      14.139   1.347  20.262  0.00  0.00    +0.000 A 
ATOM     25  C9  UNL     1      13.581   0.976  21.488  0.00  0.00    +0.001 A 
ATOM     26  C10 UNL     1      14.355   0.299  22.434  0.00  0.00    +0.008 A 
ENDBRANCH  17  21
ENDBRANCH   3  15
TORSDOF 3
ENDMDL
MODEL 2
REMARK VINA RESULT:    -6.576      5.779      8.449
REMARK INTER + INTRA:          -8.375
REMARK INTER:                  -7.721
REMARK INTRA:                  -0.653
REMARK UNBOUND:                -0.646
REMARK  Name = /home/qwerty/github/datacon2025hack/step_04_hit_selection/docking/ligands/lig_69.pdb
REMARK  3 active torsions:
REMARK  status: ('A' for Active; 'I' for Inactive)
REMARK    1  A    between atoms: C1_2  and  C12_16
REMARK    2  A    between atoms: N1_3  and  C2_4
REMARK    3  A    between atoms: C4_6  and  C5_7
REMARK                            x       y       z     vdW  Elec       q    Type
REMARK                         _______ _______ _______ _____ _____    ______ ____
ROOT
ATOM      1  O1  UNL     1      20.537   4.603  32.939  0.00  0.00    -0.270 OA
ATOM      2  C1  UNL     1      21.790   4.470  32.973  0.00  0.00    +0.252 C 
ATOM      3  N1  UNL     1      22.396   3.263  32.489  0.00  0.00    -0.265 N 
ATOM      4  H1  UNL     1      23.267   2.930  32.962  0.00  0.00    +0.157 HD
ENDROOT
BRANCH   2   5
ATOM      5  C12 UNL     1      22.609   5.532  33.583  0.00  0.00    +0.067 A 
ATOM      6  C13 UNL     1      22.938   5.637  34.939  0.00  0.00    +0.127 A 
ATOM      7  N4  UNL     1      23.692   6.735  35.209  0.00  0.00    -0.237 NA
ATOM      8  C14 UNL     1      23.844   7.337  34.018  0.00  0.00    +0.141 A 
ATOM      9  N5  UNL     1      24.490   8.502  33.782  0.00  0.00    -0.330 N 
ATOM     10  C15 UNL     1      24.489   8.997  32.507  0.00  0.00    +0.197 A 
ATOM     11  N6  UNL     1      23.834   8.340  31.495  0.00  0.00    -0.245 NA
ATOM     12  C16 UNL     1      23.168   7.165  31.696  0.00  0.00    +0.124 A 
ATOM     13  C17 UNL     1      23.181   6.629  32.976  0.00  0.00    +0.049 A 
ATOM     14  H10 UNL     1      24.970   9.016  34.554  0.00  0.00    +0.168 HD
ENDBRANCH   2   5
BRANCH   3  15
ATOM     15  C2  UNL     1      21.797   2.397  31.514  0.00  0.00    +0.148 A 
ATOM     16  C3  UNL     1      21.884   2.659  30.139  0.00  0.00    +0.055 A 
ATOM     17  C4  UNL     1      21.300   1.772  29.224  0.00  0.00    +0.005 A 
ATOM     18  C11 UNL     1      20.654   0.633  29.726  0.00  0.00    +0.143 A 
ATOM     19  N2  UNL     1      20.618   0.411  31.065  0.00  0.00    -0.155 NA
ATOM     20  N3  UNL     1      21.174   1.262  31.928  0.00  0.00    -0.134 NA
BRANCH  17  21
ATOM     21  C5  UNL     1      21.370   2.026  27.763  0.00  0.00    -0.016 A 
ATOM     22  C6  UNL     1      22.380   2.849  27.227  0.00  0.00    +0.008 A 
ATOM     23  C7  UNL     1      22.444   3.086  25.850  0.00  0.00    +0.001 A 
ATOM     24  C8  UNL     1      21.506   2.507  24.994  0.00  0.00    +0.000 A 
ATOM     25  C9  UNL     1      20.499   1.689  25.513  0.00  0.00    +0.001 A 
ATOM     26  C10 UNL     1      20.429   1.448  26.888  0.00  0.00    +0.008 A 
ENDBRANCH  17  21
ENDBRANCH   3  15
TORSDOF 3
ENDMDL
MODEL 3
REMARK VINA RESULT:    -6.543      2.801      8.726
REMARK INTER + INTRA:          -8.336
REMARK INTER:                  -7.740
REMARK INTRA:                  -0.596
REMARK UNBOUND:                -0.646
REMARK  Name = /home/qwerty/github/datacon2025hack/step_04_hit_selection/docking/ligands/lig_69.pdb
REMARK  3 active torsions:
REMARK  status: ('A' for Active; 'I' for Inactive)
REMARK    1  A    between atoms: C1_2  and  C12_16
REMARK    2  A    between atoms: N1_3  and  C2_4
REMARK    3  A    between atoms: C4_6  and  C5_7
REMARK                            x       y       z     vdW  Elec       q    Type
REMARK                         _______ _______ _______ _____ _____    ______ ____
ROOT
ATOM      1  O1  UNL     1      17.689   1.550  25.789  0.00  0.00    -0.270 OA
ATOM      2  C1  UNL     1      18.241   0.445  25.537  0.00  0.00    +0.252 C 
ATOM      3  N1  UNL     1      19.661   0.301  25.686  0.00  0.00    -0.265 N 
ATOM      4  H1  UNL     1      20.159  -0.343  25.030  0.00  0.00    +0.157 HD
ENDROOT
BRANCH   2   5
ATOM      5  C12 UNL     1      17.423  -0.665  25.016  0.00  0.00    +0.067 A 
ATOM      6  C13 UNL     1      17.653  -1.365  23.827  0.00  0.00    +0.127 A 
ATOM      7  N4  UNL     1      16.719  -2.325  23.598  0.00  0.00    -0.237 NA
ATOM      8  C14 UNL     1      15.885  -2.236  24.647  0.00  0.00    +0.141 A 
ATOM      9  N5  UNL     1      14.763  -2.966  24.848  0.00  0.00    -0.330 N 
ATOM     10  C15 UNL     1      14.000  -2.693  25.949  0.00  0.00    +0.197 A 
ATOM     11  N6  UNL     1      14.351  -1.692  26.821  0.00  0.00    -0.245 NA
ATOM     12  C16 UNL     1      15.473  -0.933  26.649  0.00  0.00    +0.124 A 
ATOM     13  C17 UNL     1      16.278  -1.212  25.554  0.00  0.00    +0.049 A 
ATOM     14  H10 UNL     1      14.481  -3.713  24.175  0.00  0.00    +0.168 HD
ENDBRANCH   2   5
BRANCH   3  15
ATOM     15  C2  UNL     1      20.463   1.106  26.564  0.00  0.00    +0.148 A 
ATOM     16  C3  UNL     1      20.329   1.037  27.958  0.00  0.00    +0.055 A 
ATOM     17  C4  UNL     1      21.150   1.829  28.775  0.00  0.00    +0.005 A 
ATOM     18  C11 UNL     1      22.095   2.660  28.157  0.00  0.00    +0.143 A 
ATOM     19  N2  UNL     1      22.202   2.671  26.803  0.00  0.00    -0.155 NA
ATOM     20  N3  UNL     1      21.415   1.918  26.034  0.00  0.00    -0.134 NA
BRANCH  17  21
ATOM     21  C5  UNL     1      21.028   1.783  30.254  0.00  0.00    -0.016 A 
ATOM     22  C6  UNL     1      20.384   0.700  30.885  0.00  0.00    +0.008 A 
ATOM     23  C7  UNL     1      20.272   0.659  32.279  0.00  0.00    +0.001 A 
ATOM     24  C8  UNL     1      20.797   1.693  33.056  0.00  0.00    +0.000 A 
ATOM     25  C9  UNL     1      21.437   2.772  32.442  0.00  0.00    +0.001 A 
ATOM     26  C10 UNL     1      21.553   2.819  31.050  0.00  0.00    +0.008 A 
ENDBRANCH  17  21
ENDBRANCH   3  15
TORSDOF 3
ENDMDL
MODEL 4
REMARK VINA RESULT:    -6.378      5.826      9.686
REMARK INTER + INTRA:          -8.143
REMARK INTER:                  -7.529
REMARK INTRA:                  -0.613
REMARK UNBOUND:                -0.646
REMARK  Name = /home/qwerty/github/datacon2025hack/step_04_hit_selection/docking/ligands/lig_69.pdb
REMARK  3 active torsions:
REMARK  status: ('A' for Active; 'I' for Inactive)
REMARK    1  A    between atoms: C1_2  and  C12_16
REMARK    2  A    between atoms: N1_3  and  C2_4
REMARK    3  A    between atoms: C4_6  and  C5_7
REMARK                            x       y       z     vdW  Elec       q    Type
REMARK                         _______ _______ _______ _____ _____    ______ ____
ROOT
ATOM      1  O1  UNL     1      12.709   3.713  22.542  0.00  0.00    -0.270 OA
ATOM      2  C1  UNL     1      11.835   2.880  22.180  0.00  0.00    +0.252 C 
ATOM      3  N1  UNL     1      12.193   1.794  21.313  0.00  0.00    -0.265 N 
ATOM      4  H1  UNL     1      11.479   1.460  20.627  0.00  0.00    +0.157 HD
ENDROOT
BRANCH   2   5
ATOM      5  C12 UNL     1      10.435   3.082  22.594  0.00  0.00    +0.067 A 
ATOM      6  C13 UNL     1       9.791   2.428  23.650  0.00  0.00    +0.127 A 
ATOM      7  N4  UNL     1       8.492   2.807  23.783  0.00  0.00    -0.237 NA
ATOM      8  C14 UNL     1       8.305   3.706  22.803  0.00  0.00    +0.141 A 
ATOM      9  N5  UNL     1       7.148   4.339  22.503  0.00  0.00    -0.330 N 
ATOM     10  C15 UNL     1       7.130   5.182  21.425  0.00  0.00    +0.197 A 
ATOM     11  N6  UNL     1       8.252   5.367  20.655  0.00  0.00    -0.245 NA
ATOM     12  C16 UNL     1       9.436   4.743  20.926  0.00  0.00    +0.124 A 
ATOM     13  C17 UNL     1       9.485   3.906  22.032  0.00  0.00    +0.049 A 
ATOM     14  H10 UNL     1       6.286   4.183  23.072  0.00  0.00    +0.168 HD
ENDBRANCH   2   5
BRANCH   3  15
ATOM     15  C2  UNL     1      13.518   1.250  21.212  0.00  0.00    +0.148 A 
ATOM     16  C3  UNL     1      14.004   0.311  22.133  0.00  0.00    +0.055 A 
ATOM     17  C4  UNL     1      15.298  -0.207  21.980  0.00  0.00    +0.005 A 
ATOM     18  C11 UNL     1      16.061   0.229  20.888  0.00  0.00    +0.143 A 
ATOM     19  N2  UNL     1      15.535   1.122  20.010  0.00  0.00    -0.155 NA
ATOM     20  N3  UNL     1      14.305   1.612  20.165  0.00  0.00    -0.134 NA
BRANCH  17  21
ATOM     21  C5  UNL     1      15.843  -1.199  22.942  0.00  0.00    -0.016 A 
ATOM     22  C6  UNL     1      15.070  -1.633  24.036  0.00  0.00    +0.008 A 
ATOM     23  C7  UNL     1      15.586  -2.567  24.941  0.00  0.00    +0.001 A 
ATOM     24  C8  UNL     1      16.873  -3.077  24.765  0.00  0.00    +0.000 A 
ATOM     25  C9  UNL     1      17.650  -2.653  23.684  0.00  0.00    +0.001 A 
ATOM     26  C10 UNL     1      17.140  -1.721  22.777  0.00  0.00    +0.008 A 
ENDBRANCH  17  21
ENDBRANCH   3  15
TORSDOF 3
ENDMDL
MODEL 5
REMARK VINA RESULT:    -6.350     15.103     16.139
REMARK INTER + INTRA:          -8.110
REMARK INTER:                  -7.466
REMARK INTRA:                  -0.644
REMARK UNBOUND:                -0.646
REMARK  Name = /home/qwerty/github/datacon2025hack/step_04_hit_selection/docking/ligands/lig_69.pdb
REMARK  3 active torsions:
REMARK  status: ('A' for Active; 'I' for Inactive)
REMARK    1  A    between atoms: C1_2  and  C12_16
REMARK    2  A    between atoms: N1_3  and  C2_4
REMARK    3  A    between atoms: C4_6  and  C5_7
REMARK                            x       y       z     vdW  Elec       q    Type
REMARK                         _______ _______ _______ _____ _____    ______ ____
ROOT
ATOM      1  O1  UNL     1      13.472  12.961  31.709  0.00  0.00    -0.270 OA
ATOM      2  C1  UNL     1      12.538  13.458  32.395  0.00  0.00    +0.252 C 
ATOM      3  N1  UNL     1      11.412  14.063  31.743  0.00  0.00    -0.265 N 
ATOM      4  H1  UNL     1      10.957  14.880  32.210  0.00  0.00    +0.157 HD
ENDROOT
BRANCH   2   5
ATOM      5  C12 UNL     1      12.656  13.476  33.863  0.00  0.00    +0.067 A 
ATOM      6  C13 UNL     1      13.298  14.462  34.622  0.00  0.00    +0.127 A 
ATOM      7  N4  UNL     1      13.262  14.199  35.955  0.00  0.00    -0.237 NA
ATOM      8  C14 UNL     1      12.595  13.037  36.049  0.00  0.00    +0.141 A 
ATOM      9  N5  UNL     1      12.342  12.344  37.182  0.00  0.00    -0.330 N 
ATOM     10  C15 UNL     1      11.699  11.141  37.077  0.00  0.00    +0.197 A 
ATOM     11  N6  UNL     1      11.336  10.639  35.852  0.00  0.00    -0.245 NA
ATOM     12  C16 UNL     1      11.578  11.308  34.687  0.00  0.00    +0.124 A 
ATOM     13  C17 UNL     1      12.204  12.544  34.771  0.00  0.00    +0.049 A 
ATOM     14  H10 UNL     1      12.637  12.712  38.114  0.00  0.00    +0.168 HD
ENDBRANCH   2   5
BRANCH   3  15
ATOM     15  C2  UNL     1      10.976  13.730  30.416  0.00  0.00    +0.148 A 
ATOM     16  C3  UNL     1      10.107  12.657  30.171  0.00  0.00    +0.055 A 
ATOM     17  C4  UNL     1       9.692  12.384  28.860  0.00  0.00    +0.005 A 
ATOM     18  C11 UNL     1      10.160  13.214  27.831  0.00  0.00    +0.143 A 
ATOM     19  N2  UNL     1      10.981  14.255  28.123  0.00  0.00    -0.155 NA
ATOM     20  N3  UNL     1      11.373  14.506  29.373  0.00  0.00    -0.134 NA
BRANCH  17  21
ATOM     21  C5  UNL     1       8.777  11.252  28.568  0.00  0.00    -0.016 A 
ATOM     22  C6  UNL     1       8.744  10.670  27.286  0.00  0.00    +0.008 A 
ATOM     23  C7  UNL     1       7.881   9.604  27.014  0.00  0.00    +0.001 A 
ATOM     24  C8  UNL     1       7.043   9.106  28.014  0.00  0.00    +0.000 A 
ATOM     25  C9  UNL     1       7.066   9.675  29.290  0.00  0.00    +0.001 A 
ATOM     26  C10 UNL     1       7.926  10.741  29.568  0.00  0.00    +0.008 A 
ENDBRANCH  17  21
ENDBRANCH   3  15
TORSDOF 3
ENDMDL
MODEL 6
REMARK VINA RESULT:    -6.305     15.005     16.032
REMARK INTER + INTRA:          -8.056
REMARK INTER:                  -7.530
REMARK INTRA:                  -0.526
REMARK UNBOUND:                -0.646
REMARK  Name = /home/qwerty/github/datacon2025hack/step_04_hit_selection/docking/ligands/lig_69.pdb
REMARK  3 active torsions:
REMARK  status: ('A' for Active; 'I' for Inactive)
REMARK    1  A    between atoms: C1_2  and  C12_16
REMARK    2  A    between atoms: N1_3  and  C2_4
REMARK    3  A    between atoms: C4_6  and  C5_7
REMARK                            x       y       z     vdW  Elec       q    Type
REMARK                         _______ _______ _______ _____ _____    ______ ____
ROOT
ATOM      1  O1  UNL     1      13.272  12.356  31.893  0.00  0.00    -0.270 OA
ATOM      2  C1  UNL     1      12.593  13.253  32.461  0.00  0.00    +0.252 C 
ATOM      3  N1  UNL     1      11.795  14.153  31.678  0.00  0.00    -0.265 N 
ATOM      4  H1  UNL     1      11.684  15.134  32.022  0.00  0.00    +0.157 HD
ENDROOT
BRANCH   2   5
ATOM      5  C12 UNL     1      12.690  13.411  33.923  0.00  0.00    +0.067 A 
ATOM      6  C13 UNL     1      11.612  13.550  34.805  0.00  0.00    +0.127 A 
ATOM      7  N4  UNL     1      12.012  13.697  36.096  0.00  0.00    -0.237 NA
ATOM      8  C14 UNL     1      13.353  13.654  36.037  0.00  0.00    +0.141 A 
ATOM      9  N5  UNL     1      14.209  13.801  37.075  0.00  0.00    -0.330 N 
ATOM     10  C15 UNL     1      15.552  13.790  36.815  0.00  0.00    +0.197 A 
ATOM     11  N6  UNL     1      16.021  13.652  35.532  0.00  0.00    -0.245 NA
ATOM     12  C16 UNL     1      15.188  13.505  34.460  0.00  0.00    +0.124 A 
ATOM     13  C17 UNL     1      13.822  13.485  34.704  0.00  0.00    +0.049 A 
ATOM     14  H10 UNL     1      13.855  13.929  38.049  0.00  0.00    +0.168 HD
ENDBRANCH   2   5
BRANCH   3  15
ATOM     15  C2  UNL     1      11.282  13.845  30.373  0.00  0.00    +0.148 A 
ATOM     16  C3  UNL     1      10.386  12.787  30.162  0.00  0.00    +0.055 A 
ATOM     17  C4  UNL     1       9.896  12.538  28.872  0.00  0.00    +0.005 A 
ATOM     18  C11 UNL     1      10.317  13.377  27.830  0.00  0.00    +0.143 A 
ATOM     19  N2  UNL     1      11.167  14.404  28.091  0.00  0.00    -0.155 NA
ATOM     20  N3  UNL     1      11.630  14.631  29.320  0.00  0.00    -0.134 NA
BRANCH  17  21
ATOM     21  C5  UNL     1       8.951  11.422  28.616  0.00  0.00    -0.016 A 
ATOM     22  C6  UNL     1       8.914  10.790  27.358  0.00  0.00    +0.008 A 
ATOM     23  C7  UNL     1       8.023   9.738  27.119  0.00  0.00    +0.001 A 
ATOM     24  C8  UNL     1       7.161   9.306  28.129  0.00  0.00    +0.000 A 
ATOM     25  C9  UNL     1       7.187   9.926  29.381  0.00  0.00    +0.001 A 
ATOM     26  C10 UNL     1       8.075  10.977  29.625  0.00  0.00    +0.008 A 
ENDBRANCH  17  21
ENDBRANCH   3  15
TORSDOF 3
ENDMDL
MODEL 7
REMARK VINA RESULT:    -6.290     11.901     13.968
REMARK INTER + INTRA:          -8.039
REMARK INTER:                  -7.389
REMARK INTRA:                  -0.650
REMARK UNBOUND:                -0.646
REMARK  Name = /home/qwerty/github/datacon2025hack/step_04_hit_selection/docking/ligands/lig_69.pdb
REMARK  3 active torsions:
REMARK  status: ('A' for Active; 'I' for Inactive)
REMARK    1  A    between atoms: C1_2  and  C12_16
REMARK    2  A    between atoms: N1_3  and  C2_4
REMARK    3  A    between atoms: C4_6  and  C5_7
REMARK                            x       y       z     vdW  Elec       q    Type
REMARK                         _______ _______ _______ _____ _____    ______ ____
ROOT
ATOM      1  O1  UNL     1       9.665  10.648  25.889  0.00  0.00    -0.270 OA
ATOM      2  C1  UNL     1       8.464  10.375  26.157  0.00  0.00    +0.252 C 
ATOM      3  N1  UNL     1       7.496  10.279  25.102  0.00  0.00    -0.265 N 
ATOM      4  H1  UNL     1       6.516  10.577  25.308  0.00  0.00    +0.157 HD
ENDROOT
BRANCH   2   5
ATOM      5  C12 UNL     1       8.057  10.233  27.566  0.00  0.00    +0.067 A 
ATOM      6  C13 UNL     1       8.022  11.260  28.516  0.00  0.00    +0.127 A 
ATOM      7  N4  UNL     1       7.623  10.823  29.740  0.00  0.00    -0.237 NA
ATOM      8  C14 UNL     1       7.404   9.509  29.571  0.00  0.00    +0.141 A 
ATOM      9  N5  UNL     1       7.030   8.626  30.526  0.00  0.00    -0.330 N 
ATOM     10  C15 UNL     1       6.915   7.308  30.181  0.00  0.00    +0.197 A 
ATOM     11  N6  UNL     1       7.190   6.886  28.904  0.00  0.00    -0.245 NA
ATOM     12  C16 UNL     1       7.573   7.746  27.916  0.00  0.00    +0.124 A 
ATOM     13  C17 UNL     1       7.668   9.093  28.236  0.00  0.00    +0.049 A 
ATOM     14  H10 UNL     1       6.842   8.940  31.504  0.00  0.00    +0.168 HD
ENDBRANCH   2   5
BRANCH   3  15
ATOM     15  C2  UNL     1       7.821   9.961  23.740  0.00  0.00    +0.148 A 
ATOM     16  C3  UNL     1       8.190   8.665  23.351  0.00  0.00    +0.055 A 
ATOM     17  C4  UNL     1       8.477   8.399  22.004  0.00  0.00    +0.005 A 
ATOM     18  C11 UNL     1       8.371   9.451  21.084  0.00  0.00    +0.143 A 
ATOM     19  N2  UNL     1       7.986  10.683  21.507  0.00  0.00    -0.155 NA
ATOM     20  N3  UNL     1       7.717  10.928  22.790  0.00  0.00    -0.134 NA
BRANCH  17  21
ATOM     21  C5  UNL     1       8.876   7.038  21.563  0.00  0.00    -0.016 A 
ATOM     22  C6  UNL     1       9.988   6.858  20.717  0.00  0.00    +0.008 A 
ATOM     23  C7  UNL     1      10.361   5.575  20.303  0.00  0.00    +0.001 A 
ATOM     24  C8  UNL     1       9.633   4.461  20.726  0.00  0.00    +0.000 A 
ATOM     25  C9  UNL     1       8.527   4.628  21.563  0.00  0.00    +0.001 A 
ATOM     26  C10 UNL     1       8.149   5.907  21.981  0.00  0.00    +0.008 A 
ENDBRANCH  17  21
ENDBRANCH   3  15
TORSDOF 3
ENDMDL
MODEL 8
REMARK VINA RESULT:    -6.288     15.553     17.655
REMARK INTER + INTRA:          -8.037
REMARK INTER:                  -7.379
REMARK INTRA:                  -0.658
REMARK UNBOUND:                -0.646
REMARK  Name = /home/qwerty/github/datacon2025hack/step_04_hit_selection/docking/ligands/lig_69.pdb
REMARK  3 active torsions:
REMARK  status: ('A' for Active; 'I' for Inactive)
REMARK    1  A    between atoms: C1_2  and  C12_16
REMARK    2  A    between atoms: N1_3  and  C2_4
REMARK    3  A    between atoms: C4_6  and  C5_7
REMARK                            x       y       z     vdW  Elec       q    Type
REMARK                         _______ _______ _______ _____ _____    ______ ____
ROOT
ATOM      1  O1  UNL     1      10.900  12.162  31.465  0.00  0.00    -0.270 OA
ATOM      2  C1  UNL     1      11.040  13.380  31.169  0.00  0.00    +0.252 C 
ATOM      3  N1  UNL     1      11.085  14.370  32.207  0.00  0.00    -0.265 N 
ATOM      4  H1  UNL     1      10.682  15.312  32.001  0.00  0.00    +0.157 HD
ENDROOT
BRANCH   2   5
ATOM      5  C12 UNL     1      11.081  13.775  29.750  0.00  0.00    +0.067 A 
ATOM      6  C13 UNL     1      10.009  13.715  28.852  0.00  0.00    +0.127 A 
ATOM      7  N4  UNL     1      10.352  14.128  27.604  0.00  0.00    -0.237 NA
ATOM      8  C14 UNL     1      11.652  14.452  27.704  0.00  0.00    +0.141 A 
ATOM      9  N5  UNL     1      12.455  14.879  26.702  0.00  0.00    -0.330 N 
ATOM     10  C15 UNL     1      13.775  15.103  26.980  0.00  0.00    +0.197 A 
ATOM     11  N6  UNL     1      14.280  14.882  28.237  0.00  0.00    -0.245 NA
ATOM     12  C16 UNL     1      13.501  14.447  29.272  0.00  0.00    +0.124 A 
ATOM     13  C17 UNL     1      12.152  14.242  29.020  0.00  0.00    +0.049 A 
ATOM     14  H10 UNL     1      12.079  15.027  25.739  0.00  0.00    +0.168 HD
ENDBRANCH   2   5
BRANCH   3  15
ATOM     15  C2  UNL     1      11.491  14.101  33.558  0.00  0.00    +0.148 A 
ATOM     16  C3  UNL     1      12.828  13.836  33.888  0.00  0.00    +0.055 A 
ATOM     17  C4  UNL     1      13.180  13.600  35.225  0.00  0.00    +0.005 A 
ATOM     18  C11 UNL     1      12.168  13.653  36.195  0.00  0.00    +0.143 A 
ATOM     19  N2  UNL     1      10.893  13.939  35.826  0.00  0.00    -0.155 NA
ATOM     20  N3  UNL     1      10.567  14.158  34.553  0.00  0.00    -0.134 NA
BRANCH  17  21
ATOM     21  C5  UNL     1      14.585  13.311  35.606  0.00  0.00    -0.016 A 
ATOM     22  C6  UNL     1      15.650  13.743  34.792  0.00  0.00    +0.008 A 
ATOM     23  C7  UNL     1      16.974  13.470  35.153  0.00  0.00    +0.001 A 
ATOM     24  C8  UNL     1      17.249  12.765  36.326  0.00  0.00    +0.000 A 
ATOM     25  C9  UNL     1      16.202  12.329  37.141  0.00  0.00    +0.001 A 
ATOM     26  C10 UNL     1      14.877  12.600  36.786  0.00  0.00    +0.008 A 
ENDBRANCH  17  21
ENDBRANCH   3  15
TORSDOF 3
ENDMDL
MODEL 9
REMARK VINA RESULT:    -6.275     13.178     15.360
REMARK INTER + INTRA:          -8.021
REMARK INTER:                  -7.408
REMARK INTRA:                  -0.613
REMARK UNBOUND:                -0.646
REMARK  Name = /home/qwerty/github/datacon2025hack/step_04_hit_selection/docking/ligands/lig_69.pdb
REMARK  3 active torsions:
REMARK  status: ('A' for Active; 'I' for Inactive)
REMARK    1  A    between atoms: C1_2  and  C12_16
REMARK    2  A    between atoms: N1_3  and  C2_4
REMARK    3  A    between atoms: C4_6  and  C5_7
REMARK                            x       y       z     vdW  Elec       q    Type
REMARK                         _______ _______ _______ _____ _____    ______ ____
ROOT
ATOM      1  O1  UNL     1       9.504   8.799  25.212  0.00  0.00    -0.270 OA
ATOM      2  C1  UNL     1       8.856   9.751  24.699  0.00  0.00    +0.252 C 
ATOM      3  N1  UNL     1       8.037  10.590  25.525  0.00  0.00    -0.265 N 
ATOM      4  H1  UNL     1       7.160  10.979  25.110  0.00  0.00    +0.157 HD
ENDROOT
BRANCH   2   5
ATOM      5  C12 UNL     1       8.893   9.938  23.238  0.00  0.00    +0.067 A 
ATOM      6  C13 UNL     1       7.787   9.915  22.381  0.00  0.00    +0.127 A 
ATOM      7  N4  UNL     1       8.133  10.100  21.079  0.00  0.00    -0.237 NA
ATOM      8  C14 UNL     1       9.468  10.239  21.104  0.00  0.00    +0.141 A 
ATOM      9  N5  UNL     1      10.281  10.404  20.035  0.00  0.00    -0.330 N 
ATOM     10  C15 UNL     1      11.630  10.466  20.250  0.00  0.00    +0.197 A 
ATOM     11  N6  UNL     1      12.150  10.347  21.515  0.00  0.00    -0.245 NA
ATOM     12  C16 UNL     1      11.362  10.176  22.616  0.00  0.00    +0.124 A 
ATOM     13  C17 UNL     1       9.988  10.139  22.426  0.00  0.00    +0.049 A 
ATOM     14  H10 UNL     1       9.890  10.473  19.069  0.00  0.00    +0.168 HD
ENDBRANCH   2   5
BRANCH   3  15
ATOM     15  C2  UNL     1       8.254  10.793  26.930  0.00  0.00    +0.148 A 
ATOM     16  C3  UNL     1       9.198  11.715  27.406  0.00  0.00    +0.055 A 
ATOM     17  C4  UNL     1       9.359  11.893  28.788  0.00  0.00    +0.005 A 
ATOM     18  C11 UNL     1       8.549  11.142  29.651  0.00  0.00    +0.143 A 
ATOM     19  N2  UNL     1       7.633  10.280  29.139  0.00  0.00    -0.155 NA
ATOM     20  N3  UNL     1       7.488  10.115  27.825  0.00  0.00    -0.134 NA
BRANCH  17  21
ATOM     21  C5  UNL     1      10.354  12.857  29.323  0.00  0.00    -0.016 A 
ATOM     22  C6  UNL     1      11.025  13.745  28.460  0.00  0.00    +0.008 A 
ATOM     23  C7  UNL     1      11.961  14.653  28.967  0.00  0.00    +0.001 A 
ATOM     24  C8  UNL     1      12.238  14.685  30.335  0.00  0.00    +0.000 A 
ATOM     25  C9  UNL     1      11.580  13.808  31.201  0.00  0.00    +0.001 A 
ATOM     26  C10 UNL     1      10.643  12.899  30.700  0.00  0.00    +0.008 A 
ENDBRANCH  17  21
ENDBRANCH   3  15
TORSDOF 3
ENDMDL
