REMARK  Name = /home/qwerty/github/datacon2025hack/step_04_hit_selection/docking/ligands/lig_32.pdb
REMARK  7 active torsions:
REMARK  status: ('A' for Active; 'I' for Inactive)
REMARK    1  A    between atoms: C1_1  and  C2_2
REMARK    2  A    between atoms: C2_2  and  C3_3
REMARK    3  A    between atoms: C2_2  and  N1_4
REMARK    4  A    between atoms: C7_9  and  N3_10
REMARK    5  A    between atoms: C8_11  and  C9_13
REMARK    6  A    between atoms: N4_15  and  C10_16
REMARK    7  A    between atoms: C14_21  and  C15_22
REMARK                            x       y       z     vdW  Elec       q    Type
REMARK                         _______ _______ _______ _____ _____    ______ ____
ROOT
ATOM      1  N3  UNL     1      -0.822  -1.010   0.566  0.00  0.00    -0.278 N 
ATOM      2  C8  UNL     1       0.358  -0.503  -0.081  0.00  0.00    +0.303 C 
ATOM      3  O1  UNL     1       0.261   0.163  -1.147  0.00  0.00    -0.265 OA
ATOM      4  H10 UNL     1      -0.713  -1.803   1.238  0.00  0.00    +0.155 HD
ENDROOT
BRANCH   1  10
ATOM      5  N1  UNL     1      -5.932   0.853  -0.556  0.00  0.00    -0.261 N 
ATOM      6  N2  UNL     1      -5.664   2.131  -0.813  0.00  0.00    -0.178 NA
ATOM      7  C4  UNL     1      -4.325   2.317  -0.719  0.00  0.00    +0.143 A 
ATOM      8  C5  UNL     1      -3.746   1.116  -0.374  0.00  0.00    +0.021 A 
ATOM      9  C6  UNL     1      -2.425   0.765  -0.115  0.00  0.00    +0.035 A 
ATOM     10  C7  UNL     1      -2.157  -0.574   0.257  0.00  0.00    +0.035 A 
ATOM     11  C19 UNL     1      -3.232  -1.491   0.391  0.00  0.00    +0.025 A 
ATOM     12  C20 UNL     1      -4.557  -1.097   0.124  0.00  0.00    +0.030 A 
ATOM     13  C21 UNL     1      -4.774   0.224  -0.270  0.00  0.00    +0.069 A 
BRANCH   5  15
ATOM     14  C1  UNL     1      -8.199   0.927  -1.539  0.00  0.00    +0.032 C 
ATOM     15  C2  UNL     1      -7.288   0.295  -0.480  0.00  0.00    +0.102 C 
ATOM     16  C3  UNL     1      -7.857   0.504   0.924  0.00  0.00    +0.032 C 
ENDBRANCH   5  15
ENDBRANCH   1  10
BRANCH   2  17
ATOM     17  C9  UNL     1       1.695  -0.794   0.472  0.00  0.00    +0.303 C 
ATOM     18  O2  UNL     1       1.793  -1.460   1.538  0.00  0.00    -0.265 OA
ATOM     19  N4  UNL     1       2.875  -0.286  -0.174  0.00  0.00    -0.278 N 
ATOM     20  H11 UNL     1       2.766   0.507  -0.846  0.00  0.00    +0.155 HD
BRANCH  19  21
ATOM     21  C10 UNL     1       4.211  -0.719   0.139  0.00  0.00    +0.034 A 
ATOM     22  C11 UNL     1       4.485  -2.050   0.497  0.00  0.00    +0.026 A 
ATOM     23  C12 UNL     1       5.793  -2.447   0.786  0.00  0.00    +0.040 A 
ATOM     24  C13 UNL     1       6.843  -1.529   0.700  0.00  0.00    +0.127 A 
ATOM     25  F1  UNL     1       8.102  -1.929   1.008  0.00  0.00    -0.205 F 
ATOM     26  C14 UNL     1       6.592  -0.208   0.293  0.00  0.00    -0.007 A 
ATOM     27  C18 UNL     1       5.272   0.193   0.031  0.00  0.00    +0.030 A 
BRANCH  26  28
ATOM     28  C15 UNL     1       7.712   0.797   0.230  0.00  0.00    +0.022 C 
ATOM     29  C16 UNL     1       7.836   1.554  -1.087  0.00  0.00    +0.009 C 
ATOM     30  C17 UNL     1       8.828   0.457  -0.751  0.00  0.00    +0.009 C 
ENDBRANCH  26  28
ENDBRANCH  19  21
ENDBRANCH   2  17
TORSDOF 5
