MODEL 1
REMARK VINA RESULT:    -6.138      0.000      0.000
REMARK INTER + INTRA:          -8.087
REMARK INTER:                  -7.573
REMARK INTRA:                  -0.514
REMARK UNBOUND:                -0.514
REMARK  Name = /home/qwerty/github/datacon2025hack/step_04_hit_selection/docking/ligands/lig_360.pdb
REMARK  6 active torsions:
REMARK  status: ('A' for Active; 'I' for Inactive)
REMARK    1  A    between atoms: C1_1  and  N1_2
REMARK    2  A    between atoms: N1_2  and  C2_3
REMARK    3  A    between atoms: N1_2  and  C3_4
REMARK    4  A    between atoms: C6_7  and  N2_8
REMARK    5  A    between atoms: C10_14  and  N4_15
REMARK    6  A    between atoms: N4_15  and  C11_16
REMARK                            x       y       z     vdW  Elec       q    Type
REMARK                         _______ _______ _______ _____ _____    ______ ____
ROOT
ATOM      1  N2  UNL     1      21.785   4.019  24.448  0.00  0.00    -0.269 N 
ATOM      2  C7  UNL     1      21.235   5.350  24.494  0.00  0.00    +0.306 C 
ATOM      3  O1  UNL     1      20.820   5.822  25.587  0.00  0.00    -0.252 OA
ATOM      4  N3  UNL     1      21.167   6.162  23.307  0.00  0.00    -0.285 N 
ATOM      5  C8  UNL     1      22.155   6.010  22.232  0.00  0.00    +0.111 C 
ATOM      6  C9  UNL     1      22.457   7.365  21.583  0.00  0.00    +0.038 C 
ATOM      7  C10 UNL     1      21.164   8.089  21.155  0.00  0.00    +0.057 C 
ATOM      8  C16 UNL     1      20.249   8.254  22.383  0.00  0.00    +0.038 C 
ATOM      9  C17 UNL     1      19.931   6.899  23.017  0.00  0.00    +0.111 C 
ATOM     10  H9  UNL     1      22.280   3.706  23.584  0.00  0.00    +0.156 HD
ENDROOT
BRANCH   1  14
ATOM     11  C3  UNL     1      21.781   1.280  27.723  0.00  0.00    +0.029 A 
ATOM     12  C4  UNL     1      20.848   1.143  26.673  0.00  0.00    +0.025 A 
ATOM     13  C5  UNL     1      20.841   2.039  25.600  0.00  0.00    +0.025 A 
ATOM     14  C6  UNL     1      21.755   3.102  25.554  0.00  0.00    +0.035 A 
ATOM     15  C18 UNL     1      22.701   3.229  26.578  0.00  0.00    +0.025 A 
ATOM     16  C19 UNL     1      22.712   2.337  27.653  0.00  0.00    +0.025 A 
BRANCH  11  18
ATOM     17  C1  UNL     1      22.643  -0.845  28.809  0.00  0.00    +0.129 C 
ATOM     18  N1  UNL     1      21.789   0.350  28.838  0.00  0.00    -0.336 N 
ATOM     19  C2  UNL     1      20.942   0.586  30.015  0.00  0.00    +0.129 C 
ENDBRANCH  11  18
ENDBRANCH   1  14
BRANCH   7  20
ATOM     20  N4  UNL     1      21.483   9.418  20.592  0.00  0.00    -0.310 NA
ATOM     21  H15 UNL     1      21.855   9.328  19.617  0.00  0.00    +0.122 HD
BRANCH  20  22
ATOM     22  C11 UNL     1      20.316  10.323  20.577  0.00  0.00    +0.054 C 
ATOM     23  C12 UNL     1      20.726  11.739  20.972  0.00  0.00    +0.019 C 
ATOM     24  C13 UNL     1      19.826  12.688  20.180  0.00  0.00    +0.002 C 
ATOM     25  C14 UNL     1      19.025  11.834  19.202  0.00  0.00    +0.002 C 
ATOM     26  C15 UNL     1      19.685  10.466  19.192  0.00  0.00    +0.019 C 
ENDBRANCH  20  22
ENDBRANCH   7  20
TORSDOF 4
ENDMDL
MODEL 2
REMARK VINA RESULT:    -6.057     10.484     13.120
REMARK INTER + INTRA:          -7.988
REMARK INTER:                  -7.466
REMARK INTRA:                  -0.522
REMARK UNBOUND:                -0.514
REMARK  Name = /home/qwerty/github/datacon2025hack/step_04_hit_selection/docking/ligands/lig_360.pdb
REMARK  6 active torsions:
REMARK  status: ('A' for Active; 'I' for Inactive)
REMARK    1  A    between atoms: C1_1  and  N1_2
REMARK    2  A    between atoms: N1_2  and  C2_3
REMARK    3  A    between atoms: N1_2  and  C3_4
REMARK    4  A    between atoms: C6_7  and  N2_8
REMARK    5  A    between atoms: C10_14  and  N4_15
REMARK    6  A    between atoms: N4_15  and  C11_16
REMARK                            x       y       z     vdW  Elec       q    Type
REMARK                         _______ _______ _______ _____ _____    ______ ____
ROOT
ATOM      1  N2  UNL     1      13.627  15.129  28.212  0.00  0.00    -0.269 N 
ATOM      2  C7  UNL     1      14.718  14.357  27.672  0.00  0.00    +0.306 C 
ATOM      3  O1  UNL     1      14.528  13.163  27.315  0.00  0.00    -0.252 OA
ATOM      4  N3  UNL     1      16.026  14.936  27.516  0.00  0.00    -0.285 N 
ATOM      5  C8  UNL     1      16.189  16.373  27.263  0.00  0.00    +0.111 C 
ATOM      6  C9  UNL     1      17.380  16.625  26.334  0.00  0.00    +0.038 C 
ATOM      7  C10 UNL     1      18.656  15.925  26.845  0.00  0.00    +0.057 C 
ATOM      8  C16 UNL     1      18.379  14.417  26.995  0.00  0.00    +0.038 C 
ATOM      9  C17 UNL     1      17.202  14.167  27.940  0.00  0.00    +0.111 C 
ATOM     10  H9  UNL     1      13.750  16.157  28.340  0.00  0.00    +0.156 HD
ENDROOT
BRANCH   1  14
ATOM     11  C3  UNL     1       9.758  13.564  29.113  0.00  0.00    +0.029 A 
ATOM     12  C4  UNL     1      10.723  13.721  30.131  0.00  0.00    +0.025 A 
ATOM     13  C5  UNL     1      11.993  14.229  29.843  0.00  0.00    +0.025 A 
ATOM     14  C6  UNL     1      12.337  14.579  28.528  0.00  0.00    +0.035 A 
ATOM     15  C18 UNL     1      11.378  14.452  27.517  0.00  0.00    +0.025 A 
ATOM     16  C19 UNL     1      10.108  13.943  27.800  0.00  0.00    +0.025 A 
BRANCH  11  18
ATOM     17  C1  UNL     1       7.323  13.942  29.714  0.00  0.00    +0.129 C 
ATOM     18  N1  UNL     1       8.439  13.036  29.413  0.00  0.00    -0.336 N 
ATOM     19  C2  UNL     1       8.196  11.588  29.419  0.00  0.00    +0.129 C 
ENDBRANCH  11  18
ENDBRANCH   1  14
BRANCH   7  20
ATOM     20  N4  UNL     1      19.771  16.132  25.896  0.00  0.00    -0.310 NA
ATOM     21  H15 UNL     1      20.145  17.107  25.971  0.00  0.00    +0.122 HD
BRANCH  20  22
ATOM     22  C11 UNL     1      20.878  15.177  26.104  0.00  0.00    +0.054 C 
ATOM     23  C12 UNL     1      21.337  14.586  24.773  0.00  0.00    +0.019 C 
ATOM     24  C13 UNL     1      22.841  14.347  24.901  0.00  0.00    +0.002 C 
ATOM     25  C14 UNL     1      23.281  14.960  26.228  0.00  0.00    +0.002 C 
ATOM     26  C15 UNL     1      22.126  15.826  26.700  0.00  0.00    +0.019 C 
ENDBRANCH  20  22
ENDBRANCH   7  20
TORSDOF 4
ENDMDL
MODEL 3
REMARK VINA RESULT:    -6.018     14.097     17.790
REMARK INTER + INTRA:          -7.939
REMARK INTER:                  -7.388
REMARK INTRA:                  -0.551
REMARK UNBOUND:                -0.514
REMARK  Name = /home/qwerty/github/datacon2025hack/step_04_hit_selection/docking/ligands/lig_360.pdb
REMARK  6 active torsions:
REMARK  status: ('A' for Active; 'I' for Inactive)
REMARK    1  A    between atoms: C1_1  and  N1_2
REMARK    2  A    between atoms: N1_2  and  C2_3
REMARK    3  A    between atoms: N1_2  and  C3_4
REMARK    4  A    between atoms: C6_7  and  N2_8
REMARK    5  A    between atoms: C10_14  and  N4_15
REMARK    6  A    between atoms: N4_15  and  C11_16
REMARK                            x       y       z     vdW  Elec       q    Type
REMARK                         _______ _______ _______ _____ _____    ______ ____
ROOT
ATOM      1  N2  UNL     1       6.935   7.835  29.002  0.00  0.00    -0.269 N 
ATOM      2  C7  UNL     1       7.757   6.822  29.613  0.00  0.00    +0.306 C 
ATOM      3  O1  UNL     1       8.907   7.115  30.038  0.00  0.00    -0.252 OA
ATOM      4  N3  UNL     1       7.276   5.473  29.764  0.00  0.00    -0.285 N 
ATOM      5  C8  UNL     1       5.844   5.198  29.933  0.00  0.00    +0.111 C 
ATOM      6  C9  UNL     1       5.631   4.007  30.872  0.00  0.00    +0.038 C 
ATOM      7  C10 UNL     1       6.463   2.784  30.434  0.00  0.00    +0.057 C 
ATOM      8  C16 UNL     1       7.949   3.181  30.369  0.00  0.00    +0.038 C 
ATOM      9  C17 UNL     1       8.163   4.357  29.414  0.00  0.00    +0.111 C 
ATOM     10  H9  UNL     1       5.930   7.627  28.815  0.00  0.00    +0.156 HD
ENDROOT
BRANCH   1  14
ATOM     11  C3  UNL     1       8.236  11.803  28.108  0.00  0.00    +0.029 A 
ATOM     12  C4  UNL     1       8.230  10.808  27.108  0.00  0.00    +0.025 A 
ATOM     13  C5  UNL     1       7.809   9.506  27.394  0.00  0.00    +0.025 A 
ATOM     14  C6  UNL     1       7.398   9.160  28.690  0.00  0.00    +0.035 A 
ATOM     15  C18 UNL     1       7.375  10.147  29.682  0.00  0.00    +0.025 A 
ATOM     16  C19 UNL     1       7.796  11.450  29.401  0.00  0.00    +0.025 A 
BRANCH  11  18
ATOM     17  C1  UNL     1       7.700  14.190  27.437  0.00  0.00    +0.129 C 
ATOM     18  N1  UNL     1       8.673  13.155  27.811  0.00  0.00    -0.336 N 
ATOM     19  C2  UNL     1      10.096  13.514  27.878  0.00  0.00    +0.129 C 
ENDBRANCH  11  18
ENDBRANCH   1  14
BRANCH   7  20
ATOM     20  N4  UNL     1       6.287   1.673  31.394  0.00  0.00    -0.310 NA
ATOM     21  H15 UNL     1       5.408   1.142  31.189  0.00  0.00    +0.122 HD
BRANCH  20  22
ATOM     22  C11 UNL     1       7.426   0.734  31.389  0.00  0.00    +0.054 C 
ATOM     23  C12 UNL     1       7.764   0.289  32.809  0.00  0.00    +0.019 C 
ATOM     24  C13 UNL     1       8.259  -1.154  32.705  0.00  0.00    +0.002 C 
ATOM     25  C14 UNL     1       8.040  -1.600  31.263  0.00  0.00    +0.002 C 
ATOM     26  C15 UNL     1       7.133  -0.559  30.629  0.00  0.00    +0.019 C 
ENDBRANCH  20  22
ENDBRANCH   7  20
TORSDOF 4
ENDMDL
MODEL 4
REMARK VINA RESULT:    -5.969      1.747      1.909
REMARK INTER + INTRA:          -7.879
REMARK INTER:                  -7.374
REMARK INTRA:                  -0.506
REMARK UNBOUND:                -0.514
REMARK  Name = /home/qwerty/github/datacon2025hack/step_04_hit_selection/docking/ligands/lig_360.pdb
REMARK  6 active torsions:
REMARK  status: ('A' for Active; 'I' for Inactive)
REMARK    1  A    between atoms: C1_1  and  N1_2
REMARK    2  A    between atoms: N1_2  and  C2_3
REMARK    3  A    between atoms: N1_2  and  C3_4
REMARK    4  A    between atoms: C6_7  and  N2_8
REMARK    5  A    between atoms: C10_14  and  N4_15
REMARK    6  A    between atoms: N4_15  and  C11_16
REMARK                            x       y       z     vdW  Elec       q    Type
REMARK                         _______ _______ _______ _____ _____    ______ ____
ROOT
ATOM      1  N2  UNL     1      21.147   3.404  23.788  0.00  0.00    -0.269 N 
ATOM      2  C7  UNL     1      20.159   4.422  23.535  0.00  0.00    +0.306 C 
ATOM      3  O1  UNL     1      19.487   4.899  24.488  0.00  0.00    -0.252 OA
ATOM      4  N3  UNL     1      19.937   4.919  22.202  0.00  0.00    -0.285 N 
ATOM      5  C8  UNL     1      21.026   4.949  21.217  0.00  0.00    +0.111 C 
ATOM      6  C9  UNL     1      20.897   6.175  20.308  0.00  0.00    +0.038 C 
ATOM      7  C10 UNL     1      19.486   6.279  19.693  0.00  0.00    +0.057 C 
ATOM      8  C16 UNL     1      18.444   6.317  20.826  0.00  0.00    +0.038 C 
ATOM      9  C17 UNL     1      18.560   5.080  21.721  0.00  0.00    +0.111 C 
ATOM     10  H9  UNL     1      21.812   3.144  23.028  0.00  0.00    +0.156 HD
ENDROOT
BRANCH   1  14
ATOM     11  C3  UNL     1      21.755   1.479  27.551  0.00  0.00    +0.029 A 
ATOM     12  C4  UNL     1      20.716   1.063  26.692  0.00  0.00    +0.025 A 
ATOM     13  C5  UNL     1      20.508   1.691  25.461  0.00  0.00    +0.025 A 
ATOM     14  C6  UNL     1      21.324   2.760  25.061  0.00  0.00    +0.035 A 
ATOM     15  C18 UNL     1      22.374   3.163  25.895  0.00  0.00    +0.025 A 
ATOM     16  C19 UNL     1      22.584   2.539  27.127  0.00  0.00    +0.025 A 
BRANCH  11  18
ATOM     17  C1  UNL     1      22.574  -0.512  28.894  0.00  0.00    +0.129 C 
ATOM     18  N1  UNL     1      21.971   0.826  28.830  0.00  0.00    -0.336 N 
ATOM     19  C2  UNL     1      21.591   1.492  30.083  0.00  0.00    +0.129 C 
ENDBRANCH  11  18
ENDBRANCH   1  14
BRANCH   7  20
ATOM     20  N4  UNL     1      19.372   7.504  18.874  0.00  0.00    -0.310 NA
ATOM     21  H15 UNL     1      18.753   7.340  18.046  0.00  0.00    +0.122 HD
BRANCH  20  22
ATOM     22  C11 UNL     1      18.852   8.654  19.641  0.00  0.00    +0.054 C 
ATOM     23  C12 UNL     1      19.762   9.868  19.476  0.00  0.00    +0.019 C 
ATOM     24  C13 UNL     1      18.856  11.098  19.521  0.00  0.00    +0.002 C 
ATOM     25  C14 UNL     1      17.415  10.593  19.530  0.00  0.00    +0.002 C 
ATOM     26  C15 UNL     1      17.478   9.121  19.162  0.00  0.00    +0.019 C 
ENDBRANCH  20  22
ENDBRANCH   7  20
TORSDOF 4
ENDMDL
MODEL 5
REMARK VINA RESULT:    -5.920      3.061     10.258
REMARK INTER + INTRA:          -7.819
REMARK INTER:                  -7.245
REMARK INTRA:                  -0.573
REMARK UNBOUND:                -0.514
REMARK  Name = /home/qwerty/github/datacon2025hack/step_04_hit_selection/docking/ligands/lig_360.pdb
REMARK  6 active torsions:
REMARK  status: ('A' for Active; 'I' for Inactive)
REMARK    1  A    between atoms: C1_1  and  N1_2
REMARK    2  A    between atoms: N1_2  and  C2_3
REMARK    3  A    between atoms: N1_2  and  C3_4
REMARK    4  A    between atoms: C6_7  and  N2_8
REMARK    5  A    between atoms: C10_14  and  N4_15
REMARK    6  A    between atoms: N4_15  and  C11_16
REMARK                            x       y       z     vdW  Elec       q    Type
REMARK                         _______ _______ _______ _____ _____    ______ ____
ROOT
ATOM      1  N2  UNL     1      21.109   4.446  25.166  0.00  0.00    -0.269 N 
ATOM      2  C7  UNL     1      21.877   3.418  25.822  0.00  0.00    +0.306 C 
ATOM      3  O1  UNL     1      22.905   2.948  25.264  0.00  0.00    -0.252 OA
ATOM      4  N3  UNL     1      21.497   2.928  27.121  0.00  0.00    -0.285 N 
ATOM      5  C8  UNL     1      20.803   3.796  28.081  0.00  0.00    +0.111 C 
ATOM      6  C9  UNL     1      21.243   3.475  29.513  0.00  0.00    +0.038 C 
ATOM      7  C10 UNL     1      21.121   1.968  29.820  0.00  0.00    +0.057 C 
ATOM      8  C16 UNL     1      21.952   1.175  28.793  0.00  0.00    +0.038 C 
ATOM      9  C17 UNL     1      21.497   1.480  27.365  0.00  0.00    +0.111 C 
ATOM     10  H9  UNL     1      20.369   4.946  25.706  0.00  0.00    +0.156 HD
ENDROOT
BRANCH   1  14
ATOM     11  C3  UNL     1      21.789   5.821  21.181  0.00  0.00    +0.029 A 
ATOM     12  C4  UNL     1      20.856   4.793  21.436  0.00  0.00    +0.025 A 
ATOM     13  C5  UNL     1      20.631   4.335  22.737  0.00  0.00    +0.025 A 
ATOM     14  C6  UNL     1      21.342   4.881  23.816  0.00  0.00    +0.035 A 
ATOM     15  C18 UNL     1      22.250   5.919  23.577  0.00  0.00    +0.025 A 
ATOM     16  C19 UNL     1      22.480   6.379  22.278  0.00  0.00    +0.025 A 
BRANCH  11  18
ATOM     17  C1  UNL     1      23.357   6.754  19.419  0.00  0.00    +0.129 C 
ATOM     18  N1  UNL     1      22.023   6.297  19.830  0.00  0.00    -0.336 N 
ATOM     19  C2  UNL     1      20.930   6.330  18.849  0.00  0.00    +0.129 C 
ENDBRANCH  11  18
ENDBRANCH   1  14
BRANCH   7  20
ATOM     20  N4  UNL     1      21.612   1.681  31.184  0.00  0.00    -0.310 NA
ATOM     21  H15 UNL     1      21.819   2.569  31.698  0.00  0.00    +0.122 HD
BRANCH  20  22
ATOM     22  C11 UNL     1      20.656   0.880  31.974  0.00  0.00    +0.054 C 
ATOM     23  C12 UNL     1      20.166   1.668  33.186  0.00  0.00    +0.019 C 
ATOM     24  C13 UNL     1      18.720   1.237  33.428  0.00  0.00    +0.002 C 
ATOM     25  C14 UNL     1      18.317   0.343  32.259  0.00  0.00    +0.002 C 
ATOM     26  C15 UNL     1      19.389   0.522  31.198  0.00  0.00    +0.019 C 
ENDBRANCH  20  22
ENDBRANCH   7  20
TORSDOF 4
ENDMDL
MODEL 6
REMARK VINA RESULT:    -5.763     14.638     15.391
REMARK INTER + INTRA:          -7.625
REMARK INTER:                  -7.032
REMARK INTRA:                  -0.593
REMARK UNBOUND:                -0.514
REMARK  Name = /home/qwerty/github/datacon2025hack/step_04_hit_selection/docking/ligands/lig_360.pdb
REMARK  6 active torsions:
REMARK  status: ('A' for Active; 'I' for Inactive)
REMARK    1  A    between atoms: C1_1  and  N1_2
REMARK    2  A    between atoms: N1_2  and  C2_3
REMARK    3  A    between atoms: N1_2  and  C3_4
REMARK    4  A    between atoms: C6_7  and  N2_8
REMARK    5  A    between atoms: C10_14  and  N4_15
REMARK    6  A    between atoms: N4_15  and  C11_16
REMARK                            x       y       z     vdW  Elec       q    Type
REMARK                         _______ _______ _______ _____ _____    ______ ____
ROOT
ATOM      1  N2  UNL     1       6.688   6.343  28.188  0.00  0.00    -0.269 N 
ATOM      2  C7  UNL     1       7.675   7.075  28.940  0.00  0.00    +0.306 C 
ATOM      3  O1  UNL     1       8.504   6.457  29.661  0.00  0.00    -0.252 OA
ATOM      4  N3  UNL     1       7.741   8.512  28.868  0.00  0.00    -0.285 N 
ATOM      5  C8  UNL     1       7.333   9.225  27.651  0.00  0.00    +0.111 C 
ATOM      6  C9  UNL     1       8.211  10.461  27.432  0.00  0.00    +0.038 C 
ATOM      7  C10 UNL     1       8.270  11.346  28.694  0.00  0.00    +0.057 C 
ATOM      8  C16 UNL     1       8.783  10.505  29.877  0.00  0.00    +0.038 C 
ATOM      9  C17 UNL     1       7.893   9.282  30.109  0.00  0.00    +0.111 C 
ATOM     10  H9  UNL     1       6.126   6.845  27.467  0.00  0.00    +0.156 HD
ENDROOT
BRANCH   1  14
ATOM     11  C3  UNL     1       6.047   2.148  28.664  0.00  0.00    +0.029 A 
ATOM     12  C4  UNL     1       7.034   2.626  27.777  0.00  0.00    +0.025 A 
ATOM     13  C5  UNL     1       7.247   3.998  27.613  0.00  0.00    +0.025 A 
ATOM     14  C6  UNL     1       6.470   4.928  28.319  0.00  0.00    +0.035 A 
ATOM     15  C18 UNL     1       5.506   4.462  29.222  0.00  0.00    +0.025 A 
ATOM     16  C19 UNL     1       5.289   3.092  29.388  0.00  0.00    +0.025 A 
BRANCH  11  18
ATOM     17  C1  UNL     1       5.892   0.111  30.168  0.00  0.00    +0.129 C 
ATOM     18  N1  UNL     1       5.826   0.723  28.835  0.00  0.00    -0.336 N 
ATOM     19  C2  UNL     1       5.532  -0.132  27.678  0.00  0.00    +0.129 C 
ENDBRANCH  11  18
ENDBRANCH   1  14
BRANCH   7  20
ATOM     20  N4  UNL     1       9.173  12.495  28.474  0.00  0.00    -0.310 NA
ATOM     21  H15 UNL     1       9.604  12.451  27.521  0.00  0.00    +0.122 HD
BRANCH  20  22
ATOM     22  C11 UNL     1       8.487  13.794  28.629  0.00  0.00    +0.054 C 
ATOM     23  C12 UNL     1       7.739  14.165  27.352  0.00  0.00    +0.019 C 
ATOM     24  C13 UNL     1       6.491  14.933  27.788  0.00  0.00    +0.002 C 
ATOM     25  C14 UNL     1       6.424  14.851  29.311  0.00  0.00    +0.002 C 
ATOM     26  C15 UNL     1       7.420  13.781  29.723  0.00  0.00    +0.019 C 
ENDBRANCH  20  22
ENDBRANCH   7  20
TORSDOF 4
ENDMDL
MODEL 7
REMARK VINA RESULT:    -5.657      9.159     12.942
REMARK INTER + INTRA:          -7.494
REMARK INTER:                  -6.902
REMARK INTRA:                  -0.592
REMARK UNBOUND:                -0.514
REMARK  Name = /home/qwerty/github/datacon2025hack/step_04_hit_selection/docking/ligands/lig_360.pdb
REMARK  6 active torsions:
REMARK  status: ('A' for Active; 'I' for Inactive)
REMARK    1  A    between atoms: C1_1  and  N1_2
REMARK    2  A    between atoms: N1_2  and  C2_3
REMARK    3  A    between atoms: N1_2  and  C3_4
REMARK    4  A    between atoms: C6_7  and  N2_8
REMARK    5  A    between atoms: C10_14  and  N4_15
REMARK    6  A    between atoms: N4_15  and  C11_16
REMARK                            x       y       z     vdW  Elec       q    Type
REMARK                         _______ _______ _______ _____ _____    ______ ____
ROOT
ATOM      1  N2  UNL     1      10.966   4.917  21.270  0.00  0.00    -0.269 N 
ATOM      2  C7  UNL     1      12.400   4.800  21.202  0.00  0.00    +0.306 C 
ATOM      3  O1  UNL     1      13.127   5.780  21.520  0.00  0.00    -0.252 OA
ATOM      4  N3  UNL     1      13.022   3.568  20.792  0.00  0.00    -0.285 N 
ATOM      5  C8  UNL     1      12.375   2.276  21.047  0.00  0.00    +0.111 C 
ATOM      6  C9  UNL     1      13.422   1.200  21.353  0.00  0.00    +0.038 C 
ATOM      7  C10 UNL     1      14.522   1.154  20.272  0.00  0.00    +0.057 C 
ATOM      8  C16 UNL     1      15.173   2.545  20.156  0.00  0.00    +0.038 C 
ATOM      9  C17 UNL     1      14.129   3.615  19.828  0.00  0.00    +0.111 C 
ATOM     10  H9  UNL     1      10.383   4.056  21.174  0.00  0.00    +0.156 HD
ENDROOT
BRANCH   1  14
ATOM     11  C3  UNL     1       8.846   8.533  22.080  0.00  0.00    +0.029 A 
ATOM     12  C4  UNL     1       9.362   8.278  20.791  0.00  0.00    +0.025 A 
ATOM     13  C5  UNL     1      10.060   7.098  20.520  0.00  0.00    +0.025 A 
ATOM     14  C6  UNL     1      10.274   6.149  21.531  0.00  0.00    +0.035 A 
ATOM     15  C18 UNL     1       9.743   6.382  22.806  0.00  0.00    +0.025 A 
ATOM     16  C19 UNL     1       9.046   7.561  23.082  0.00  0.00    +0.025 A 
BRANCH  11  18
ATOM     17  C1  UNL     1       8.020  10.818  21.349  0.00  0.00    +0.129 C 
ATOM     18  N1  UNL     1       8.120   9.759  22.362  0.00  0.00    -0.336 N 
ATOM     19  C2  UNL     1       7.473   9.963  23.664  0.00  0.00    +0.129 C 
ENDBRANCH  11  18
ENDBRANCH   1  14
BRANCH   7  20
ATOM     20  N4  UNL     1      15.549   0.154  20.627  0.00  0.00    -0.310 NA
ATOM     21  H15 UNL     1      16.477   0.413  20.218  0.00  0.00    +0.122 HD
BRANCH  20  22
ATOM     22  C11 UNL     1      15.700  -0.012  22.087  0.00  0.00    +0.054 C 
ATOM     23  C12 UNL     1      15.956  -1.475  22.440  0.00  0.00    +0.019 C 
ATOM     24  C13 UNL     1      16.875  -1.472  23.661  0.00  0.00    +0.002 C 
ATOM     25  C14 UNL     1      17.293  -0.024  23.904  0.00  0.00    +0.002 C 
ATOM     26  C15 UNL     1      16.897   0.747  22.656  0.00  0.00    +0.019 C 
ENDBRANCH  20  22
ENDBRANCH   7  20
TORSDOF 4
ENDMDL
MODEL 8
REMARK VINA RESULT:    -5.592     12.381     13.788
REMARK INTER + INTRA:          -7.413
REMARK INTER:                  -6.790
REMARK INTRA:                  -0.623
REMARK UNBOUND:                -0.514
REMARK  Name = /home/qwerty/github/datacon2025hack/step_04_hit_selection/docking/ligands/lig_360.pdb
REMARK  6 active torsions:
REMARK  status: ('A' for Active; 'I' for Inactive)
REMARK    1  A    between atoms: C1_1  and  N1_2
REMARK    2  A    between atoms: N1_2  and  C2_3
REMARK    3  A    between atoms: N1_2  and  C3_4
REMARK    4  A    between atoms: C6_7  and  N2_8
REMARK    5  A    between atoms: C10_14  and  N4_15
REMARK    6  A    between atoms: N4_15  and  C11_16
REMARK                            x       y       z     vdW  Elec       q    Type
REMARK                         _______ _______ _______ _____ _____    ______ ____
ROOT
ATOM      1  N2  UNL     1      19.649   9.352  36.053  0.00  0.00    -0.269 N 
ATOM      2  C7  UNL     1      18.702  10.157  35.323  0.00  0.00    +0.306 C 
ATOM      3  O1  UNL     1      18.601  10.032  34.073  0.00  0.00    -0.252 OA
ATOM      4  N3  UNL     1      17.851  11.095  36.007  0.00  0.00    -0.285 N 
ATOM      5  C8  UNL     1      17.422  10.855  37.390  0.00  0.00    +0.111 C 
ATOM      6  C9  UNL     1      15.997  11.374  37.610  0.00  0.00    +0.038 C 
ATOM      7  C10 UNL     1      15.849  12.838  37.147  0.00  0.00    +0.057 C 
ATOM      8  C16 UNL     1      16.254  12.942  35.665  0.00  0.00    +0.038 C 
ATOM      9  C17 UNL     1      17.685  12.444  35.450  0.00  0.00    +0.111 C 
ATOM     10  H9  UNL     1      19.604   9.337  37.095  0.00  0.00    +0.156 HD
ENDROOT
BRANCH   1  14
ATOM     11  C3  UNL     1      22.554   6.883  34.130  0.00  0.00    +0.029 A 
ATOM     12  C4  UNL     1      21.337   6.335  34.585  0.00  0.00    +0.025 A 
ATOM     13  C5  UNL     1      20.383   7.136  35.219  0.00  0.00    +0.025 A 
ATOM     14  C6  UNL     1      20.626   8.502  35.428  0.00  0.00    +0.035 A 
ATOM     15  C18 UNL     1      21.820   9.060  34.956  0.00  0.00    +0.025 A 
ATOM     16  C19 UNL     1      22.777   8.263  34.323  0.00  0.00    +0.025 A 
BRANCH  11  18
ATOM     17  C1  UNL     1      23.136   4.868  32.702  0.00  0.00    +0.129 C 
ATOM     18  N1  UNL     1      23.545   6.051  33.471  0.00  0.00    -0.336 N 
ATOM     19  C2  UNL     1      24.975   6.376  33.561  0.00  0.00    +0.129 C 
ENDBRANCH  11  18
ENDBRANCH   1  14
BRANCH   7  20
ATOM     20  N4  UNL     1      14.451  13.290  37.311  0.00  0.00    -0.310 NA
ATOM     21  H15 UNL     1      14.413  14.321  37.491  0.00  0.00    +0.122 HD
BRANCH  20  22
ATOM     22  C11 UNL     1      13.612  12.977  36.138  0.00  0.00    +0.054 C 
ATOM     23  C12 UNL     1      12.537  11.955  36.500  0.00  0.00    +0.019 C 
ATOM     24  C13 UNL     1      11.313  12.293  35.650  0.00  0.00    +0.002 C 
ATOM     25  C14 UNL     1      11.613  13.608  34.934  0.00  0.00    +0.002 C 
ATOM     26  C15 UNL     1      12.843  14.188  35.611  0.00  0.00    +0.019 C 
ENDBRANCH  20  22
ENDBRANCH   7  20
TORSDOF 4
ENDMDL
MODEL 9
REMARK VINA RESULT:    -5.497     12.104     15.046
REMARK INTER + INTRA:          -7.297
REMARK INTER:                  -6.646
REMARK INTRA:                  -0.651
REMARK UNBOUND:                -0.514
REMARK  Name = /home/qwerty/github/datacon2025hack/step_04_hit_selection/docking/ligands/lig_360.pdb
REMARK  6 active torsions:
REMARK  status: ('A' for Active; 'I' for Inactive)
REMARK    1  A    between atoms: C1_1  and  N1_2
REMARK    2  A    between atoms: N1_2  and  C2_3
REMARK    3  A    between atoms: N1_2  and  C3_4
REMARK    4  A    between atoms: C6_7  and  N2_8
REMARK    5  A    between atoms: C10_14  and  N4_15
REMARK    6  A    between atoms: N4_15  and  C11_16
REMARK                            x       y       z     vdW  Elec       q    Type
REMARK                         _______ _______ _______ _____ _____    ______ ____
ROOT
ATOM      1  N2  UNL     1      17.615  11.055  35.960  0.00  0.00    -0.269 N 
ATOM      2  C7  UNL     1      18.024   9.688  36.161  0.00  0.00    +0.306 C 
ATOM      3  O1  UNL     1      17.160   8.771  36.197  0.00  0.00    -0.252 OA
ATOM      4  N3  UNL     1      19.416   9.348  36.304  0.00  0.00    -0.285 N 
ATOM      5  C8  UNL     1      20.459  10.145  35.646  0.00  0.00    +0.111 C 
ATOM      6  C9  UNL     1      21.616   9.250  35.192  0.00  0.00    +0.038 C 
ATOM      7  C10 UNL     1      22.131   8.362  36.343  0.00  0.00    +0.057 C 
ATOM      8  C16 UNL     1      20.963   7.522  36.894  0.00  0.00    +0.038 C 
ATOM      9  C17 UNL     1      19.817   8.419  37.367  0.00  0.00    +0.111 C 
ATOM     10  H9  UNL     1      18.342  11.777  35.759  0.00  0.00    +0.156 HD
ENDROOT
BRANCH   1  14
ATOM     11  C3  UNL     1      13.563  12.399  35.879  0.00  0.00    +0.029 A 
ATOM     12  C4  UNL     1      14.247  12.257  37.105  0.00  0.00    +0.025 A 
ATOM     13  C5  UNL     1      15.572  11.814  37.140  0.00  0.00    +0.025 A 
ATOM     14  C6  UNL     1      16.244  11.487  35.952  0.00  0.00    +0.035 A 
ATOM     15  C18 UNL     1      15.582  11.650  34.730  0.00  0.00    +0.025 A 
ATOM     16  C19 UNL     1      14.257  12.092  34.691  0.00  0.00    +0.025 A 
BRANCH  11  18
ATOM     17  C1  UNL     1      11.171  12.247  36.710  0.00  0.00    +0.129 C 
ATOM     18  N1  UNL     1      12.187  12.860  35.844  0.00  0.00    -0.336 N 
ATOM     19  C2  UNL     1      11.784  13.947  34.941  0.00  0.00    +0.129 C 
ENDBRANCH  11  18
ENDBRANCH   1  14
BRANCH   7  20
ATOM     20  N4  UNL     1      23.202   7.465  35.860  0.00  0.00    -0.310 NA
ATOM     21  H15 UNL     1      23.192   6.559  36.384  0.00  0.00    +0.122 HD
BRANCH  20  22
ATOM     22  C11 UNL     1      23.097   7.183  34.414  0.00  0.00    +0.054 C 
ATOM     23  C12 UNL     1      24.454   7.344  33.734  0.00  0.00    +0.019 C 
ATOM     24  C13 UNL     1      24.496   6.316  32.603  0.00  0.00    +0.002 C 
ATOM     25  C14 UNL     1      23.249   5.447  32.740  0.00  0.00    +0.002 C 
ATOM     26  C15 UNL     1      22.671   5.747  34.113  0.00  0.00    +0.019 C 
ENDBRANCH  20  22
ENDBRANCH   7  20
TORSDOF 4
ENDMDL
