MODEL 1
REMARK VINA RESULT:    -6.488      0.000      0.000
REMARK INTER + INTRA:          -8.918
REMARK INTER:                  -7.626
REMARK INTRA:                  -1.291
REMARK UNBOUND:                -1.291
REMARK  Name = /home/qwerty/github/datacon2025hack/step_04_hit_selection/docking/ligands/lig_720.pdb
REMARK  3 active torsions:
REMARK  status: ('A' for Active; 'I' for Inactive)
REMARK    1  A    between atoms: C1_2  and  C20_25
REMARK    2  A    between atoms: N1_3  and  C2_4
REMARK    3  A    between atoms: C9_12  and  C10_13
REMARK                            x       y       z     vdW  Elec       q    Type
REMARK                         _______ _______ _______ _____ _____    ______ ____
ROOT
ATOM      1  C2  UNL     1       8.055   7.394  26.318  0.00  0.00    +0.042 A 
ATOM      2  C3  UNL     1       7.563   6.285  27.019  0.00  0.00    +0.024 A 
ATOM      3  C4  UNL     1       7.077   6.419  28.317  0.00  0.00    +0.002 A 
ATOM      4  C5  UNL     1       7.087   7.662  28.941  0.00  0.00    +0.010 A 
ATOM      5  C6  UNL     1       7.543   8.795  28.254  0.00  0.00    +0.003 A 
ATOM      6  C7  UNL     1       7.553  10.036  28.900  0.00  0.00    +0.119 A 
ATOM      7  N2  UNL     1       7.965  11.146  28.242  0.00  0.00    -0.262 NA
ATOM      8  C8  UNL     1       8.358  11.106  26.946  0.00  0.00    +0.119 A 
ATOM      9  C9  UNL     1       8.355   9.898  26.230  0.00  0.00    +0.010 A 
ATOM     10  C19 UNL     1       7.993   8.693  26.906  0.00  0.00    +0.014 A 
ENDROOT
BRANCH   9  11
ATOM     11  C10 UNL     1       8.633   9.978  24.779  0.00  0.00    -0.015 A 
ATOM     12  C11 UNL     1       7.575  10.048  23.858  0.00  0.00    +0.010 A 
ATOM     13  C12 UNL     1       7.834  10.115  22.487  0.00  0.00    +0.027 A 
ATOM     14  C13 UNL     1       9.155  10.137  22.017  0.00  0.00    +0.049 A 
ATOM     15  N3  UNL     1       9.417  10.187  20.678  0.00  0.00    -0.322 N 
ATOM     16  C14 UNL     1      10.695  10.206  20.204  0.00  0.00    +0.249 A 
ATOM     17  O2  UNL     1      10.905  10.248  18.962  0.00  0.00    -0.268 OA
ATOM     18  C15 UNL     1      11.776  10.179  21.090  0.00  0.00    +0.071 A 
ATOM     19  C16 UNL     1      11.538  10.131  22.464  0.00  0.00    +0.015 A 
ATOM     20  C17 UNL     1      10.224  10.106  22.943  0.00  0.00    -0.001 A 
ATOM     21  C18 UNL     1       9.957  10.037  24.317  0.00  0.00    +0.018 A 
ATOM     22  H9  UNL     1       8.625  10.208  19.995  0.00  0.00    +0.169 HD
ENDBRANCH   9  11
BRANCH   1  25
ATOM     23  O1  UNL     1      10.663   6.359  25.991  0.00  0.00    -0.275 OA
ATOM     24  C1  UNL     1      10.001   6.612  24.946  0.00  0.00    +0.220 C 
ATOM     25  N1  UNL     1       8.675   7.146  25.050  0.00  0.00    -0.285 N 
ATOM     26  H1  UNL     1       8.071   7.152  24.197  0.00  0.00    +0.155 HD
BRANCH  24  27
ATOM     27  C20 UNL     1      10.586   6.364  23.580  0.00  0.00    +0.075 C 
ATOM     28  C21 UNL     1      10.111   5.108  22.862  0.00  0.00    +0.013 C 
ATOM     29  C22 UNL     1       9.604   6.474  22.423  0.00  0.00    +0.013 C 
ENDBRANCH  24  27
ENDBRANCH   1  25
TORSDOF 3
ENDMDL
MODEL 2
REMARK VINA RESULT:    -6.307     14.104     15.527
REMARK INTER + INTRA:          -8.705
REMARK INTER:                  -7.753
REMARK INTRA:                  -0.952
REMARK UNBOUND:                -1.291
REMARK  Name = /home/qwerty/github/datacon2025hack/step_04_hit_selection/docking/ligands/lig_720.pdb
REMARK  3 active torsions:
REMARK  status: ('A' for Active; 'I' for Inactive)
REMARK    1  A    between atoms: C1_2  and  C20_25
REMARK    2  A    between atoms: N1_3  and  C2_4
REMARK    3  A    between atoms: C9_12  and  C10_13
REMARK                            x       y       z     vdW  Elec       q    Type
REMARK                         _______ _______ _______ _____ _____    ______ ____
ROOT
ATOM      1  C2  UNL     1      20.128   4.909  33.978  0.00  0.00    +0.042 A 
ATOM      2  C3  UNL     1      19.253   5.383  34.965  0.00  0.00    +0.024 A 
ATOM      3  C4  UNL     1      19.705   6.228  35.974  0.00  0.00    +0.002 A 
ATOM      4  C5  UNL     1      21.043   6.605  36.022  0.00  0.00    +0.010 A 
ATOM      5  C6  UNL     1      21.935   6.173  35.030  0.00  0.00    +0.003 A 
ATOM      6  C7  UNL     1      23.280   6.555  35.098  0.00  0.00    +0.119 A 
ATOM      7  N2  UNL     1      24.150   6.169  34.135  0.00  0.00    -0.262 NA
ATOM      8  C8  UNL     1      23.757   5.428  33.071  0.00  0.00    +0.119 A 
ATOM      9  C9  UNL     1      22.420   5.025  32.929  0.00  0.00    +0.010 A 
ATOM     10  C19 UNL     1      21.485   5.353  33.957  0.00  0.00    +0.014 A 
ENDROOT
BRANCH   9  11
ATOM     11  C10 UNL     1      22.049   4.370  31.655  0.00  0.00    -0.015 A 
ATOM     12  C11 UNL     1      21.442   5.109  30.628  0.00  0.00    +0.010 A 
ATOM     13  C12 UNL     1      21.084   4.491  29.427  0.00  0.00    +0.027 A 
ATOM     14  C13 UNL     1      21.348   3.128  29.227  0.00  0.00    +0.049 A 
ATOM     15  N3  UNL     1      20.987   2.513  28.063  0.00  0.00    -0.322 N 
ATOM     16  C14 UNL     1      21.234   1.189  27.853  0.00  0.00    +0.249 A 
ATOM     17  O2  UNL     1      20.885   0.648  26.769  0.00  0.00    -0.268 OA
ATOM     18  C15 UNL     1      21.873   0.427  28.835  0.00  0.00    +0.071 A 
ATOM     19  C16 UNL     1      22.257   1.030  30.033  0.00  0.00    +0.015 A 
ATOM     20  C17 UNL     1      21.995   2.388  30.244  0.00  0.00    -0.001 A 
ATOM     21  C18 UNL     1      22.351   3.014  31.447  0.00  0.00    +0.018 A 
ATOM     22  H9  UNL     1      20.507   3.062  27.313  0.00  0.00    +0.169 HD
ENDBRANCH   9  11
BRANCH   1  25
ATOM     23  O1  UNL     1      19.673   2.202  34.643  0.00  0.00    -0.275 OA
ATOM     24  C1  UNL     1      19.402   2.566  33.465  0.00  0.00    +0.220 C 
ATOM     25  N1  UNL     1      19.620   3.926  33.068  0.00  0.00    -0.285 N 
ATOM     26  H1  UNL     1      19.202   4.257  32.169  0.00  0.00    +0.155 HD
BRANCH  24  27
ATOM     27  C20 UNL     1      18.853   1.588  32.459  0.00  0.00    +0.075 C 
ATOM     28  C21 UNL     1      19.607   0.273  32.318  0.00  0.00    +0.013 C 
ATOM     29  C22 UNL     1      18.270   0.311  33.044  0.00  0.00    +0.013 C 
ENDBRANCH  24  27
ENDBRANCH   1  25
TORSDOF 3
ENDMDL
MODEL 3
REMARK VINA RESULT:    -6.291     14.441     16.434
REMARK INTER + INTRA:          -8.686
REMARK INTER:                  -7.753
REMARK INTRA:                  -0.933
REMARK UNBOUND:                -1.291
REMARK  Name = /home/qwerty/github/datacon2025hack/step_04_hit_selection/docking/ligands/lig_720.pdb
REMARK  3 active torsions:
REMARK  status: ('A' for Active; 'I' for Inactive)
REMARK    1  A    between atoms: C1_2  and  C20_25
REMARK    2  A    between atoms: N1_3  and  C2_4
REMARK    3  A    between atoms: C9_12  and  C10_13
REMARK                            x       y       z     vdW  Elec       q    Type
REMARK                         _______ _______ _______ _____ _____    ______ ____
ROOT
ATOM      1  C2  UNL     1      21.415   8.038  36.705  0.00  0.00    +0.042 A 
ATOM      2  C3  UNL     1      22.122   7.072  37.435  0.00  0.00    +0.024 A 
ATOM      3  C4  UNL     1      23.231   6.434  36.889  0.00  0.00    +0.002 A 
ATOM      4  C5  UNL     1      23.647   6.740  35.598  0.00  0.00    +0.010 A 
ATOM      5  C6  UNL     1      22.980   7.724  34.855  0.00  0.00    +0.003 A 
ATOM      6  C7  UNL     1      23.407   8.015  33.554  0.00  0.00    +0.119 A 
ATOM      7  N2  UNL     1      22.792   8.981  32.831  0.00  0.00    -0.262 NA
ATOM      8  C8  UNL     1      21.768   9.711  33.338  0.00  0.00    +0.119 A 
ATOM      9  C9  UNL     1      21.301   9.486  34.642  0.00  0.00    +0.010 A 
ATOM     10  C19 UNL     1      21.877   8.431  35.412  0.00  0.00    +0.014 A 
ENDROOT
BRANCH   9  11
ATOM     11  C10 UNL     1      20.301  10.442  35.169  0.00  0.00    -0.015 A 
ATOM     12  C11 UNL     1      20.689  11.452  36.063  0.00  0.00    +0.010 A 
ATOM     13  C12 UNL     1      19.745  12.351  36.568  0.00  0.00    +0.027 A 
ATOM     14  C13 UNL     1      18.403  12.264  36.170  0.00  0.00    +0.049 A 
ATOM     15  N3  UNL     1      17.472  13.128  36.671  0.00  0.00    -0.322 N 
ATOM     16  C14 UNL     1      16.163  13.057  36.297  0.00  0.00    +0.249 A 
ATOM     17  O2  UNL     1      15.325  13.866  36.780  0.00  0.00    -0.268 OA
ATOM     18  C15 UNL     1      15.744  12.090  35.378  0.00  0.00    +0.071 A 
ATOM     19  C16 UNL     1      16.675  11.197  34.847  0.00  0.00    +0.015 A 
ATOM     20  C17 UNL     1      18.015  11.272  35.240  0.00  0.00    -0.001 A 
ATOM     21  C18 UNL     1      18.966  10.373  34.738  0.00  0.00    +0.018 A 
ATOM     22  H9  UNL     1      17.760  13.861  37.359  0.00  0.00    +0.169 HD
ENDBRANCH   9  11
BRANCH   1  25
ATOM     23  O1  UNL     1      18.984   6.602  36.785  0.00  0.00    -0.275 OA
ATOM     24  C1  UNL     1      18.996   7.755  37.297  0.00  0.00    +0.220 C 
ATOM     25  N1  UNL     1      20.200   8.534  37.279  0.00  0.00    -0.285 N 
ATOM     26  H1  UNL     1      20.252   9.387  37.881  0.00  0.00    +0.155 HD
BRANCH  24  27
ATOM     27  C20 UNL     1      17.758   8.336  37.928  0.00  0.00    +0.075 C 
ATOM     28  C21 UNL     1      16.563   8.535  37.006  0.00  0.00    +0.013 C 
ATOM     29  C22 UNL     1      16.567   7.393  38.012  0.00  0.00    +0.013 C 
ENDBRANCH  24  27
ENDBRANCH   1  25
TORSDOF 3
ENDMDL
MODEL 4
REMARK VINA RESULT:    -6.160     12.689     15.377
REMARK INTER + INTRA:          -8.532
REMARK INTER:                  -7.739
REMARK INTRA:                  -0.792
REMARK UNBOUND:                -1.291
REMARK  Name = /home/qwerty/github/datacon2025hack/step_04_hit_selection/docking/ligands/lig_720.pdb
REMARK  3 active torsions:
REMARK  status: ('A' for Active; 'I' for Inactive)
REMARK    1  A    between atoms: C1_2  and  C20_25
REMARK    2  A    between atoms: N1_3  and  C2_4
REMARK    3  A    between atoms: C9_12  and  C10_13
REMARK                            x       y       z     vdW  Elec       q    Type
REMARK                         _______ _______ _______ _____ _____    ______ ____
ROOT
ATOM      1  C2  UNL     1      15.968  13.207  36.588  0.00  0.00    +0.042 A 
ATOM      2  C3  UNL     1      15.682  14.573  36.716  0.00  0.00    +0.024 A 
ATOM      3  C4  UNL     1      14.421  15.071  36.405  0.00  0.00    +0.002 A 
ATOM      4  C5  UNL     1      13.425  14.215  35.948  0.00  0.00    +0.010 A 
ATOM      5  C6  UNL     1      13.671  12.839  35.840  0.00  0.00    +0.003 A 
ATOM      6  C7  UNL     1      12.660  11.992  35.370  0.00  0.00    +0.119 A 
ATOM      7  N2  UNL     1      12.871  10.657  35.285  0.00  0.00    -0.262 NA
ATOM      8  C8  UNL     1      14.042  10.092  35.665  0.00  0.00    +0.119 A 
ATOM      9  C9  UNL     1      15.093  10.879  36.163  0.00  0.00    +0.010 A 
ATOM     10  C19 UNL     1      14.936  12.297  36.205  0.00  0.00    +0.014 A 
ENDROOT
BRANCH   9  11
ATOM     11  C10 UNL     1      16.265  10.161  36.713  0.00  0.00    -0.015 A 
ATOM     12  C11 UNL     1      16.609  10.300  38.067  0.00  0.00    +0.010 A 
ATOM     13  C12 UNL     1      17.720   9.630  38.587  0.00  0.00    +0.027 A 
ATOM     14  C13 UNL     1      18.490   8.795  37.765  0.00  0.00    +0.049 A 
ATOM     15  N3  UNL     1      19.586   8.149  38.261  0.00  0.00    -0.322 N 
ATOM     16  C14 UNL     1      20.347   7.334  37.476  0.00  0.00    +0.249 A 
ATOM     17  O2  UNL     1      21.356   6.755  37.961  0.00  0.00    -0.268 OA
ATOM     18  C15 UNL     1      20.013   7.138  36.133  0.00  0.00    +0.071 A 
ATOM     19  C16 UNL     1      18.896   7.782  35.600  0.00  0.00    +0.015 A 
ATOM     20  C17 UNL     1      18.124   8.621  36.410  0.00  0.00    -0.001 A 
ATOM     21  C18 UNL     1      17.009   9.297  35.894  0.00  0.00    +0.018 A 
ATOM     22  H9  UNL     1      19.856   8.279  39.263  0.00  0.00    +0.169 HD
ENDBRANCH   9  11
BRANCH   1  25
ATOM     23  O1  UNL     1      17.963  13.308  34.592  0.00  0.00    -0.275 OA
ATOM     24  C1  UNL     1      18.300  12.881  35.731  0.00  0.00    +0.220 C 
ATOM     25  N1  UNL     1      17.328  12.800  36.781  0.00  0.00    -0.285 N 
ATOM     26  H1  UNL     1      17.661  12.647  37.759  0.00  0.00    +0.155 HD
BRANCH  24  27
ATOM     27  C20 UNL     1      19.716  12.447  36.009  0.00  0.00    +0.075 C 
ATOM     28  C21 UNL     1      20.169  11.159  35.336  0.00  0.00    +0.013 C 
ATOM     29  C22 UNL     1      20.659  12.502  34.816  0.00  0.00    +0.013 C 
ENDBRANCH  24  27
ENDBRANCH   1  25
TORSDOF 3
ENDMDL
MODEL 5
REMARK VINA RESULT:    -6.141     11.028     14.066
REMARK INTER + INTRA:          -8.509
REMARK INTER:                  -7.593
REMARK INTRA:                  -0.916
REMARK UNBOUND:                -1.291
REMARK  Name = /home/qwerty/github/datacon2025hack/step_04_hit_selection/docking/ligands/lig_720.pdb
REMARK  3 active torsions:
REMARK  status: ('A' for Active; 'I' for Inactive)
REMARK    1  A    between atoms: C1_2  and  C20_25
REMARK    2  A    between atoms: N1_3  and  C2_4
REMARK    3  A    between atoms: C9_12  and  C10_13
REMARK                            x       y       z     vdW  Elec       q    Type
REMARK                         _______ _______ _______ _____ _____    ______ ____
ROOT
ATOM      1  C2  UNL     1      18.077   2.521  23.954  0.00  0.00    +0.042 A 
ATOM      2  C3  UNL     1      17.525   3.332  22.953  0.00  0.00    +0.024 A 
ATOM      3  C4  UNL     1      16.752   2.783  21.934  0.00  0.00    +0.002 A 
ATOM      4  C5  UNL     1      16.527   1.411  21.891  0.00  0.00    +0.010 A 
ATOM      5  C6  UNL     1      17.038   0.579  22.896  0.00  0.00    +0.003 A 
ATOM      6  C7  UNL     1      16.809  -0.800  22.833  0.00  0.00    +0.119 A 
ATOM      7  N2  UNL     1      17.273  -1.617  23.809  0.00  0.00    -0.262 NA
ATOM      8  C8  UNL     1      17.949  -1.137  24.882  0.00  0.00    +0.119 A 
ATOM      9  C9  UNL     1      18.198   0.237  25.019  0.00  0.00    +0.010 A 
ATOM     10  C19 UNL     1      17.786   1.124  23.979  0.00  0.00    +0.014 A 
ENDROOT
BRANCH   9  11
ATOM     11  C10 UNL     1      18.787   0.686  26.301  0.00  0.00    -0.015 A 
ATOM     12  C11 UNL     1      17.961   1.158  27.333  0.00  0.00    +0.010 A 
ATOM     13  C12 UNL     1      18.515   1.590  28.542  0.00  0.00    +0.027 A 
ATOM     14  C13 UNL     1      19.902   1.535  28.742  0.00  0.00    +0.049 A 
ATOM     15  N3  UNL     1      20.453   1.970  29.913  0.00  0.00    -0.322 N 
ATOM     16  C14 UNL     1      21.799   1.927  30.125  0.00  0.00    +0.249 A 
ATOM     17  O2  UNL     1      22.279   2.340  31.215  0.00  0.00    -0.268 OA
ATOM     18  C15 UNL     1      22.652   1.427  29.136  0.00  0.00    +0.071 A 
ATOM     19  C16 UNL     1      22.116   0.972  27.931  0.00  0.00    +0.015 A 
ATOM     20  C17 UNL     1      20.734   1.025  27.719  0.00  0.00    -0.001 A 
ATOM     21  C18 UNL     1      20.172   0.594  26.509  0.00  0.00    +0.018 A 
ATOM     22  H9  UNL     1      19.836   2.349  30.668  0.00  0.00    +0.169 HD
ENDBRANCH   9  11
BRANCH   1  25
ATOM     23  O1  UNL     1      20.684   3.385  23.294  0.00  0.00    -0.275 OA
ATOM     24  C1  UNL     1      20.293   3.566  24.481  0.00  0.00    +0.220 C 
ATOM     25  N1  UNL     1      18.982   3.141  24.876  0.00  0.00    -0.285 N 
ATOM     26  H1  UNL     1      18.600   3.481  25.787  0.00  0.00    +0.155 HD
BRANCH  24  27
ATOM     27  C20 UNL     1      21.188   4.222  25.500  0.00  0.00    +0.075 C 
ATOM     28  C21 UNL     1      22.589   3.642  25.638  0.00  0.00    +0.013 C 
ATOM     29  C22 UNL     1      22.382   4.973  24.929  0.00  0.00    +0.013 C 
ENDBRANCH  24  27
ENDBRANCH   1  25
TORSDOF 3
ENDMDL
MODEL 6
REMARK VINA RESULT:    -6.095      2.768      6.049
REMARK INTER + INTRA:          -8.455
REMARK INTER:                  -7.534
REMARK INTRA:                  -0.921
REMARK UNBOUND:                -1.291
REMARK  Name = /home/qwerty/github/datacon2025hack/step_04_hit_selection/docking/ligands/lig_720.pdb
REMARK  3 active torsions:
REMARK  status: ('A' for Active; 'I' for Inactive)
REMARK    1  A    between atoms: C1_2  and  C20_25
REMARK    2  A    between atoms: N1_3  and  C2_4
REMARK    3  A    between atoms: C9_12  and  C10_13
REMARK                            x       y       z     vdW  Elec       q    Type
REMARK                         _______ _______ _______ _____ _____    ______ ____
ROOT
ATOM      1  C2  UNL     1       8.874   7.124  25.470  0.00  0.00    +0.042 A 
ATOM      2  C3  UNL     1       8.901   5.726  25.363  0.00  0.00    +0.024 A 
ATOM      3  C4  UNL     1       8.670   5.099  24.142  0.00  0.00    +0.002 A 
ATOM      4  C5  UNL     1       8.396   5.857  23.009  0.00  0.00    +0.010 A 
ATOM      5  C6  UNL     1       8.394   7.257  23.078  0.00  0.00    +0.003 A 
ATOM      6  C7  UNL     1       8.108   8.005  21.930  0.00  0.00    +0.119 A 
ATOM      7  N2  UNL     1       8.128   9.358  21.972  0.00  0.00    -0.262 NA
ATOM      8  C8  UNL     1       8.442  10.035  23.103  0.00  0.00    +0.119 A 
ATOM      9  C9  UNL     1       8.758   9.349  24.287  0.00  0.00    +0.010 A 
ATOM     10  C19 UNL     1       8.682   7.923  24.303  0.00  0.00    +0.014 A 
ENDROOT
BRANCH   9  11
ATOM     11  C10 UNL     1       9.254  10.162  25.420  0.00  0.00    -0.015 A 
ATOM     12  C11 UNL     1      10.633  10.307  25.637  0.00  0.00    +0.010 A 
ATOM     13  C12 UNL     1      11.105  11.068  26.711  0.00  0.00    +0.027 A 
ATOM     14  C13 UNL     1      10.203  11.712  27.570  0.00  0.00    +0.049 A 
ATOM     15  N3  UNL     1      10.655  12.444  28.630  0.00  0.00    -0.322 N 
ATOM     16  C14 UNL     1       9.793  13.075  29.477  0.00  0.00    +0.249 A 
ATOM     17  O2  UNL     1      10.240  13.740  30.450  0.00  0.00    -0.268 OA
ATOM     18  C15 UNL     1       8.413  12.989  29.271  0.00  0.00    +0.071 A 
ATOM     19  C16 UNL     1       7.923  12.250  28.193  0.00  0.00    +0.015 A 
ATOM     20  C17 UNL     1       8.814  11.601  27.332  0.00  0.00    -0.001 A 
ATOM     21  C18 UNL     1       8.347  10.835  26.254  0.00  0.00    +0.018 A 
ATOM     22  H9  UNL     1      11.683  12.524  28.805  0.00  0.00    +0.169 HD
ENDBRANCH   9  11
BRANCH   1  25
ATOM     23  O1  UNL     1       6.819   7.012  27.405  0.00  0.00    -0.275 OA
ATOM     24  C1  UNL     1       7.894   7.588  27.730  0.00  0.00    +0.220 C 
ATOM     25  N1  UNL     1       8.969   7.682  26.786  0.00  0.00    -0.285 N 
ATOM     26  H1  UNL     1       9.912   7.971  27.131  0.00  0.00    +0.155 HD
BRANCH  24  27
ATOM     27  C20 UNL     1       8.068   8.188  29.101  0.00  0.00    +0.075 C 
ATOM     28  C21 UNL     1       6.968   9.132  29.567  0.00  0.00    +0.013 C 
ATOM     29  C22 UNL     1       7.062   7.728  30.145  0.00  0.00    +0.013 C 
ENDBRANCH  24  27
ENDBRANCH   1  25
TORSDOF 3
ENDMDL
MODEL 7
REMARK VINA RESULT:    -6.062      2.888      6.471
REMARK INTER + INTRA:          -8.416
REMARK INTER:                  -7.154
REMARK INTRA:                  -1.263
REMARK UNBOUND:                -1.291
REMARK  Name = /home/qwerty/github/datacon2025hack/step_04_hit_selection/docking/ligands/lig_720.pdb
REMARK  3 active torsions:
REMARK  status: ('A' for Active; 'I' for Inactive)
REMARK    1  A    between atoms: C1_2  and  C20_25
REMARK    2  A    between atoms: N1_3  and  C2_4
REMARK    3  A    between atoms: C9_12  and  C10_13
REMARK                            x       y       z     vdW  Elec       q    Type
REMARK                         _______ _______ _______ _____ _____    ______ ____
ROOT
ATOM      1  C2  UNL     1       8.378   8.612  22.700  0.00  0.00    +0.042 A 
ATOM      2  C3  UNL     1       7.553   9.650  23.156  0.00  0.00    +0.024 A 
ATOM      3  C4  UNL     1       7.614  10.915  22.579  0.00  0.00    +0.002 A 
ATOM      4  C5  UNL     1       8.509  11.169  21.545  0.00  0.00    +0.010 A 
ATOM      5  C6  UNL     1       9.324  10.143  21.047  0.00  0.00    +0.003 A 
ATOM      6  C7  UNL     1      10.224  10.417  20.012  0.00  0.00    +0.119 A 
ATOM      7  N2  UNL     1      11.000   9.432  19.500  0.00  0.00    -0.262 NA
ATOM      8  C8  UNL     1      10.922   8.155  19.947  0.00  0.00    +0.119 A 
ATOM      9  C9  UNL     1      10.027   7.804  20.970  0.00  0.00    +0.010 A 
ATOM     10  C19 UNL     1       9.240   8.826  21.583  0.00  0.00    +0.014 A 
ENDROOT
BRANCH   9  11
ATOM     11  C10 UNL     1       9.887   6.362  21.272  0.00  0.00    -0.015 A 
ATOM     12  C11 UNL     1       8.767   5.648  20.817  0.00  0.00    +0.010 A 
ATOM     13  C12 UNL     1       8.628   4.288  21.108  0.00  0.00    +0.027 A 
ATOM     14  C13 UNL     1       9.619   3.618  21.839  0.00  0.00    +0.049 A 
ATOM     15  N3  UNL     1       9.483   2.293  22.141  0.00  0.00    -0.322 N 
ATOM     16  C14 UNL     1      10.435   1.625  22.853  0.00  0.00    +0.249 A 
ATOM     17  O2  UNL     1      10.280   0.403  23.120  0.00  0.00    -0.268 OA
ATOM     18  C15 UNL     1      11.584   2.291  23.290  0.00  0.00    +0.071 A 
ATOM     19  C16 UNL     1      11.751   3.644  22.993  0.00  0.00    +0.015 A 
ATOM     20  C17 UNL     1      10.767   4.323  22.267  0.00  0.00    -0.001 A 
ATOM     21  C18 UNL     1      10.900   5.688  21.973  0.00  0.00    +0.018 A 
ATOM     22  H9  UNL     1       8.633   1.773  21.826  0.00  0.00    +0.169 HD
ENDBRANCH   9  11
BRANCH   1  25
ATOM     23  O1  UNL     1       9.951   8.118  24.994  0.00  0.00    -0.275 OA
ATOM     24  C1  UNL     1       9.180   7.197  24.607  0.00  0.00    +0.220 C 
ATOM     25  N1  UNL     1       8.363   7.388  23.445  0.00  0.00    -0.285 N 
ATOM     26  H1  UNL     1       7.588   6.710  23.262  0.00  0.00    +0.155 HD
BRANCH  24  27
ATOM     27  C20 UNL     1       9.103   5.888  25.349  0.00  0.00    +0.075 C 
ATOM     28  C21 UNL     1       7.863   5.671  26.205  0.00  0.00    +0.013 C 
ATOM     29  C22 UNL     1       8.012   4.937  24.881  0.00  0.00    +0.013 C 
ENDBRANCH  24  27
ENDBRANCH   1  25
TORSDOF 3
ENDMDL
MODEL 8
REMARK VINA RESULT:    -6.012      4.675      7.258
REMARK INTER + INTRA:          -8.357
REMARK INTER:                  -7.408
REMARK INTRA:                  -0.949
REMARK UNBOUND:                -1.291
REMARK  Name = /home/qwerty/github/datacon2025hack/step_04_hit_selection/docking/ligands/lig_720.pdb
REMARK  3 active torsions:
REMARK  status: ('A' for Active; 'I' for Inactive)
REMARK    1  A    between atoms: C1_2  and  C20_25
REMARK    2  A    between atoms: N1_3  and  C2_4
REMARK    3  A    between atoms: C9_12  and  C10_13
REMARK                            x       y       z     vdW  Elec       q    Type
REMARK                         _______ _______ _______ _____ _____    ______ ____
ROOT
ATOM      1  C2  UNL     1       9.089   5.051  21.020  0.00  0.00    +0.042 A 
ATOM      2  C3  UNL     1       7.695   5.004  20.872  0.00  0.00    +0.024 A 
ATOM      3  C4  UNL     1       6.918   6.142  21.063  0.00  0.00    +0.002 A 
ATOM      4  C5  UNL     1       7.518   7.346  21.419  0.00  0.00    +0.010 A 
ATOM      5  C6  UNL     1       8.912   7.431  21.543  0.00  0.00    +0.003 A 
ATOM      6  C7  UNL     1       9.498   8.648  21.909  0.00  0.00    +0.119 A 
ATOM      7  N2  UNL     1      10.845   8.756  22.007  0.00  0.00    -0.262 NA
ATOM      8  C8  UNL     1      11.668   7.714  21.739  0.00  0.00    +0.119 A 
ATOM      9  C9  UNL     1      11.149   6.469  21.347  0.00  0.00    +0.010 A 
ATOM     10  C19 UNL     1       9.733   6.294  21.298  0.00  0.00    +0.014 A 
ENDROOT
BRANCH   9  11
ATOM     11  C10 UNL     1      12.124   5.445  20.909  0.00  0.00    -0.015 A 
ATOM     12  C11 UNL     1      12.332   5.205  19.542  0.00  0.00    +0.010 A 
ATOM     13  C12 UNL     1      13.245   4.233  19.125  0.00  0.00    +0.027 A 
ATOM     14  C13 UNL     1      13.979   3.502  20.070  0.00  0.00    +0.049 A 
ATOM     15  N3  UNL     1      14.862   2.540  19.671  0.00  0.00    -0.322 N 
ATOM     16  C14 UNL     1      15.583   1.818  20.576  0.00  0.00    +0.249 A 
ATOM     17  O2  UNL     1      16.387   0.933  20.178  0.00  0.00    -0.268 OA
ATOM     18  C15 UNL     1      15.434   2.054  21.946  0.00  0.00    +0.071 A 
ATOM     19  C16 UNL     1      14.541   3.035  22.381  0.00  0.00    +0.015 A 
ATOM     20  C17 UNL     1      13.801   3.767  21.447  0.00  0.00    -0.001 A 
ATOM     21  C18 UNL     1      12.883   4.743  21.859  0.00  0.00    +0.018 A 
ATOM     22  H9  UNL     1      14.992   2.344  18.652  0.00  0.00    +0.169 HD
ENDBRANCH   9  11
BRANCH   1  25
ATOM     23  O1  UNL     1       9.200   3.167  23.122  0.00  0.00    -0.275 OA
ATOM     24  C1  UNL     1       9.812   2.886  22.054  0.00  0.00    +0.220 C 
ATOM     25  N1  UNL     1       9.797   3.807  20.956  0.00  0.00    -0.285 N 
ATOM     26  H1  UNL     1      10.125   3.475  20.021  0.00  0.00    +0.155 HD
BRANCH  24  27
ATOM     27  C20 UNL     1      10.568   1.590  21.912  0.00  0.00    +0.075 C 
ATOM     28  C21 UNL     1      11.450   1.194  23.088  0.00  0.00    +0.013 C 
ATOM     29  C22 UNL     1      10.131   0.476  22.850  0.00  0.00    +0.013 C 
ENDBRANCH  24  27
ENDBRANCH   1  25
TORSDOF 3
ENDMDL
MODEL 9
REMARK VINA RESULT:    -5.936      6.891      9.422
REMARK INTER + INTRA:          -8.269
REMARK INTER:                  -7.317
REMARK INTRA:                  -0.952
REMARK UNBOUND:                -1.291
REMARK  Name = /home/qwerty/github/datacon2025hack/step_04_hit_selection/docking/ligands/lig_720.pdb
REMARK  3 active torsions:
REMARK  status: ('A' for Active; 'I' for Inactive)
REMARK    1  A    between atoms: C1_2  and  C20_25
REMARK    2  A    between atoms: N1_3  and  C2_4
REMARK    3  A    between atoms: C9_12  and  C10_13
REMARK                            x       y       z     vdW  Elec       q    Type
REMARK                         _______ _______ _______ _____ _____    ______ ____
ROOT
ATOM      1  C2  UNL     1      14.367  13.085  32.181  0.00  0.00    +0.042 A 
ATOM      2  C3  UNL     1      15.751  13.076  32.408  0.00  0.00    +0.024 A 
ATOM      3  C4  UNL     1      16.272  13.417  33.653  0.00  0.00    +0.002 A 
ATOM      4  C5  UNL     1      15.420  13.785  34.689  0.00  0.00    +0.010 A 
ATOM      5  C6  UNL     1      14.031  13.772  34.502  0.00  0.00    +0.003 A 
ATOM      6  C7  UNL     1      13.189  14.153  35.552  0.00  0.00    +0.119 A 
ATOM      7  N2  UNL     1      11.844  14.121  35.398  0.00  0.00    -0.262 NA
ATOM      8  C8  UNL     1      11.266  13.705  34.245  0.00  0.00    +0.119 A 
ATOM      9  C9  UNL     1      12.050  13.291  33.156  0.00  0.00    +0.010 A 
ATOM     10  C19 UNL     1      13.472  13.374  33.254  0.00  0.00    +0.014 A 
ENDROOT
BRANCH   9  11
ATOM     11  C10 UNL     1      11.335  12.691  32.006  0.00  0.00    -0.015 A 
ATOM     12  C11 UNL     1      11.272  11.297  31.860  0.00  0.00    +0.010 A 
ATOM     13  C12 UNL     1      10.605  10.729  30.771  0.00  0.00    +0.027 A 
ATOM     14  C13 UNL     1       9.974  11.547  29.824  0.00  0.00    +0.049 A 
ATOM     15  N3  UNL     1       9.334  11.001  28.749  0.00  0.00    -0.322 N 
ATOM     16  C14 UNL     1       8.716  11.781  27.817  0.00  0.00    +0.249 A 
ATOM     17  O2  UNL     1       8.137  11.248  26.833  0.00  0.00    -0.268 OA
ATOM     18  C15 UNL     1       8.722  13.173  27.948  0.00  0.00    +0.071 A 
ATOM     19  C16 UNL     1       9.365  13.759  29.039  0.00  0.00    +0.015 A 
ATOM     20  C17 UNL     1      10.002  12.952  29.988  0.00  0.00    -0.001 A 
ATOM     21  C18 UNL     1      10.673  13.515  31.082  0.00  0.00    +0.018 A 
ATOM     22  H9  UNL     1       9.315   9.962  28.629  0.00  0.00    +0.169 HD
ENDBRANCH   9  11
BRANCH   1  25
ATOM     23  O1  UNL     1      14.505  15.019  30.127  0.00  0.00    -0.275 OA
ATOM     24  C1  UNL     1      14.025  13.890  29.832  0.00  0.00    +0.220 C 
ATOM     25  N1  UNL     1      13.923  12.871  30.836  0.00  0.00    -0.285 N 
ATOM     26  H1  UNL     1      13.723  11.891  30.534  0.00  0.00    +0.155 HD
BRANCH  24  27
ATOM     27  C20 UNL     1      13.548  13.590  28.435  0.00  0.00    +0.075 C 
ATOM     28  C21 UNL     1      12.581  14.595  27.824  0.00  0.00    +0.013 C 
ATOM     29  C22 UNL     1      14.031  14.556  27.362  0.00  0.00    +0.013 C 
ENDBRANCH  24  27
ENDBRANCH   1  25
TORSDOF 3
ENDMDL
