REMARK  Name = /home/qwerty/github/datacon2025hack/step_04_hit_selection/docking/ligands/lig_425.pdb
REMARK  7 active torsions:
REMARK  status: ('A' for Active; 'I' for Inactive)
REMARK    1  A    between atoms: C1_1  and  C2_2
REMARK    2  A    between atoms: C2_2  and  N1_3
REMARK    3  A    between atoms: C2_2  and  C10_12
REMARK    4  A    between atoms: C3_4  and  C4_6
REMARK    5  A    between atoms: N2_14  and  C11_15
REMARK    6  A    between atoms: C16_20  and  C17_21
REMARK    7  A    between atoms: C17_21  and  N3_22
REMARK                            x       y       z     vdW  Elec       q    Type
REMARK                         _______ _______ _______ _____ _____    ______ ____
ROOT
ATOM      1  C10 UNL     1       1.047  -0.112   1.227  0.00  0.00    +0.237 C 
ATOM      2  O2  UNL     1       1.378  -1.175   1.820  0.00  0.00    -0.273 OA
ATOM      3  N2  UNL     1      -0.240  -0.002   0.601  0.00  0.00    -0.284 N 
ATOM      4  H11 UNL     1      -0.560   0.943   0.294  0.00  0.00    +0.155 HD
ENDROOT
BRANCH   3   5
ATOM      5  C11 UNL     1      -1.098  -1.134   0.375  0.00  0.00    +0.038 A 
ATOM      6  C12 UNL     1      -0.557  -2.319  -0.154  0.00  0.00    +0.023 A 
ATOM      7  C13 UNL     1      -1.375  -3.418  -0.421  0.00  0.00    +0.002 A 
ATOM      8  C14 UNL     1      -2.744  -3.347  -0.171  0.00  0.00    +0.000 A 
ATOM      9  C15 UNL     1      -3.301  -2.176   0.345  0.00  0.00    +0.007 A 
ATOM     10  C16 UNL     1      -2.493  -1.059   0.622  0.00  0.00    -0.012 A 
BRANCH  10  11
ATOM     11  C17 UNL     1      -3.152   0.174   1.199  0.00  0.00    +0.121 C 
BRANCH  11  12
ATOM     12  N3  UNL     1      -4.094   0.764   0.227  0.00  0.00    -0.297 NA
ATOM     13  C18 UNL     1      -3.383   1.491  -0.845  0.00  0.00    +0.095 C 
ATOM     14  C19 UNL     1      -4.299   1.690  -2.065  0.00  0.00    +0.084 C 
ATOM     15  S1  UNL     1      -6.087   1.702  -1.651  0.00  0.00    -0.158 S 
ATOM     16  C20 UNL     1      -5.874   2.525  -0.041  0.00  0.00    +0.084 C 
ATOM     17  C21 UNL     1      -5.055   1.651   0.924  0.00  0.00    +0.095 C 
ENDBRANCH  11  12
ENDBRANCH  10  11
ENDBRANCH   3   5
BRANCH   1  19
ATOM     18  C1  UNL     1       2.165   1.627   2.613  0.00  0.00    +0.038 C 
ATOM     19  C2  UNL     1       2.001   1.052   1.204  0.00  0.00    +0.156 C 
BRANCH  19  20
ATOM     20  N1  UNL     1       3.295   0.623   0.662  0.00  0.00    -0.300 N 
ATOM     21  C3  UNL     1       3.450   0.252  -0.719  0.00  0.00    +0.245 C 
ATOM     22  O1  UNL     1       2.515   0.487  -1.534  0.00  0.00    -0.270 OA
ATOM     23  H5  UNL     1       4.135   0.640   1.282  0.00  0.00    +0.150 HD
BRANCH  21  24
ATOM     24  C4  UNL     1       4.695  -0.389  -1.207  0.00  0.00    +0.037 A 
ATOM     25  C5  UNL     1       5.033  -0.320  -2.572  0.00  0.00    +0.013 A 
ATOM     26  C6  UNL     1       6.198  -0.931  -3.047  0.00  0.00    +0.001 A 
ATOM     27  C7  UNL     1       7.034  -1.622  -2.168  0.00  0.00    +0.000 A 
ATOM     28  C8  UNL     1       6.705  -1.707  -0.813  0.00  0.00    +0.001 A 
ATOM     29  C9  UNL     1       5.541  -1.099  -0.333  0.00  0.00    +0.013 A 
ENDBRANCH  21  24
ENDBRANCH  19  20
ENDBRANCH   1  19
TORSDOF 6
