REMARK  Name = /home/qwerty/github/datacon2025hack/step_04_hit_selection/docking/ligands/lig_31.pdb
REMARK  8 active torsions:
REMARK  status: ('A' for Active; 'I' for Inactive)
REMARK    1  A    between atoms: C1_1  and  O1_2
REMARK    2  A    between atoms: O1_2  and  C2_3
REMARK    3  A    between atoms: C4_5  and  C5_6
REMARK    4  A    between atoms: C9_12  and  C10_13
REMARK    5  A    between atoms: C19_24  and  O3_25
REMARK    6  A    between atoms: O3_25  and  C20_26
REMARK    7  A    between atoms: C21_27  and  O4_28
REMARK    8  A    between atoms: O4_28  and  C22_29
REMARK                            x       y       z     vdW  Elec       q    Type
REMARK                         _______ _______ _______ _____ _____    ______ ____
ROOT
ATOM      1  C5  UNL     1       0.642  -0.033  -1.024  0.00  0.00    +0.247 C 
ATOM      2  O2  UNL     1       0.134   0.842  -1.771  0.00  0.00    -0.270 OA
ATOM      3  N1  UNL     1      -0.199  -1.080  -0.509  0.00  0.00    -0.297 N 
ATOM      4  C6  UNL     1      -0.577  -2.172  -1.412  0.00  0.00    +0.108 C 
ATOM      5  C7  UNL     1      -1.930  -2.775  -1.015  0.00  0.00    +0.020 C 
ATOM      6  C8  UNL     1      -1.974  -3.099   0.482  0.00  0.00    +0.013 C 
ATOM      7  C9  UNL     1      -1.638  -1.871   1.347  0.00  0.00    +0.062 C 
ATOM      8  C17 UNL     1      -0.272  -1.293   0.943  0.00  0.00    +0.118 C 
ENDROOT
BRANCH   7   9
ATOM      9  C10 UNL     1      -2.734  -0.840   1.283  0.00  0.00    +0.083 A 
ATOM     10  N2  UNL     1      -2.793   0.155   0.363  0.00  0.00    -0.248 NA
ATOM     11  C11 UNL     1      -3.927   0.891   0.490  0.00  0.00    +0.052 A 
ATOM     12  C12 UNL     1      -4.800   0.452   1.477  0.00  0.00    +0.013 A 
ATOM     13  S1  UNL     1      -4.110  -0.865   2.260  0.00  0.00    -0.076 S 
ATOM     14  C13 UNL     1      -6.081   1.140   1.843  0.00  0.00    +0.044 C 
ATOM     15  C14 UNL     1      -6.553   2.057   0.702  0.00  0.00    +0.006 C 
ATOM     16  C15 UNL     1      -5.391   2.903   0.146  0.00  0.00    +0.006 C 
ATOM     17  C16 UNL     1      -4.278   2.013  -0.444  0.00  0.00    +0.056 C 
ENDBRANCH   7   9
BRANCH   1  20
ATOM     18  C2  UNL     1       4.126   1.350  -0.378  0.00  0.00    +0.166 A 
ATOM     19  C3  UNL     1       2.765   1.258  -0.727  0.00  0.00    +0.062 A 
ATOM     20  C4  UNL     1       2.084   0.034  -0.679  0.00  0.00    +0.044 A 
ATOM     21  C18 UNL     1       2.786  -1.120  -0.312  0.00  0.00    +0.062 A 
ATOM     22  C19 UNL     1       4.141  -1.053   0.054  0.00  0.00    +0.166 A 
ATOM     23  C21 UNL     1       4.812   0.181   0.039  0.00  0.00    +0.204 A 
BRANCH  18  25
ATOM     24  C1  UNL     1       4.234   3.804  -0.882  0.00  0.00    +0.277 C 
ATOM     25  O1  UNL     1       4.809   2.573  -0.456  0.00  0.00    -0.491 OA
ENDBRANCH  18  25
BRANCH  22  26
ATOM     26  O3  UNL     1       4.859  -2.195   0.446  0.00  0.00    -0.491 OA
ATOM     27  C20 UNL     1       4.325  -3.519   0.466  0.00  0.00    +0.277 C 
ENDBRANCH  22  26
BRANCH  23  28
ATOM     28  O4  UNL     1       6.160   0.172   0.445  0.00  0.00    -0.488 OA
ATOM     29  C22 UNL     1       6.962   1.310   0.733  0.00  0.00    +0.277 C 
ENDBRANCH  23  28
ENDBRANCH   1  20
TORSDOF 5
