MODEL 1
REMARK VINA RESULT:    -6.863      0.000      0.000
REMARK INTER + INTRA:          -9.134
REMARK INTER:                  -8.468
REMARK INTRA:                  -0.666
REMARK UNBOUND:                -0.666
REMARK  Name = /home/qwerty/github/datacon2025hack/step_04_hit_selection/docking/ligands/lig_773.pdb
REMARK  7 active torsions:
REMARK  status: ('A' for Active; 'I' for Inactive)
REMARK    1  A    between atoms: C1_1  and  O1_2
REMARK    2  A    between atoms: O1_2  and  C2_3
REMARK    3  A    between atoms: C5_6  and  N1_7
REMARK    4  A    between atoms: C9_13  and  C10_14
REMARK    5  A    between atoms: C12_16  and  C13_17
REMARK    6  A    between atoms: C19_24  and  N3_25
REMARK    7  A    between atoms: C20_26  and  C21_27
REMARK                            x       y       z     vdW  Elec       q    Type
REMARK                         _______ _______ _______ _____ _____    ______ ____
ROOT
ATOM      1  N1  UNL     1      12.355   5.905  20.305  0.00  0.00    -0.269 N 
ATOM      2  C6  UNL     1      12.818   4.828  21.139  0.00  0.00    +0.306 C 
ATOM      3  O2  UNL     1      12.147   4.480  22.147  0.00  0.00    -0.252 OA
ATOM      4  N2  UNL     1      14.028   4.118  20.817  0.00  0.00    -0.285 N 
ATOM      5  C7  UNL     1      14.869   4.415  19.669  0.00  0.00    +0.110 C 
ATOM      6  C8  UNL     1      15.991   3.384  19.693  0.00  0.00    +0.029 C 
ATOM      7  C9  UNL     1      15.964   2.773  21.101  0.00  0.00    +0.038 C 
ATOM      8  C17 UNL     1      14.567   3.064  21.659  0.00  0.00    +0.117 C 
ATOM      9  H6  UNL     1      12.711   5.966  19.325  0.00  0.00    +0.156 HD
ENDROOT
BRANCH   7  10
ATOM     10  C10 UNL     1      16.319   1.297  21.118  0.00  0.00    -0.041 A 
ATOM     11  C11 UNL     1      16.448   0.565  19.921  0.00  0.00    +0.007 A 
ATOM     12  C12 UNL     1      16.771  -0.800  19.949  0.00  0.00    -0.049 A 
ATOM     13  C13 UNL     1      16.944  -1.560  18.668  0.00  0.00    +0.044 C 
ATOM     14  C14 UNL     1      16.999  -1.431  21.181  0.00  0.00    +0.023 A 
ATOM     15  C15 UNL     1      16.874  -0.713  22.373  0.00  0.00    +0.041 A 
ATOM     16 CL1  UNL     1      17.152  -1.513  23.909  0.00  0.00    -0.084 Cl
ATOM     17  C16 UNL     1      16.534   0.643  22.343  0.00  0.00    +0.024 A 
ENDBRANCH   7  10
BRANCH   1  21
ATOM     18  C2  UNL     1       9.309   8.681  21.376  0.00  0.00    +0.141 A 
ATOM     19  C3  UNL     1      10.652   8.937  21.714  0.00  0.00    +0.049 A 
ATOM     20  C4  UNL     1      11.653   8.025  21.376  0.00  0.00    +0.027 A 
ATOM     21  C5  UNL     1      11.335   6.838  20.699  0.00  0.00    +0.037 A 
ATOM     22  C18 UNL     1      10.002   6.593  20.340  0.00  0.00    +0.050 A 
ATOM     23  C19 UNL     1       8.982   7.494  20.693  0.00  0.00    +0.077 A 
BRANCH  23  24
ATOM     24  N3  UNL     1       7.617   7.245  20.312  0.00  0.00    -0.283 N 
ATOM     25  C20 UNL     1       6.815   6.188  20.862  0.00  0.00    +0.214 C 
ATOM     26  C21 UNL     1       5.473   5.891  20.276  0.00  0.00    +0.109 C 
ATOM     27  O3  UNL     1       7.195   5.557  21.885  0.00  0.00    -0.276 OA
ATOM     28  H21 UNL     1       7.156   7.908  19.649  0.00  0.00    +0.155 HD
ENDBRANCH  23  24
BRANCH  18  30
ATOM     29  C1  UNL     1       8.309  10.977  21.448  0.00  0.00    +0.277 C 
ATOM     30  O1  UNL     1       8.279   9.577  21.708  0.00  0.00    -0.493 OA
ENDBRANCH  18  30
ENDBRANCH   1  21
TORSDOF 4
ENDMDL
MODEL 2
REMARK VINA RESULT:    -6.794     15.930     16.560
REMARK INTER + INTRA:          -9.048
REMARK INTER:                  -8.335
REMARK INTRA:                  -0.714
REMARK UNBOUND:                -0.666
REMARK  Name = /home/qwerty/github/datacon2025hack/step_04_hit_selection/docking/ligands/lig_773.pdb
REMARK  7 active torsions:
REMARK  status: ('A' for Active; 'I' for Inactive)
REMARK    1  A    between atoms: C1_1  and  O1_2
REMARK    2  A    between atoms: O1_2  and  C2_3
REMARK    3  A    between atoms: C5_6  and  N1_7
REMARK    4  A    between atoms: C9_13  and  C10_14
REMARK    5  A    between atoms: C12_16  and  C13_17
REMARK    6  A    between atoms: C19_24  and  N3_25
REMARK    7  A    between atoms: C20_26  and  C21_27
REMARK                            x       y       z     vdW  Elec       q    Type
REMARK                         _______ _______ _______ _____ _____    ______ ____
ROOT
ATOM      1  N1  UNL     1      17.584  11.348  36.412  0.00  0.00    -0.269 N 
ATOM      2  C6  UNL     1      18.178  10.746  35.249  0.00  0.00    +0.306 C 
ATOM      3  O2  UNL     1      17.666  10.933  34.112  0.00  0.00    -0.252 OA
ATOM      4  N2  UNL     1      19.374   9.954  35.361  0.00  0.00    -0.285 N 
ATOM      5  C7  UNL     1      20.064   9.690  36.613  0.00  0.00    +0.110 C 
ATOM      6  C8  UNL     1      21.297   8.872  36.248  0.00  0.00    +0.029 C 
ATOM      7  C9  UNL     1      21.048   8.359  34.823  0.00  0.00    +0.038 C 
ATOM      8  C17 UNL     1      19.978   9.278  34.226  0.00  0.00    +0.117 C 
ATOM      9  H6  UNL     1      18.172  11.472  37.266  0.00  0.00    +0.156 HD
ENDROOT
BRANCH   7  10
ATOM     10  C10 UNL     1      22.312   8.291  33.984  0.00  0.00    -0.041 A 
ATOM     11  C11 UNL     1      23.243   7.247  34.154  0.00  0.00    +0.007 A 
ATOM     12  C12 UNL     1      24.411   7.197  33.378  0.00  0.00    -0.049 A 
ATOM     13  C13 UNL     1      25.376   6.062  33.540  0.00  0.00    +0.044 C 
ATOM     14  C14 UNL     1      24.634   8.179  32.401  0.00  0.00    +0.023 A 
ATOM     15  C15 UNL     1      23.715   9.217  32.225  0.00  0.00    +0.041 A 
ATOM     16 CL1  UNL     1      24.007  10.446  31.007  0.00  0.00    -0.084 Cl
ATOM     17  C16 UNL     1      22.562   9.275  33.012  0.00  0.00    +0.024 A 
ENDBRANCH   7  10
BRANCH   1  21
ATOM     18  C2  UNL     1      13.627  12.924  36.418  0.00  0.00    +0.141 A 
ATOM     19  C3  UNL     1      14.707  13.721  35.994  0.00  0.00    +0.049 A 
ATOM     20  C4  UNL     1      16.008  13.215  36.001  0.00  0.00    +0.027 A 
ATOM     21  C5  UNL     1      16.258  11.904  36.435  0.00  0.00    +0.037 A 
ATOM     22  C18 UNL     1      15.182  11.100  36.835  0.00  0.00    +0.050 A 
ATOM     23  C19 UNL     1      13.869  11.606  36.852  0.00  0.00    +0.077 A 
BRANCH  23  24
ATOM     24  N3  UNL     1      12.765  10.774  37.251  0.00  0.00    -0.283 N 
ATOM     25  C20 UNL     1      11.964  10.017  36.332  0.00  0.00    +0.214 C 
ATOM     26  C21 UNL     1      10.729   9.328  36.815  0.00  0.00    +0.109 C 
ATOM     27  O3  UNL     1      12.330   9.861  35.136  0.00  0.00    -0.276 OA
ATOM     28  H21 UNL     1      12.574  10.656  38.271  0.00  0.00    +0.155 HD
ENDBRANCH  23  24
BRANCH  18  30
ATOM     29  C1  UNL     1      11.637  13.950  35.295  0.00  0.00    +0.277 C 
ATOM     30  O1  UNL     1      12.309  13.408  36.427  0.00  0.00    -0.493 OA
ENDBRANCH  18  30
ENDBRANCH   1  21
TORSDOF 4
ENDMDL
MODEL 3
REMARK VINA RESULT:    -6.784      2.230      3.637
REMARK INTER + INTRA:          -9.036
REMARK INTER:                  -8.349
REMARK INTRA:                  -0.687
REMARK UNBOUND:                -0.666
REMARK  Name = /home/qwerty/github/datacon2025hack/step_04_hit_selection/docking/ligands/lig_773.pdb
REMARK  7 active torsions:
REMARK  status: ('A' for Active; 'I' for Inactive)
REMARK    1  A    between atoms: C1_1  and  O1_2
REMARK    2  A    between atoms: O1_2  and  C2_3
REMARK    3  A    between atoms: C5_6  and  N1_7
REMARK    4  A    between atoms: C9_13  and  C10_14
REMARK    5  A    between atoms: C12_16  and  C13_17
REMARK    6  A    between atoms: C19_24  and  N3_25
REMARK    7  A    between atoms: C20_26  and  C21_27
REMARK                            x       y       z     vdW  Elec       q    Type
REMARK                         _______ _______ _______ _____ _____    ______ ____
ROOT
ATOM      1  N1  UNL     1      11.783   2.988  21.140  0.00  0.00    -0.269 N 
ATOM      2  C6  UNL     1      12.744   2.946  22.209  0.00  0.00    +0.306 C 
ATOM      3  O2  UNL     1      12.480   3.491  23.314  0.00  0.00    -0.252 OA
ATOM      4  N2  UNL     1      13.998   2.260  22.044  0.00  0.00    -0.285 N 
ATOM      5  C7  UNL     1      14.401   1.576  20.825  0.00  0.00    +0.110 C 
ATOM      6  C8  UNL     1      15.757   0.949  21.125  0.00  0.00    +0.029 C 
ATOM      7  C9  UNL     1      16.263   1.641  22.399  0.00  0.00    +0.038 C 
ATOM      8  C17 UNL     1      15.024   2.239  23.072  0.00  0.00    +0.117 C 
ATOM      9  H6  UNL     1      11.854   2.277  20.377  0.00  0.00    +0.156 HD
ENDROOT
BRANCH   7  10
ATOM     10  C10 UNL     1      17.049   0.715  23.309  0.00  0.00    -0.041 A 
ATOM     11  C11 UNL     1      16.692  -0.640  23.455  0.00  0.00    +0.007 A 
ATOM     12  C12 UNL     1      17.423  -1.485  24.303  0.00  0.00    -0.049 A 
ATOM     13  C13 UNL     1      17.057  -2.934  24.421  0.00  0.00    +0.044 C 
ATOM     14  C14 UNL     1      18.540  -0.981  24.985  0.00  0.00    +0.023 A 
ATOM     15  C15 UNL     1      18.903   0.361  24.845  0.00  0.00    +0.041 A 
ATOM     16 CL1  UNL     1      20.296   0.984  25.710  0.00  0.00    -0.084 Cl
ATOM     17  C16 UNL     1      18.162   1.206  24.014  0.00  0.00    +0.024 A 
ENDBRANCH   7  10
BRANCH   1  21
ATOM     18  C2  UNL     1       8.486   5.683  21.117  0.00  0.00    +0.141 A 
ATOM     19  C3  UNL     1       8.372   4.428  21.746  0.00  0.00    +0.049 A 
ATOM     20  C4  UNL     1       9.445   3.536  21.747  0.00  0.00    +0.027 A 
ATOM     21  C5  UNL     1      10.652   3.875  21.116  0.00  0.00    +0.037 A 
ATOM     22  C18 UNL     1      10.776   5.132  20.510  0.00  0.00    +0.050 A 
ATOM     23  C19 UNL     1       9.695   6.032  20.485  0.00  0.00    +0.077 A 
BRANCH  23  24
ATOM     24  N3  UNL     1       9.831   7.327  19.873  0.00  0.00    -0.283 N 
ATOM     25  C20 UNL     1      10.382   8.472  20.542  0.00  0.00    +0.214 C 
ATOM     26  C21 UNL     1      10.315   9.816  19.892  0.00  0.00    +0.109 C 
ATOM     27  O3  UNL     1      10.992   8.345  21.637  0.00  0.00    -0.276 OA
ATOM     28  H21 UNL     1       9.580   7.430  18.864  0.00  0.00    +0.155 HD
ENDBRANCH  23  24
BRANCH  18  30
ATOM     29  C1  UNL     1       6.108   6.303  20.633  0.00  0.00    +0.277 C 
ATOM     30  O1  UNL     1       7.422   6.600  21.095  0.00  0.00    -0.493 OA
ENDBRANCH  18  30
ENDBRANCH   1  21
TORSDOF 4
ENDMDL
MODEL 4
REMARK VINA RESULT:    -6.720      4.495     10.343
REMARK INTER + INTRA:          -8.957
REMARK INTER:                  -8.220
REMARK INTRA:                  -0.738
REMARK UNBOUND:                -0.666
REMARK  Name = /home/qwerty/github/datacon2025hack/step_04_hit_selection/docking/ligands/lig_773.pdb
REMARK  7 active torsions:
REMARK  status: ('A' for Active; 'I' for Inactive)
REMARK    1  A    between atoms: C1_1  and  O1_2
REMARK    2  A    between atoms: O1_2  and  C2_3
REMARK    3  A    between atoms: C5_6  and  N1_7
REMARK    4  A    between atoms: C9_13  and  C10_14
REMARK    5  A    between atoms: C12_16  and  C13_17
REMARK    6  A    between atoms: C19_24  and  N3_25
REMARK    7  A    between atoms: C20_26  and  C21_27
REMARK                            x       y       z     vdW  Elec       q    Type
REMARK                         _______ _______ _______ _____ _____    ______ ____
ROOT
ATOM      1  N1  UNL     1      11.295   2.599  22.886  0.00  0.00    -0.269 N 
ATOM      2  C6  UNL     1      11.526   4.011  23.024  0.00  0.00    +0.306 C 
ATOM      3  O2  UNL     1      12.660   4.432  23.377  0.00  0.00    -0.252 OA
ATOM      4  N2  UNL     1      10.483   4.958  22.731  0.00  0.00    -0.285 N 
ATOM      5  C7  UNL     1       9.147   4.591  22.293  0.00  0.00    +0.110 C 
ATOM      6  C8  UNL     1       8.411   5.903  22.045  0.00  0.00    +0.029 C 
ATOM      7  C9  UNL     1       9.249   6.986  22.740  0.00  0.00    +0.038 C 
ATOM      8  C17 UNL     1      10.649   6.390  22.910  0.00  0.00    +0.117 C 
ATOM      9  H6  UNL     1      10.499   2.278  22.291  0.00  0.00    +0.156 HD
ENDROOT
BRANCH   7  10
ATOM     10  C10 UNL     1       9.248   8.310  21.997  0.00  0.00    -0.041 A 
ATOM     11  C11 UNL     1      10.172   8.566  20.965  0.00  0.00    +0.007 A 
ATOM     12  C12 UNL     1      10.165   9.795  20.288  0.00  0.00    -0.049 A 
ATOM     13  C13 UNL     1      11.128  10.043  19.166  0.00  0.00    +0.044 C 
ATOM     14  C14 UNL     1       9.207  10.763  20.623  0.00  0.00    +0.023 A 
ATOM     15  C15 UNL     1       8.286  10.517  21.644  0.00  0.00    +0.041 A 
ATOM     16 CL1  UNL     1       7.097  11.737  22.062  0.00  0.00    -0.084 Cl
ATOM     17  C16 UNL     1       8.306   9.299  22.329  0.00  0.00    +0.024 A 
ENDBRANCH   7  10
BRANCH   1  21
ATOM     18  C2  UNL     1      13.844  -0.454  24.410  0.00  0.00    +0.141 A 
ATOM     19  C3  UNL     1      12.953   0.219  25.268  0.00  0.00    +0.049 A 
ATOM     20  C4  UNL     1      12.124   1.229  24.777  0.00  0.00    +0.027 A 
ATOM     21  C5  UNL     1      12.169   1.590  23.422  0.00  0.00    +0.037 A 
ATOM     22  C18 UNL     1      13.038   0.905  22.562  0.00  0.00    +0.050 A 
ATOM     23  C19 UNL     1      13.893  -0.100  23.049  0.00  0.00    +0.077 A 
BRANCH  23  24
ATOM     24  N3  UNL     1      14.775  -0.810  22.159  0.00  0.00    -0.283 N 
ATOM     25  C20 UNL     1      16.099  -0.367  21.827  0.00  0.00    +0.214 C 
ATOM     26  C21 UNL     1      16.872  -1.068  20.757  0.00  0.00    +0.109 C 
ATOM     27  O3  UNL     1      16.652   0.558  22.482  0.00  0.00    -0.276 OA
ATOM     28  H21 UNL     1      14.465  -1.734  21.784  0.00  0.00    +0.155 HD
ENDBRANCH  23  24
BRANCH  18  30
ATOM     29  C1  UNL     1      14.279  -2.566  25.686  0.00  0.00    +0.277 C 
ATOM     30  O1  UNL     1      14.694  -1.470  24.877  0.00  0.00    -0.493 OA
ENDBRANCH  18  30
ENDBRANCH   1  21
TORSDOF 4
ENDMDL
MODEL 5
REMARK VINA RESULT:    -6.621     15.375     16.402
REMARK INTER + INTRA:          -8.835
REMARK INTER:                  -8.061
REMARK INTRA:                  -0.775
REMARK UNBOUND:                -0.666
REMARK  Name = /home/qwerty/github/datacon2025hack/step_04_hit_selection/docking/ligands/lig_773.pdb
REMARK  7 active torsions:
REMARK  status: ('A' for Active; 'I' for Inactive)
REMARK    1  A    between atoms: C1_1  and  O1_2
REMARK    2  A    between atoms: O1_2  and  C2_3
REMARK    3  A    between atoms: C5_6  and  N1_7
REMARK    4  A    between atoms: C9_13  and  C10_14
REMARK    5  A    between atoms: C12_16  and  C13_17
REMARK    6  A    between atoms: C19_24  and  N3_25
REMARK    7  A    between atoms: C20_26  and  C21_27
REMARK                            x       y       z     vdW  Elec       q    Type
REMARK                         _______ _______ _______ _____ _____    ______ ____
ROOT
ATOM      1  N1  UNL     1      18.150  10.581  36.690  0.00  0.00    -0.269 N 
ATOM      2  C6  UNL     1      18.402   9.642  35.630  0.00  0.00    +0.306 C 
ATOM      3  O2  UNL     1      17.777   9.742  34.540  0.00  0.00    -0.252 OA
ATOM      4  N2  UNL     1      19.386   8.604  35.786  0.00  0.00    -0.285 N 
ATOM      5  C7  UNL     1      20.183   8.409  36.986  0.00  0.00    +0.110 C 
ATOM      6  C8  UNL     1      21.123   7.248  36.680  0.00  0.00    +0.029 C 
ATOM      7  C9  UNL     1      20.544   6.562  35.434  0.00  0.00    +0.038 C 
ATOM      8  C17 UNL     1      19.635   7.598  34.768  0.00  0.00    +0.117 C 
ATOM      9  H6  UNL     1      18.877  10.706  37.430  0.00  0.00    +0.156 HD
ENDROOT
BRANCH   7  10
ATOM     10  C10 UNL     1      21.612   6.017  34.503  0.00  0.00    -0.041 A 
ATOM     11  C11 UNL     1      22.833   6.695  34.318  0.00  0.00    +0.007 A 
ATOM     12  C12 UNL     1      23.810   6.184  33.451  0.00  0.00    -0.049 A 
ATOM     13  C13 UNL     1      25.122   6.894  33.291  0.00  0.00    +0.044 C 
ATOM     14  C14 UNL     1      23.580   4.970  32.788  0.00  0.00    +0.023 A 
ATOM     15  C15 UNL     1      22.373   4.290  32.966  0.00  0.00    +0.041 A 
ATOM     16 CL1  UNL     1      22.089   2.777  32.125  0.00  0.00    -0.084 Cl
ATOM     17  C16 UNL     1      21.392   4.810  33.817  0.00  0.00    +0.024 A 
ENDBRANCH   7  10
BRANCH   1  21
ATOM     18  C2  UNL     1      14.721  13.106  36.747  0.00  0.00    +0.141 A 
ATOM     19  C3  UNL     1      15.969  13.615  36.340  0.00  0.00    +0.049 A 
ATOM     20  C4  UNL     1      17.099  12.795  36.330  0.00  0.00    +0.027 A 
ATOM     21  C5  UNL     1      17.008  11.453  36.731  0.00  0.00    +0.037 A 
ATOM     22  C18 UNL     1      15.762  10.939  37.114  0.00  0.00    +0.050 A 
ATOM     23  C19 UNL     1      14.621  11.760  37.147  0.00  0.00    +0.077 A 
BRANCH  23  24
ATOM     24  N3  UNL     1      13.341  11.223  37.529  0.00  0.00    -0.283 N 
ATOM     25  C20 UNL     1      12.397  10.673  36.598  0.00  0.00    +0.214 C 
ATOM     26  C21 UNL     1      11.023  10.308  37.059  0.00  0.00    +0.109 C 
ATOM     27  O3  UNL     1      12.737  10.419  35.411  0.00  0.00    -0.276 OA
ATOM     28  H21 UNL     1      13.108  11.167  38.546  0.00  0.00    +0.155 HD
ENDBRANCH  23  24
BRANCH  18  30
ATOM     29  C1  UNL     1      12.804  14.262  35.624  0.00  0.00    +0.277 C 
ATOM     30  O1  UNL     1      13.568  13.907  36.772  0.00  0.00    -0.493 OA
ENDBRANCH  18  30
ENDBRANCH   1  21
TORSDOF 4
ENDMDL
MODEL 6
REMARK VINA RESULT:    -6.578      4.276     10.377
REMARK INTER + INTRA:          -8.782
REMARK INTER:                  -8.079
REMARK INTRA:                  -0.703
REMARK UNBOUND:                -0.666
REMARK  Name = /home/qwerty/github/datacon2025hack/step_04_hit_selection/docking/ligands/lig_773.pdb
REMARK  7 active torsions:
REMARK  status: ('A' for Active; 'I' for Inactive)
REMARK    1  A    between atoms: C1_1  and  O1_2
REMARK    2  A    between atoms: O1_2  and  C2_3
REMARK    3  A    between atoms: C5_6  and  N1_7
REMARK    4  A    between atoms: C9_13  and  C10_14
REMARK    5  A    between atoms: C12_16  and  C13_17
REMARK    6  A    between atoms: C19_24  and  N3_25
REMARK    7  A    between atoms: C20_26  and  C21_27
REMARK                            x       y       z     vdW  Elec       q    Type
REMARK                         _______ _______ _______ _____ _____    ______ ____
ROOT
ATOM      1  N1  UNL     1      12.081   3.102  21.143  0.00  0.00    -0.269 N 
ATOM      2  C6  UNL     1      11.998   4.164  22.109  0.00  0.00    +0.306 C 
ATOM      3  O2  UNL     1      13.044   4.588  22.670  0.00  0.00    -0.252 OA
ATOM      4  N2  UNL     1      10.733   4.775  22.422  0.00  0.00    -0.285 N 
ATOM      5  C7  UNL     1       9.468   4.387  21.821  0.00  0.00    +0.110 C 
ATOM      6  C8  UNL     1       8.422   5.334  22.398  0.00  0.00    +0.029 C 
ATOM      7  C9  UNL     1       9.080   5.983  23.623  0.00  0.00    +0.038 C 
ATOM      8  C17 UNL     1      10.589   5.810  23.431  0.00  0.00    +0.117 C 
ATOM      9  H6  UNL     1      11.301   2.988  20.457  0.00  0.00    +0.156 HD
ENDROOT
BRANCH   7  10
ATOM     10  C10 UNL     1       8.665   7.429  23.827  0.00  0.00    -0.041 A 
ATOM     11  C11 UNL     1       8.447   7.950  25.117  0.00  0.00    +0.007 A 
ATOM     12  C12 UNL     1       8.058   9.287  25.292  0.00  0.00    -0.049 A 
ATOM     13  C13 UNL     1       7.866   9.842  26.672  0.00  0.00    +0.044 C 
ATOM     14  C14 UNL     1       7.918  10.119  24.172  0.00  0.00    +0.023 A 
ATOM     15  C15 UNL     1       8.133   9.611  22.888  0.00  0.00    +0.041 A 
ATOM     16 CL1  UNL     1       7.946  10.656  21.491  0.00  0.00    -0.084 Cl
ATOM     17  C16 UNL     1       8.502   8.274  22.714  0.00  0.00    +0.024 A 
ENDBRANCH   7  10
BRANCH   1  21
ATOM     18  C2  UNL     1      15.515   0.611  20.763  0.00  0.00    +0.141 A 
ATOM     19  C3  UNL     1      15.389   1.771  19.974  0.00  0.00    +0.049 A 
ATOM     20  C4  UNL     1      14.261   2.585  20.086  0.00  0.00    +0.027 A 
ATOM     21  C5  UNL     1      13.233   2.256  20.983  0.00  0.00    +0.037 A 
ATOM     22  C18 UNL     1      13.367   1.115  21.785  0.00  0.00    +0.050 A 
ATOM     23  C19 UNL     1      14.489   0.276  21.667  0.00  0.00    +0.077 A 
BRANCH  23  24
ATOM     24  N3  UNL     1      14.628  -0.888  22.502  0.00  0.00    -0.283 N 
ATOM     25  C20 UNL     1      15.220  -0.865  23.810  0.00  0.00    +0.214 C 
ATOM     26  C21 UNL     1      15.487  -2.148  24.527  0.00  0.00    +0.109 C 
ATOM     27  O3  UNL     1      15.445   0.228  24.396  0.00  0.00    -0.276 OA
ATOM     28  H21 UNL     1      14.216  -1.789  22.172  0.00  0.00    +0.155 HD
ENDBRANCH  23  24
BRANCH  18  30
ATOM     29  C1  UNL     1      16.909  -1.094  19.570  0.00  0.00    +0.277 C 
ATOM     30  O1  UNL     1      16.636  -0.230  20.668  0.00  0.00    -0.493 OA
ENDBRANCH  18  30
ENDBRANCH   1  21
TORSDOF 4
ENDMDL
MODEL 7
REMARK VINA RESULT:    -6.543      2.402      3.587
REMARK INTER + INTRA:          -8.739
REMARK INTER:                  -8.125
REMARK INTRA:                  -0.613
REMARK UNBOUND:                -0.666
REMARK  Name = /home/qwerty/github/datacon2025hack/step_04_hit_selection/docking/ligands/lig_773.pdb
REMARK  7 active torsions:
REMARK  status: ('A' for Active; 'I' for Inactive)
REMARK    1  A    between atoms: C1_1  and  O1_2
REMARK    2  A    between atoms: O1_2  and  C2_3
REMARK    3  A    between atoms: C5_6  and  N1_7
REMARK    4  A    between atoms: C9_13  and  C10_14
REMARK    5  A    between atoms: C12_16  and  C13_17
REMARK    6  A    between atoms: C19_24  and  N3_25
REMARK    7  A    between atoms: C20_26  and  C21_27
REMARK                            x       y       z     vdW  Elec       q    Type
REMARK                         _______ _______ _______ _____ _____    ______ ____
ROOT
ATOM      1  N1  UNL     1      11.159   3.592  21.480  0.00  0.00    -0.269 N 
ATOM      2  C6  UNL     1      12.142   3.377  22.507  0.00  0.00    +0.306 C 
ATOM      3  O2  UNL     1      12.059   4.003  23.598  0.00  0.00    -0.252 OA
ATOM      4  N2  UNL     1      13.207   2.429  22.318  0.00  0.00    -0.285 N 
ATOM      5  C7  UNL     1      13.389   1.634  21.115  0.00  0.00    +0.110 C 
ATOM      6  C8  UNL     1      14.591   0.736  21.383  0.00  0.00    +0.029 C 
ATOM      7  C9  UNL     1      15.299   1.344  22.602  0.00  0.00    +0.038 C 
ATOM      8  C17 UNL     1      14.256   2.220  23.301  0.00  0.00    +0.117 C 
ATOM      9  H6  UNL     1      11.034   2.858  20.747  0.00  0.00    +0.156 HD
ENDROOT
BRANCH   7  10
ATOM     10  C10 UNL     1      15.913   0.299  23.516  0.00  0.00    -0.041 A 
ATOM     11  C11 UNL     1      17.253   0.397  23.939  0.00  0.00    +0.007 A 
ATOM     12  C12 UNL     1      17.811  -0.578  24.780  0.00  0.00    -0.049 A 
ATOM     13  C13 UNL     1      19.228  -0.443  25.254  0.00  0.00    +0.044 C 
ATOM     14  C14 UNL     1      17.015  -1.641  25.229  0.00  0.00    +0.023 A 
ATOM     15  C15 UNL     1      15.684  -1.746  24.816  0.00  0.00    +0.041 A 
ATOM     16 CL1  UNL     1      14.698  -3.085  25.375  0.00  0.00    -0.084 Cl
ATOM     17  C16 UNL     1      15.136  -0.784  23.963  0.00  0.00    +0.024 A 
ENDBRANCH   7  10
BRANCH   1  21
ATOM     18  C2  UNL     1       8.529   6.942  21.470  0.00  0.00    +0.141 A 
ATOM     19  C3  UNL     1       8.250   5.824  22.279  0.00  0.00    +0.049 A 
ATOM     20  C4  UNL     1       9.102   4.718  22.278  0.00  0.00    +0.027 A 
ATOM     21  C5  UNL     1      10.246   4.703  21.466  0.00  0.00    +0.037 A 
ATOM     22  C18 UNL     1      10.539   5.824  20.678  0.00  0.00    +0.050 A 
ATOM     23  C19 UNL     1       9.678   6.936  20.655  0.00  0.00    +0.077 A 
BRANCH  23  24
ATOM     24  N3  UNL     1       9.989   8.091  19.854  0.00  0.00    -0.283 N 
ATOM     25  C20 UNL     1      10.851   9.153  20.287  0.00  0.00    +0.214 C 
ATOM     26  C21 UNL     1      10.971  10.395  19.465  0.00  0.00    +0.109 C 
ATOM     27  O3  UNL     1      11.571   9.020  21.313  0.00  0.00    -0.276 OA
ATOM     28  H21 UNL     1       9.624   8.131  18.876  0.00  0.00    +0.155 HD
ENDBRANCH  23  24
BRANCH  18  30
ATOM     29  C1  UNL     1       7.817   9.192  22.309  0.00  0.00    +0.277 C 
ATOM     30  O1  UNL     1       7.688   8.067  21.446  0.00  0.00    -0.493 OA
ENDBRANCH  18  30
ENDBRANCH   1  21
TORSDOF 4
ENDMDL
MODEL 8
REMARK VINA RESULT:    -6.524      8.472     11.604
REMARK INTER + INTRA:          -8.716
REMARK INTER:                  -7.998
REMARK INTRA:                  -0.718
REMARK UNBOUND:                -0.666
REMARK  Name = /home/qwerty/github/datacon2025hack/step_04_hit_selection/docking/ligands/lig_773.pdb
REMARK  7 active torsions:
REMARK  status: ('A' for Active; 'I' for Inactive)
REMARK    1  A    between atoms: C1_1  and  O1_2
REMARK    2  A    between atoms: O1_2  and  C2_3
REMARK    3  A    between atoms: C5_6  and  N1_7
REMARK    4  A    between atoms: C9_13  and  C10_14
REMARK    5  A    between atoms: C12_16  and  C13_17
REMARK    6  A    between atoms: C19_24  and  N3_25
REMARK    7  A    between atoms: C20_26  and  C21_27
REMARK                            x       y       z     vdW  Elec       q    Type
REMARK                         _______ _______ _______ _____ _____    ______ ____
ROOT
ATOM      1  N1  UNL     1      19.982   3.162  24.050  0.00  0.00    -0.269 N 
ATOM      2  C6  UNL     1      20.402   3.619  25.347  0.00  0.00    +0.306 C 
ATOM      3  O2  UNL     1      20.448   4.853  25.595  0.00  0.00    -0.252 OA
ATOM      4  N2  UNL     1      20.742   2.679  26.383  0.00  0.00    -0.285 N 
ATOM      5  C7  UNL     1      20.703   1.235  26.220  0.00  0.00    +0.110 C 
ATOM      6  C8  UNL     1      21.076   0.650  27.577  0.00  0.00    +0.029 C 
ATOM      7  C9  UNL     1      21.706   1.805  28.368  0.00  0.00    +0.038 C 
ATOM      8  C17 UNL     1      21.227   3.091  27.689  0.00  0.00    +0.117 C 
ATOM      9  H6  UNL     1      19.630   2.183  23.955  0.00  0.00    +0.156 HD
ENDROOT
BRANCH   7  10
ATOM     10  C10 UNL     1      21.385   1.757  29.851  0.00  0.00    -0.041 A 
ATOM     11  C11 UNL     1      21.983   2.656  30.756  0.00  0.00    +0.007 A 
ATOM     12  C12 UNL     1      21.683   2.598  32.125  0.00  0.00    -0.049 A 
ATOM     13  C13 UNL     1      22.296   3.585  33.074  0.00  0.00    +0.044 C 
ATOM     14  C14 UNL     1      20.754   1.656  32.590  0.00  0.00    +0.023 A 
ATOM     15  C15 UNL     1      20.155   0.761  31.700  0.00  0.00    +0.041 A 
ATOM     16 CL1  UNL     1      19.001  -0.420  32.291  0.00  0.00    -0.084 Cl
ATOM     17  C16 UNL     1      20.469   0.808  30.338  0.00  0.00    +0.024 A 
ENDBRANCH   7  10
BRANCH   1  21
ATOM     18  C2  UNL     1      19.808   5.735  20.661  0.00  0.00    +0.141 A 
ATOM     19  C3  UNL     1      18.639   5.441  21.388  0.00  0.00    +0.049 A 
ATOM     20  C4  UNL     1      18.688   4.589  22.493  0.00  0.00    +0.027 A 
ATOM     21  C5  UNL     1      19.902   4.009  22.891  0.00  0.00    +0.037 A 
ATOM     22  C18 UNL     1      21.071   4.319  22.183  0.00  0.00    +0.050 A 
ATOM     23  C19 UNL     1      21.031   5.160  21.056  0.00  0.00    +0.077 A 
BRANCH  23  24
ATOM     24  N3  UNL     1      22.236   5.486  20.339  0.00  0.00    -0.283 N 
ATOM     25  C20 UNL     1      23.107   6.571  20.694  0.00  0.00    +0.214 C 
ATOM     26  C21 UNL     1      24.233   6.947  19.787  0.00  0.00    +0.109 C 
ATOM     27  O3  UNL     1      22.981   7.161  21.800  0.00  0.00    -0.276 OA
ATOM     28  H21 UNL     1      22.535   4.860  19.557  0.00  0.00    +0.155 HD
ENDBRANCH  23  24
BRANCH  18  30
ATOM     29  C1  UNL     1      19.418   7.958  19.575  0.00  0.00    +0.277 C 
ATOM     30  O1  UNL     1      19.789   6.584  19.542  0.00  0.00    -0.493 OA
ENDBRANCH  18  30
ENDBRANCH   1  21
TORSDOF 4
ENDMDL
MODEL 9
REMARK VINA RESULT:    -6.508     12.904     16.284
REMARK INTER + INTRA:          -8.696
REMARK INTER:                  -8.017
REMARK INTRA:                  -0.679
REMARK UNBOUND:                -0.666
REMARK  Name = /home/qwerty/github/datacon2025hack/step_04_hit_selection/docking/ligands/lig_773.pdb
REMARK  7 active torsions:
REMARK  status: ('A' for Active; 'I' for Inactive)
REMARK    1  A    between atoms: C1_1  and  O1_2
REMARK    2  A    between atoms: O1_2  and  C2_3
REMARK    3  A    between atoms: C5_6  and  N1_7
REMARK    4  A    between atoms: C9_13  and  C10_14
REMARK    5  A    between atoms: C12_16  and  C13_17
REMARK    6  A    between atoms: C19_24  and  N3_25
REMARK    7  A    between atoms: C20_26  and  C21_27
REMARK                            x       y       z     vdW  Elec       q    Type
REMARK                         _______ _______ _______ _____ _____    ______ ____
ROOT
ATOM      1  N1  UNL     1      20.133   2.156  32.338  0.00  0.00    -0.269 N 
ATOM      2  C6  UNL     1      19.035   1.267  32.607  0.00  0.00    +0.306 C 
ATOM      3  O2  UNL     1      18.784   0.320  31.814  0.00  0.00    -0.252 OA
ATOM      4  N2  UNL     1      18.235   1.424  33.792  0.00  0.00    -0.285 N 
ATOM      5  C7  UNL     1      18.447   2.462  34.788  0.00  0.00    +0.110 C 
ATOM      6  C8  UNL     1      17.418   2.207  35.884  0.00  0.00    +0.029 C 
ATOM      7  C9  UNL     1      16.386   1.251  35.270  0.00  0.00    +0.038 C 
ATOM      8  C17 UNL     1      17.082   0.588  34.078  0.00  0.00    +0.117 C 
ATOM      9  H6  UNL     1      20.537   2.704  33.130  0.00  0.00    +0.156 HD
ENDROOT
BRANCH   7  10
ATOM     10  C10 UNL     1      15.830   0.252  36.270  0.00  0.00    -0.041 A 
ATOM     11  C11 UNL     1      16.543  -0.914  36.607  0.00  0.00    +0.007 A 
ATOM     12  C12 UNL     1      16.017  -1.833  37.528  0.00  0.00    -0.049 A 
ATOM     13  C13 UNL     1      16.802  -3.053  37.909  0.00  0.00    +0.044 C 
ATOM     14  C14 UNL     1      14.784  -1.568  38.141  0.00  0.00    +0.023 A 
ATOM     15  C15 UNL     1      14.070  -0.412  37.813  0.00  0.00    +0.041 A 
ATOM     16 CL1  UNL     1      12.524  -0.094  38.578  0.00  0.00    -0.084 Cl
ATOM     17  C16 UNL     1      14.587   0.492  36.882  0.00  0.00    +0.024 A 
ENDBRANCH   7  10
BRANCH   1  21
ATOM     18  C2  UNL     1      22.168   2.455  28.609  0.00  0.00    +0.141 A 
ATOM     19  C3  UNL     1      21.083   3.305  28.894  0.00  0.00    +0.049 A 
ATOM     20  C4  UNL     1      20.404   3.204  30.109  0.00  0.00    +0.027 A 
ATOM     21  C5  UNL     1      20.791   2.250  31.063  0.00  0.00    +0.037 A 
ATOM     22  C18 UNL     1      21.887   1.420  30.791  0.00  0.00    +0.050 A 
ATOM     23  C19 UNL     1      22.565   1.497  29.562  0.00  0.00    +0.077 A 
BRANCH  23  24
ATOM     24  N3  UNL     1      23.698   0.651  29.292  0.00  0.00    -0.283 N 
ATOM     25  C20 UNL     1      23.594  -0.749  28.994  0.00  0.00    +0.214 C 
ATOM     26  C21 UNL     1      24.829  -1.585  28.908  0.00  0.00    +0.109 C 
ATOM     27  O3  UNL     1      22.477  -1.269  28.724  0.00  0.00    -0.276 OA
ATOM     28  H21 UNL     1      24.645   1.088  29.243  0.00  0.00    +0.155 HD
ENDBRANCH  23  24
BRANCH  18  30
ATOM     29  C1  UNL     1      22.290   2.918  26.150  0.00  0.00    +0.277 C 
ATOM     30  O1  UNL     1      22.867   2.529  27.392  0.00  0.00    -0.493 OA
ENDBRANCH  18  30
ENDBRANCH   1  21
TORSDOF 4
ENDMDL
