MODEL 1
REMARK VINA RESULT:    -6.264      0.000      0.000
REMARK INTER + INTRA:          -8.803
REMARK INTER:                  -8.096
REMARK INTRA:                  -0.707
REMARK UNBOUND:                -0.707
REMARK  Name = /home/qwerty/github/datacon2025hack/step_04_hit_selection/docking/ligands/lig_208.pdb
REMARK  8 active torsions:
REMARK  status: ('A' for Active; 'I' for Inactive)
REMARK    1  A    between atoms: C1_1  and  C2_2
REMARK    2  A    between atoms: C3_4  and  C4_5
REMARK    3  A    between atoms: C10_12  and  C11_13
REMARK    4  A    between atoms: C11_13  and  C12_14
REMARK    5  A    between atoms: C11_13  and  N2_15
REMARK    6  A    between atoms: N2_15  and  C13_16
REMARK    7  A    between atoms: N3_19  and  C15_20
REMARK    8  A    between atoms: C15_20  and  C16_21
REMARK                            x       y       z     vdW  Elec       q    Type
REMARK                         _______ _______ _______ _____ _____    ______ ____
ROOT
ATOM      1  C11 UNL     1      15.165  -1.016  25.386  0.00  0.00    +0.113 C 
ATOM      2  C12 UNL     1      14.526  -1.164  26.768  0.00  0.00    +0.034 C 
ENDROOT
BRANCH   1   8
ATOM      3  C1  UNL     1      17.700  -2.951  24.512  0.00  0.00    +0.066 C 
ATOM      4  C2  UNL     1      17.762  -1.547  25.032  0.00  0.00    +0.051 A 
ATOM      5  N1  UNL     1      18.975  -0.950  25.203  0.00  0.00    -0.244 NA
ATOM      6  C3  UNL     1      18.884   0.310  25.677  0.00  0.00    +0.109 A 
ATOM      7  S1  UNL     1      17.275   0.735  25.905  0.00  0.00    -0.070 S 
ATOM      8  C10 UNL     1      16.657  -0.737  25.367  0.00  0.00    +0.033 A 
BRANCH   6   9
ATOM      9  C4  UNL     1      20.057   1.171  25.951  0.00  0.00    +0.007 A 
ATOM     10  C5  UNL     1      20.519   2.092  24.992  0.00  0.00    +0.010 A 
ATOM     11  C6  UNL     1      21.629   2.899  25.264  0.00  0.00    +0.001 A 
ATOM     12  C7  UNL     1      22.288   2.797  26.491  0.00  0.00    +0.000 A 
ATOM     13  C8  UNL     1      21.839   1.886  27.449  0.00  0.00    +0.001 A 
ATOM     14  C9  UNL     1      20.730   1.077  27.184  0.00  0.00    +0.010 A 
ENDBRANCH   6   9
ENDBRANCH   1   8
BRANCH   1  15
ATOM     15  N2  UNL     1      14.432  -0.021  24.577  0.00  0.00    -0.281 N 
ATOM     16  C13 UNL     1      13.475   0.892  25.215  0.00  0.00    +0.134 C 
ATOM     17  C14 UNL     1      14.561  -0.022  23.137  0.00  0.00    +0.303 C 
ATOM     18  O1  UNL     1      15.103  -1.003  22.559  0.00  0.00    -0.253 OA
ATOM     19  N3  UNL     1      14.077   1.077  22.345  0.00  0.00    -0.298 N 
ATOM     20  H16 UNL     1      13.671   1.914  22.817  0.00  0.00    +0.150 HD
BRANCH  19  21
ATOM     21  C15 UNL     1      14.199   1.069  20.885  0.00  0.00    +0.124 C 
BRANCH  21  22
ATOM     22  C16 UNL     1      15.528   1.709  20.422  0.00  0.00    +0.071 C 
ATOM     23  C17 UNL     1      16.272   2.388  21.606  0.00  0.00    +0.020 C 
ATOM     24  C18 UNL     1      17.092   3.586  21.128  0.00  0.00    +0.003 C 
ATOM     25  C19 UNL     1      16.195   4.636  20.452  0.00  0.00    +0.015 C 
ATOM     26  C20 UNL     1      14.993   4.002  19.730  0.00  0.00    +0.081 C 
ATOM     27  N4  UNL     1      15.316   2.640  19.288  0.00  0.00    -0.312 NA
ATOM     28  H28 UNL     1      14.549   2.295  18.665  0.00  0.00    +0.122 HD
ENDBRANCH  21  22
ENDBRANCH  19  21
ENDBRANCH   1  15
TORSDOF 5
ENDMDL
MODEL 2
REMARK VINA RESULT:    -6.219     12.113     14.383
REMARK INTER + INTRA:          -8.745
REMARK INTER:                  -8.424
REMARK INTRA:                  -0.321
REMARK UNBOUND:                -0.707
REMARK  Name = /home/qwerty/github/datacon2025hack/step_04_hit_selection/docking/ligands/lig_208.pdb
REMARK  8 active torsions:
REMARK  status: ('A' for Active; 'I' for Inactive)
REMARK    1  A    between atoms: C1_1  and  C2_2
REMARK    2  A    between atoms: C3_4  and  C4_5
REMARK    3  A    between atoms: C10_12  and  C11_13
REMARK    4  A    between atoms: C11_13  and  C12_14
REMARK    5  A    between atoms: C11_13  and  N2_15
REMARK    6  A    between atoms: N2_15  and  C13_16
REMARK    7  A    between atoms: N3_19  and  C15_20
REMARK    8  A    between atoms: C15_20  and  C16_21
REMARK                            x       y       z     vdW  Elec       q    Type
REMARK                         _______ _______ _______ _____ _____    ______ ____
ROOT
ATOM      1  C11 UNL     1       7.537  10.028  28.925  0.00  0.00    +0.113 C 
ATOM      2  C12 UNL     1       6.851   9.005  29.833  0.00  0.00    +0.034 C 
ENDROOT
BRANCH   1   8
ATOM      3  C1  UNL     1       7.189   7.071  27.486  0.00  0.00    +0.066 C 
ATOM      4  C2  UNL     1       7.637   8.349  26.845  0.00  0.00    +0.051 A 
ATOM      5  N1  UNL     1       7.970   8.354  25.524  0.00  0.00    -0.244 NA
ATOM      6  C3  UNL     1       8.355   9.569  25.079  0.00  0.00    +0.109 A 
ATOM      7  S1  UNL     1       8.297  10.695  26.324  0.00  0.00    -0.070 S 
ATOM      8  C10 UNL     1       7.745   9.604  27.482  0.00  0.00    +0.033 A 
BRANCH   6   9
ATOM      9  C4  UNL     1       8.769   9.838  23.683  0.00  0.00    +0.007 A 
ATOM     10  C5  UNL     1      10.104   9.655  23.275  0.00  0.00    +0.010 A 
ATOM     11  C6  UNL     1      10.482   9.913  21.953  0.00  0.00    +0.001 A 
ATOM     12  C7  UNL     1       9.535  10.355  21.026  0.00  0.00    +0.000 A 
ATOM     13  C8  UNL     1       8.208  10.541  21.419  0.00  0.00    +0.001 A 
ATOM     14  C9  UNL     1       7.825  10.284  22.739  0.00  0.00    +0.010 A 
ENDBRANCH   6   9
ENDBRANCH   1   8
BRANCH   1  15
ATOM     15  N2  UNL     1       8.804  10.491  29.527  0.00  0.00    -0.281 N 
ATOM     16  C13 UNL     1       9.732   9.528  30.131  0.00  0.00    +0.134 C 
ATOM     17  C14 UNL     1       9.080  11.907  29.632  0.00  0.00    +0.303 C 
ATOM     18  O1  UNL     1       8.154  12.740  29.432  0.00  0.00    -0.253 OA
ATOM     19  N3  UNL     1      10.393  12.386  29.968  0.00  0.00    -0.298 N 
ATOM     20  H16 UNL     1      11.175  11.707  30.088  0.00  0.00    +0.150 HD
BRANCH  19  21
ATOM     21  C15 UNL     1      10.668  13.821  30.085  0.00  0.00    +0.124 C 
BRANCH  21  22
ATOM     22  C16 UNL     1      11.261  14.395  28.779  0.00  0.00    +0.071 C 
ATOM     23  C17 UNL     1      11.698  13.261  27.809  0.00  0.00    +0.020 C 
ATOM     24  C18 UNL     1      12.885  13.697  26.949  0.00  0.00    +0.003 C 
ATOM     25  C19 UNL     1      14.090  14.081  27.823  0.00  0.00    +0.015 C 
ATOM     26  C20 UNL     1      13.666  14.686  29.174  0.00  0.00    +0.081 C 
ATOM     27  N4  UNL     1      12.362  15.349  29.055  0.00  0.00    -0.312 NA
ATOM     28  H28 UNL     1      12.173  15.886  29.933  0.00  0.00    +0.122 HD
ENDBRANCH  21  22
ENDBRANCH  19  21
ENDBRANCH   1  15
TORSDOF 5
ENDMDL
MODEL 3
REMARK VINA RESULT:    -6.211      8.956     12.177
REMARK INTER + INTRA:          -8.733
REMARK INTER:                  -7.977
REMARK INTRA:                  -0.756
REMARK UNBOUND:                -0.707
REMARK  Name = /home/qwerty/github/datacon2025hack/step_04_hit_selection/docking/ligands/lig_208.pdb
REMARK  8 active torsions:
REMARK  status: ('A' for Active; 'I' for Inactive)
REMARK    1  A    between atoms: C1_1  and  C2_2
REMARK    2  A    between atoms: C3_4  and  C4_5
REMARK    3  A    between atoms: C10_12  and  C11_13
REMARK    4  A    between atoms: C11_13  and  C12_14
REMARK    5  A    between atoms: C11_13  and  N2_15
REMARK    6  A    between atoms: N2_15  and  C13_16
REMARK    7  A    between atoms: N3_19  and  C15_20
REMARK    8  A    between atoms: C15_20  and  C16_21
REMARK                            x       y       z     vdW  Elec       q    Type
REMARK                         _______ _______ _______ _____ _____    ______ ____
ROOT
ATOM      1  C11 UNL     1       8.656   9.627  21.485  0.00  0.00    +0.113 C 
ATOM      2  C12 UNL     1       9.087  10.759  20.550  0.00  0.00    +0.034 C 
ENDROOT
BRANCH   1   8
ATOM      3  C1  UNL     1      11.506   9.976  23.126  0.00  0.00    +0.066 C 
ATOM      4  C2  UNL     1      10.121   9.968  23.697  0.00  0.00    +0.051 A 
ATOM      5  N1  UNL     1       9.952  10.097  25.043  0.00  0.00    -0.244 NA
ATOM      6  C3  UNL     1       8.656  10.072  25.419  0.00  0.00    +0.109 A 
ATOM      7  S1  UNL     1       7.660   9.885  24.079  0.00  0.00    -0.070 S 
ATOM      8  C10 UNL     1       8.921   9.847  22.964  0.00  0.00    +0.033 A 
BRANCH   6   9
ATOM      9  C4  UNL     1       8.207  10.191  26.825  0.00  0.00    +0.007 A 
ATOM     10  C5  UNL     1       8.437  11.368  27.562  0.00  0.00    +0.010 A 
ATOM     11  C6  UNL     1       8.008  11.468  28.890  0.00  0.00    +0.001 A 
ATOM     12  C7  UNL     1       7.346  10.397  29.495  0.00  0.00    +0.000 A 
ATOM     13  C8  UNL     1       7.114   9.224  28.775  0.00  0.00    +0.001 A 
ATOM     14  C9  UNL     1       7.540   9.119  27.448  0.00  0.00    +0.010 A 
ENDBRANCH   6   9
ENDBRANCH   1   8
BRANCH   1  15
ATOM     15  N2  UNL     1       9.217   8.337  21.035  0.00  0.00    -0.281 N 
ATOM     16  C13 UNL     1      10.476   8.300  20.282  0.00  0.00    +0.134 C 
ATOM     17  C14 UNL     1       8.467   7.115  21.228  0.00  0.00    +0.303 C 
ATOM     18  O1  UNL     1       7.252   7.174  21.560  0.00  0.00    -0.253 OA
ATOM     19  N3  UNL     1       9.082   5.828  21.043  0.00  0.00    -0.298 N 
ATOM     20  H16 UNL     1      10.098   5.769  20.815  0.00  0.00    +0.150 HD
BRANCH  19  21
ATOM     21  C15 UNL     1       8.318   4.592  21.228  0.00  0.00    +0.124 C 
BRANCH  21  22
ATOM     22  C16 UNL     1       8.722   3.863  22.530  0.00  0.00    +0.071 C 
ATOM     23  C17 UNL     1       9.851   4.626  23.278  0.00  0.00    +0.020 C 
ATOM     24  C18 UNL     1      10.746   3.661  24.057  0.00  0.00    +0.003 C 
ATOM     25  C19 UNL     1      11.394   2.629  23.120  0.00  0.00    +0.015 C 
ATOM     26  C20 UNL     1      10.494   2.278  21.921  0.00  0.00    +0.081 C 
ATOM     27  N4  UNL     1       9.079   2.447  22.272  0.00  0.00    -0.312 NA
ATOM     28  H28 UNL     1       8.489   2.052  21.503  0.00  0.00    +0.122 HD
ENDBRANCH  21  22
ENDBRANCH  19  21
ENDBRANCH   1  15
TORSDOF 5
ENDMDL
MODEL 4
REMARK VINA RESULT:    -6.177      8.346     11.962
REMARK INTER + INTRA:          -8.690
REMARK INTER:                  -7.872
REMARK INTRA:                  -0.819
REMARK UNBOUND:                -0.707
REMARK  Name = /home/qwerty/github/datacon2025hack/step_04_hit_selection/docking/ligands/lig_208.pdb
REMARK  8 active torsions:
REMARK  status: ('A' for Active; 'I' for Inactive)
REMARK    1  A    between atoms: C1_1  and  C2_2
REMARK    2  A    between atoms: C3_4  and  C4_5
REMARK    3  A    between atoms: C10_12  and  C11_13
REMARK    4  A    between atoms: C11_13  and  C12_14
REMARK    5  A    between atoms: C11_13  and  N2_15
REMARK    6  A    between atoms: N2_15  and  C13_16
REMARK    7  A    between atoms: N3_19  and  C15_20
REMARK    8  A    between atoms: C15_20  and  C16_21
REMARK                            x       y       z     vdW  Elec       q    Type
REMARK                         _______ _______ _______ _____ _____    ______ ____
ROOT
ATOM      1  C11 UNL     1      18.910   4.145  31.873  0.00  0.00    +0.113 C 
ATOM      2  C12 UNL     1      17.693   3.235  32.050  0.00  0.00    +0.034 C 
ENDROOT
BRANCH   1   8
ATOM      3  C1  UNL     1      20.820   5.557  29.572  0.00  0.00    +0.066 C 
ATOM      4  C2  UNL     1      20.866   4.137  30.049  0.00  0.00    +0.051 A 
ATOM      5  N1  UNL     1      21.766   3.275  29.498  0.00  0.00    -0.244 NA
ATOM      6  C3  UNL     1      21.698   2.032  30.019  0.00  0.00    +0.109 A 
ATOM      7  S1  UNL     1      20.504   1.956  31.198  0.00  0.00    -0.070 S 
ATOM      8  C10 UNL     1      20.056   3.573  31.057  0.00  0.00    +0.033 A 
BRANCH   6   9
ATOM      9  C4  UNL     1      22.567   0.913  29.589  0.00  0.00    +0.007 A 
ATOM     10  C5  UNL     1      23.967   1.046  29.575  0.00  0.00    +0.010 A 
ATOM     11  C6  UNL     1      24.776  -0.019  29.166  0.00  0.00    +0.001 A 
ATOM     12  C7  UNL     1      24.198  -1.226  28.767  0.00  0.00    +0.000 A 
ATOM     13  C8  UNL     1      22.810  -1.370  28.775  0.00  0.00    +0.001 A 
ATOM     14  C9  UNL     1      21.996  -0.309  29.184  0.00  0.00    +0.010 A 
ENDBRANCH   6   9
ENDBRANCH   1   8
BRANCH   1  15
ATOM     15  N2  UNL     1      19.388   4.636  33.181  0.00  0.00    -0.281 N 
ATOM     16  C13 UNL     1      19.387   3.749  34.351  0.00  0.00    +0.134 C 
ATOM     17  C14 UNL     1      19.744   6.028  33.345  0.00  0.00    +0.303 C 
ATOM     18  O1  UNL     1      19.429   6.863  32.453  0.00  0.00    -0.253 OA
ATOM     19  N3  UNL     1      20.450   6.483  34.513  0.00  0.00    -0.298 N 
ATOM     20  H16 UNL     1      20.757   5.794  35.232  0.00  0.00    +0.150 HD
BRANCH  19  21
ATOM     21  C15 UNL     1      20.800   7.896  34.681  0.00  0.00    +0.124 C 
BRANCH  21  22
ATOM     22  C16 UNL     1      22.054   8.070  35.569  0.00  0.00    +0.071 C 
ATOM     23  C17 UNL     1      22.866   6.747  35.666  0.00  0.00    +0.020 C 
ATOM     24  C18 UNL     1      23.587   6.640  37.010  0.00  0.00    +0.003 C 
ATOM     25  C19 UNL     1      22.589   6.685  38.178  0.00  0.00    +0.015 C 
ATOM     26  C20 UNL     1      21.358   7.555  37.866  0.00  0.00    +0.081 C 
ATOM     27  N4  UNL     1      21.704   8.610  36.905  0.00  0.00    -0.312 NA
ATOM     28  H28 UNL     1      20.903   9.280  36.833  0.00  0.00    +0.122 HD
ENDBRANCH  21  22
ENDBRANCH  19  21
ENDBRANCH   1  15
TORSDOF 5
ENDMDL
MODEL 5
REMARK VINA RESULT:    -6.177     15.162     17.357
REMARK INTER + INTRA:          -8.689
REMARK INTER:                  -8.019
REMARK INTRA:                  -0.670
REMARK UNBOUND:                -0.707
REMARK  Name = /home/qwerty/github/datacon2025hack/step_04_hit_selection/docking/ligands/lig_208.pdb
REMARK  8 active torsions:
REMARK  status: ('A' for Active; 'I' for Inactive)
REMARK    1  A    between atoms: C1_1  and  C2_2
REMARK    2  A    between atoms: C3_4  and  C4_5
REMARK    3  A    between atoms: C10_12  and  C11_13
REMARK    4  A    between atoms: C11_13  and  C12_14
REMARK    5  A    between atoms: C11_13  and  N2_15
REMARK    6  A    between atoms: N2_15  and  C13_16
REMARK    7  A    between atoms: N3_19  and  C15_20
REMARK    8  A    between atoms: C15_20  and  C16_21
REMARK                            x       y       z     vdW  Elec       q    Type
REMARK                         _______ _______ _______ _____ _____    ______ ____
ROOT
ATOM      1  C11 UNL     1      11.553  14.064  35.229  0.00  0.00    +0.113 C 
ATOM      2  C12 UNL     1      10.125  14.024  35.776  0.00  0.00    +0.034 C 
ENDROOT
BRANCH   1   8
ATOM      3  C1  UNL     1      11.189  11.205  33.607  0.00  0.00    +0.066 C 
ATOM      4  C2  UNL     1      11.594  12.530  33.038  0.00  0.00    +0.051 A 
ATOM      5  N1  UNL     1      11.874  12.630  31.708  0.00  0.00    -0.244 NA
ATOM      6  C3  UNL     1      12.226  13.877  31.331  0.00  0.00    +0.109 A 
ATOM      7  S1  UNL     1      12.201  14.916  32.652  0.00  0.00    -0.070 S 
ATOM      8  C10 UNL     1      11.710  13.741  33.753  0.00  0.00    +0.033 A 
BRANCH   6   9
ATOM      9  C4  UNL     1      12.581  14.246  29.942  0.00  0.00    +0.007 A 
ATOM     10  C5  UNL     1      11.584  14.461  28.972  0.00  0.00    +0.010 A 
ATOM     11  C6  UNL     1      11.934  14.808  27.663  0.00  0.00    +0.001 A 
ATOM     12  C7  UNL     1      13.278  14.946  27.308  0.00  0.00    +0.000 A 
ATOM     13  C8  UNL     1      14.275  14.735  28.262  0.00  0.00    +0.001 A 
ATOM     14  C9  UNL     1      13.932  14.388  29.572  0.00  0.00    +0.010 A 
ENDBRANCH   6   9
ENDBRANCH   1   8
BRANCH   1  15
ATOM     15  N2  UNL     1      12.449  13.226  36.050  0.00  0.00    -0.281 N 
ATOM     16  C13 UNL     1      11.909  12.100  36.823  0.00  0.00    +0.134 C 
ATOM     17  C14 UNL     1      13.843  13.583  36.196  0.00  0.00    +0.303 C 
ATOM     18  O1  UNL     1      14.238  14.721  35.821  0.00  0.00    -0.253 OA
ATOM     19  N3  UNL     1      14.792  12.664  36.765  0.00  0.00    -0.298 N 
ATOM     20  H16 UNL     1      14.485  11.705  37.032  0.00  0.00    +0.150 HD
BRANCH  19  21
ATOM     21  C15 UNL     1      16.201  13.033  36.920  0.00  0.00    +0.124 C 
BRANCH  21  22
ATOM     22  C16 UNL     1      17.045  12.581  35.707  0.00  0.00    +0.071 C 
ATOM     23  C17 UNL     1      17.010  11.036  35.537  0.00  0.00    +0.020 C 
ATOM     24  C18 UNL     1      18.311  10.519  34.921  0.00  0.00    +0.003 C 
ATOM     25  C19 UNL     1      19.521  10.885  35.796  0.00  0.00    +0.015 C 
ATOM     26  C20 UNL     1      19.326  12.219  36.539  0.00  0.00    +0.081 C 
ATOM     27  N4  UNL     1      18.430  13.104  35.783  0.00  0.00    -0.312 NA
ATOM     28  H28 UNL     1      18.442  14.054  36.221  0.00  0.00    +0.122 HD
ENDBRANCH  21  22
ENDBRANCH  19  21
ENDBRANCH   1  15
TORSDOF 5
ENDMDL
MODEL 6
REMARK VINA RESULT:    -6.132      5.629      8.101
REMARK INTER + INTRA:          -8.632
REMARK INTER:                  -7.859
REMARK INTRA:                  -0.773
REMARK UNBOUND:                -0.707
REMARK  Name = /home/qwerty/github/datacon2025hack/step_04_hit_selection/docking/ligands/lig_208.pdb
REMARK  8 active torsions:
REMARK  status: ('A' for Active; 'I' for Inactive)
REMARK    1  A    between atoms: C1_1  and  C2_2
REMARK    2  A    between atoms: C3_4  and  C4_5
REMARK    3  A    between atoms: C10_12  and  C11_13
REMARK    4  A    between atoms: C11_13  and  C12_14
REMARK    5  A    between atoms: C11_13  and  N2_15
REMARK    6  A    between atoms: N2_15  and  C13_16
REMARK    7  A    between atoms: N3_19  and  C15_20
REMARK    8  A    between atoms: C15_20  and  C16_21
REMARK                            x       y       z     vdW  Elec       q    Type
REMARK                         _______ _______ _______ _____ _____    ______ ____
ROOT
ATOM      1  C11 UNL     1      10.141   3.341  22.042  0.00  0.00    +0.113 C 
ATOM      2  C12 UNL     1       9.466   2.401  23.043  0.00  0.00    +0.034 C 
ENDROOT
BRANCH   1   8
ATOM      3  C1  UNL     1      12.132   4.715  19.786  0.00  0.00    +0.066 C 
ATOM      4  C2  UNL     1      12.370   3.459  20.568  0.00  0.00    +0.051 A 
ATOM      5  N1  UNL     1      13.512   2.746  20.357  0.00  0.00    -0.244 NA
ATOM      6  C3  UNL     1      13.596   1.639  21.125  0.00  0.00    +0.109 A 
ATOM      7  S1  UNL     1      12.240   1.502  22.106  0.00  0.00    -0.070 S 
ATOM      8  C10 UNL     1      11.512   2.915  21.547  0.00  0.00    +0.033 A 
BRANCH   6   9
ATOM      9  C4  UNL     1      14.737   0.696  21.082  0.00  0.00    +0.007 A 
ATOM     10  C5  UNL     1      15.545   0.587  19.935  0.00  0.00    +0.010 A 
ATOM     11  C6  UNL     1      16.619  -0.309  19.909  0.00  0.00    +0.001 A 
ATOM     12  C7  UNL     1      16.899  -1.102  21.023  0.00  0.00    +0.000 A 
ATOM     13  C8  UNL     1      16.104  -1.003  22.166  0.00  0.00    +0.001 A 
ATOM     14  C9  UNL     1      15.029  -0.110  22.199  0.00  0.00    +0.010 A 
ENDBRANCH   6   9
ENDBRANCH   1   8
BRANCH   1  15
ATOM     15  N2  UNL     1      10.175   4.722  22.565  0.00  0.00    -0.281 N 
ATOM     16  C13 UNL     1      11.090   5.077  23.657  0.00  0.00    +0.134 C 
ATOM     17  C14 UNL     1       9.223   5.700  22.088  0.00  0.00    +0.303 C 
ATOM     18  O1  UNL     1       8.227   5.324  21.412  0.00  0.00    -0.253 OA
ATOM     19  N3  UNL     1       9.387   7.100  22.375  0.00  0.00    -0.298 N 
ATOM     20  H16 UNL     1      10.232   7.425  22.892  0.00  0.00    +0.150 HD
BRANCH  19  21
ATOM     21  C15 UNL     1       8.415   8.088  21.900  0.00  0.00    +0.124 C 
BRANCH  21  22
ATOM     22  C16 UNL     1       9.092   9.192  21.055  0.00  0.00    +0.071 C 
ATOM     23  C17 UNL     1      10.355   8.652  20.328  0.00  0.00    +0.020 C 
ATOM     24  C18 UNL     1      11.399   9.754  20.143  0.00  0.00    +0.003 C 
ATOM     25  C19 UNL     1      11.830  10.340  21.498  0.00  0.00    +0.015 C 
ATOM     26  C20 UNL     1      10.692  10.320  22.535  0.00  0.00    +0.081 C 
ATOM     27  N4  UNL     1       9.386  10.395  21.869  0.00  0.00    -0.312 NA
ATOM     28  H28 UNL     1       8.644  10.542  22.592  0.00  0.00    +0.122 HD
ENDBRANCH  21  22
ENDBRANCH  19  21
ENDBRANCH   1  15
TORSDOF 5
ENDMDL
MODEL 7
REMARK VINA RESULT:    -6.107     15.091     17.531
REMARK INTER + INTRA:          -8.600
REMARK INTER:                  -8.118
REMARK INTRA:                  -0.482
REMARK UNBOUND:                -0.707
REMARK  Name = /home/qwerty/github/datacon2025hack/step_04_hit_selection/docking/ligands/lig_208.pdb
REMARK  8 active torsions:
REMARK  status: ('A' for Active; 'I' for Inactive)
REMARK    1  A    between atoms: C1_1  and  C2_2
REMARK    2  A    between atoms: C3_4  and  C4_5
REMARK    3  A    between atoms: C10_12  and  C11_13
REMARK    4  A    between atoms: C11_13  and  C12_14
REMARK    5  A    between atoms: C11_13  and  N2_15
REMARK    6  A    between atoms: N2_15  and  C13_16
REMARK    7  A    between atoms: N3_19  and  C15_20
REMARK    8  A    between atoms: C15_20  and  C16_21
REMARK                            x       y       z     vdW  Elec       q    Type
REMARK                         _______ _______ _______ _____ _____    ______ ____
ROOT
ATOM      1  C11 UNL     1      12.576  12.019  36.426  0.00  0.00    +0.113 C 
ATOM      2  C12 UNL     1      11.582  11.030  37.038  0.00  0.00    +0.034 C 
ENDROOT
BRANCH   1   8
ATOM      3  C1  UNL     1      10.085  14.171  36.108  0.00  0.00    +0.066 C 
ATOM      4  C2  UNL     1      11.014  13.687  35.036  0.00  0.00    +0.051 A 
ATOM      5  N1  UNL     1      10.853  14.135  33.760  0.00  0.00    -0.244 NA
ATOM      6  C3  UNL     1      11.755  13.619  32.898  0.00  0.00    +0.109 A 
ATOM      7  S1  UNL     1      12.798  12.573  33.700  0.00  0.00    -0.070 S 
ATOM      8  C10 UNL     1      12.089  12.790  35.212  0.00  0.00    +0.033 A 
BRANCH   6   9
ATOM      9  C4  UNL     1      11.792  13.945  31.455  0.00  0.00    +0.007 A 
ATOM     10  C5  UNL     1      10.742  13.565  30.599  0.00  0.00    +0.010 A 
ATOM     11  C6  UNL     1      10.789  13.880  29.237  0.00  0.00    +0.001 A 
ATOM     12  C7  UNL     1      11.882  14.575  28.715  0.00  0.00    +0.000 A 
ATOM     13  C8  UNL     1      12.931  14.956  29.554  0.00  0.00    +0.001 A 
ATOM     14  C9  UNL     1      12.888  14.645  30.916  0.00  0.00    +0.010 A 
ENDBRANCH   6   9
ENDBRANCH   1   8
BRANCH   1  15
ATOM     15  N2  UNL     1      13.866  11.356  36.147  0.00  0.00    -0.281 N 
ATOM     16  C13 UNL     1      13.896   9.963  35.683  0.00  0.00    +0.134 C 
ATOM     17  C14 UNL     1      15.108  12.033  36.444  0.00  0.00    +0.303 C 
ATOM     18  O1  UNL     1      15.095  13.078  37.150  0.00  0.00    -0.253 OA
ATOM     19  N3  UNL     1      16.364  11.534  35.953  0.00  0.00    -0.298 N 
ATOM     20  H16 UNL     1      16.380  10.699  35.329  0.00  0.00    +0.150 HD
BRANCH  19  21
ATOM     21  C15 UNL     1      17.623  12.216  36.265  0.00  0.00    +0.124 C 
BRANCH  21  22
ATOM     22  C16 UNL     1      18.787  11.214  36.433  0.00  0.00    +0.071 C 
ATOM     23  C17 UNL     1      18.592   9.964  35.530  0.00  0.00    +0.020 C 
ATOM     24  C18 UNL     1      19.215   8.721  36.166  0.00  0.00    +0.003 C 
ATOM     25  C19 UNL     1      18.590   8.431  37.540  0.00  0.00    +0.015 C 
ATOM     26  C20 UNL     1      18.157   9.714  38.271  0.00  0.00    +0.081 C 
ATOM     27  N4  UNL     1      18.990  10.850  37.856  0.00  0.00    -0.312 NA
ATOM     28  H28 UNL     1      18.787  11.666  38.478  0.00  0.00    +0.122 HD
ENDBRANCH  21  22
ENDBRANCH  19  21
ENDBRANCH   1  15
TORSDOF 5
ENDMDL
MODEL 8
REMARK VINA RESULT:    -6.093     14.532     15.858
REMARK INTER + INTRA:          -8.582
REMARK INTER:                  -7.751
REMARK INTRA:                  -0.830
REMARK UNBOUND:                -0.707
REMARK  Name = /home/qwerty/github/datacon2025hack/step_04_hit_selection/docking/ligands/lig_208.pdb
REMARK  8 active torsions:
REMARK  status: ('A' for Active; 'I' for Inactive)
REMARK    1  A    between atoms: C1_1  and  C2_2
REMARK    2  A    between atoms: C3_4  and  C4_5
REMARK    3  A    between atoms: C10_12  and  C11_13
REMARK    4  A    between atoms: C11_13  and  C12_14
REMARK    5  A    between atoms: C11_13  and  N2_15
REMARK    6  A    between atoms: N2_15  and  C13_16
REMARK    7  A    between atoms: N3_19  and  C15_20
REMARK    8  A    between atoms: C15_20  and  C16_21
REMARK                            x       y       z     vdW  Elec       q    Type
REMARK                         _______ _______ _______ _____ _____    ______ ____
ROOT
ATOM      1  C11 UNL     1      18.160  11.957  35.980  0.00  0.00    +0.113 C 
ATOM      2  C12 UNL     1      18.756  13.032  35.069  0.00  0.00    +0.034 C 
ENDROOT
BRANCH   1   8
ATOM      3  C1  UNL     1      18.051   9.673  38.369  0.00  0.00    +0.066 C 
ATOM      4  C2  UNL     1      19.017   9.751  37.227  0.00  0.00    +0.051 A 
ATOM      5  N1  UNL     1      19.998   8.812  37.115  0.00  0.00    -0.244 NA
ATOM      6  C3  UNL     1      20.797   9.004  36.044  0.00  0.00    +0.109 A 
ATOM      7  S1  UNL     1      20.309  10.363  35.185  0.00  0.00    -0.070 S 
ATOM      8  C10 UNL     1      19.018  10.724  36.204  0.00  0.00    +0.033 A 
BRANCH   6   9
ATOM      9  C4  UNL     1      21.937   8.123  35.702  0.00  0.00    +0.007 A 
ATOM     10  C5  UNL     1      22.383   7.135  36.598  0.00  0.00    +0.010 A 
ATOM     11  C6  UNL     1      23.462   6.309  36.263  0.00  0.00    +0.001 A 
ATOM     12  C7  UNL     1      24.105   6.461  35.032  0.00  0.00    +0.000 A 
ATOM     13  C8  UNL     1      23.672   7.439  34.135  0.00  0.00    +0.001 A 
ATOM     14  C9  UNL     1      22.594   8.266  34.465  0.00  0.00    +0.010 A 
ENDBRANCH   6   9
ENDBRANCH   1   8
BRANCH   1  15
ATOM     15  N2  UNL     1      16.806  11.582  35.526  0.00  0.00    -0.281 N 
ATOM     16  C13 UNL     1      16.569  11.218  34.123  0.00  0.00    +0.134 C 
ATOM     17  C14 UNL     1      15.683  11.688  36.432  0.00  0.00    +0.303 C 
ATOM     18  O1  UNL     1      15.816  12.315  37.519  0.00  0.00    -0.253 OA
ATOM     19  N3  UNL     1      14.412  11.095  36.114  0.00  0.00    -0.298 N 
ATOM     20  H16 UNL     1      14.307  10.535  35.242  0.00  0.00    +0.150 HD
BRANCH  19  21
ATOM     21  C15 UNL     1      13.273  11.214  37.029  0.00  0.00    +0.124 C 
BRANCH  21  22
ATOM     22  C16 UNL     1      11.941  11.376  36.261  0.00  0.00    +0.071 C 
ATOM     23  C17 UNL     1      12.074  10.892  34.790  0.00  0.00    +0.020 C 
ATOM     24  C18 UNL     1      11.142  11.676  33.865  0.00  0.00    +0.003 C 
ATOM     25  C19 UNL     1      11.452  13.181  33.913  0.00  0.00    +0.015 C 
ATOM     26  C20 UNL     1      11.965  13.631  35.293  0.00  0.00    +0.081 C 
ATOM     27  N4  UNL     1      11.429  12.764  36.350  0.00  0.00    -0.312 NA
ATOM     28  H28 UNL     1      11.657  13.183  37.281  0.00  0.00    +0.122 HD
ENDBRANCH  21  22
ENDBRANCH  19  21
ENDBRANCH   1  15
TORSDOF 5
ENDMDL
MODEL 9
REMARK VINA RESULT:    -6.006     10.435     13.796
REMARK INTER + INTRA:          -8.469
REMARK INTER:                  -7.894
REMARK INTRA:                  -0.575
REMARK UNBOUND:                -0.707
REMARK  Name = /home/qwerty/github/datacon2025hack/step_04_hit_selection/docking/ligands/lig_208.pdb
REMARK  8 active torsions:
REMARK  status: ('A' for Active; 'I' for Inactive)
REMARK    1  A    between atoms: C1_1  and  C2_2
REMARK    2  A    between atoms: C3_4  and  C4_5
REMARK    3  A    between atoms: C10_12  and  C11_13
REMARK    4  A    between atoms: C11_13  and  C12_14
REMARK    5  A    between atoms: C11_13  and  N2_15
REMARK    6  A    between atoms: N2_15  and  C13_16
REMARK    7  A    between atoms: N3_19  and  C15_20
REMARK    8  A    between atoms: C15_20  and  C16_21
REMARK                            x       y       z     vdW  Elec       q    Type
REMARK                         _______ _______ _______ _____ _____    ______ ____
ROOT
ATOM      1  C11 UNL     1      22.769   8.061  32.873  0.00  0.00    +0.113 C 
ATOM      2  C12 UNL     1      23.009   8.851  31.585  0.00  0.00    +0.034 C 
ENDROOT
BRANCH   1   8
ATOM      3  C1  UNL     1      25.293   5.984  33.375  0.00  0.00    +0.066 C 
ATOM      4  C2  UNL     1      23.905   5.640  32.926  0.00  0.00    +0.051 A 
ATOM      5  N1  UNL     1      23.590   4.341  32.662  0.00  0.00    -0.244 NA
ATOM      6  C3  UNL     1      22.310   4.175  32.267  0.00  0.00    +0.109 A 
ATOM      7  S1  UNL     1      21.512   5.653  32.230  0.00  0.00    -0.070 S 
ATOM      8  C10 UNL     1      22.840   6.549  32.751  0.00  0.00    +0.033 A 
BRANCH   6   9
ATOM      9  C4  UNL     1      21.722   2.862  31.918  0.00  0.00    +0.007 A 
ATOM     10  C5  UNL     1      21.987   2.257  30.676  0.00  0.00    +0.010 A 
ATOM     11  C6  UNL     1      21.425   1.015  30.359  0.00  0.00    +0.001 A 
ATOM     12  C7  UNL     1      20.595   0.366  31.275  0.00  0.00    +0.000 A 
ATOM     13  C8  UNL     1      20.325   0.958  32.511  0.00  0.00    +0.001 A 
ATOM     14  C9  UNL     1      20.884   2.198  32.833  0.00  0.00    +0.010 A 
ENDBRANCH   6   9
ENDBRANCH   1   8
BRANCH   1  15
ATOM     15  N2  UNL     1      21.505   8.479  33.513  0.00  0.00    -0.281 N 
ATOM     16  C13 UNL     1      20.377   8.940  32.693  0.00  0.00    +0.134 C 
ATOM     17  C14 UNL     1      21.413   8.554  34.954  0.00  0.00    +0.303 C 
ATOM     18  O1  UNL     1      22.463   8.492  35.650  0.00  0.00    -0.253 OA
ATOM     19  N3  UNL     1      20.143   8.703  35.612  0.00  0.00    -0.298 N 
ATOM     20  H16 UNL     1      19.267   8.706  35.048  0.00  0.00    +0.150 HD
BRANCH  19  21
ATOM     21  C15 UNL     1      20.054   8.789  37.072  0.00  0.00    +0.124 C 
BRANCH  21  22
ATOM     22  C16 UNL     1      18.826   9.615  37.519  0.00  0.00    +0.071 C 
ATOM     23  C17 UNL     1      17.650   9.470  36.513  0.00  0.00    +0.020 C 
ATOM     24  C18 UNL     1      16.796  10.738  36.476  0.00  0.00    +0.003 C 
ATOM     25  C19 UNL     1      17.638  11.959  36.069  0.00  0.00    +0.015 C 
ATOM     26  C20 UNL     1      19.097  11.851  36.545  0.00  0.00    +0.081 C 
ATOM     27  N4  UNL     1      19.184  11.033  37.761  0.00  0.00    -0.312 NA
ATOM     28  H28 UNL     1      20.151  11.108  38.153  0.00  0.00    +0.122 HD
ENDBRANCH  21  22
ENDBRANCH  19  21
ENDBRANCH   1  15
TORSDOF 5
ENDMDL
