REMARK  Name = /home/qwerty/github/datacon2025hack/step_04_hit_selection/docking/ligands/lig_17.pdb
REMARK  5 active torsions:
REMARK  status: ('A' for Active; 'I' for Inactive)
REMARK    1  A    between atoms: N1_3  and  C2_4
REMARK    2  A    between atoms: C2_4  and  C3_5
REMARK    3  A    between atoms: C6_8  and  N2_9
REMARK    4  A    between atoms: N4_16  and  C12_17
REMARK    5  A    between atoms: C14_19  and  C15_20
REMARK                            x       y       z     vdW  Elec       q    Type
REMARK                         _______ _______ _______ _____ _____    ______ ____
ROOT
ATOM      1  O1  UNL     1       1.685   0.811  -0.052  0.00  0.00    -0.252 OA
ATOM      2  C1  UNL     1       1.786   0.860   1.204  0.00  0.00    +0.304 C 
ATOM      3  N1  UNL     1       1.066   1.855   1.943  0.00  0.00    -0.295 N 
ATOM      4  N4  UNL     1       2.590  -0.100   1.906  0.00  0.00    -0.267 N 
ATOM      5  H1  UNL     1       1.181   1.897   2.981  0.00  0.00    +0.151 HD
ATOM      6  H15 UNL     1       2.439  -0.196   2.935  0.00  0.00    +0.156 HD
ENDROOT
BRANCH   4   7
ATOM      7  C12 UNL     1       3.508  -1.003   1.265  0.00  0.00    +0.071 A 
ATOM      8  C13 UNL     1       4.270  -0.600   0.153  0.00  0.00    +0.038 A 
ATOM      9  C14 UNL     1       5.186  -1.482  -0.447  0.00  0.00    +0.025 A 
ATOM     10  C16 UNL     1       5.344  -2.772   0.086  0.00  0.00    +0.014 A 
ATOM     11  C17 UNL     1       4.605  -3.170   1.202  0.00  0.00    +0.041 A 
ATOM     12  C18 UNL     1       3.697  -2.290   1.795  0.00  0.00    +0.145 A 
ATOM     13  F1  UNL     1       2.988  -2.698   2.878  0.00  0.00    -0.204 F 
BRANCH   9  14
ATOM     14  C15 UNL     1       5.980  -1.055  -1.618  0.00  0.00    +0.204 A 
ATOM     15  N5  UNL     1       6.909  -1.818  -2.229  0.00  0.00    -0.108 NA
ATOM     16  N6  UNL     1       7.372  -1.068  -3.216  0.00  0.00    -0.049 NA
ATOM     17  N7  UNL     1       6.749   0.097  -3.202  0.00  0.00    -0.176 N 
ATOM     18  N8  UNL     1       5.870   0.147  -2.217  0.00  0.00    -0.133 NA
ATOM     19  H17 UNL     1       6.928   0.872  -3.877  0.00  0.00    +0.214 HD
ENDBRANCH   9  14
ENDBRANCH   4   7
BRANCH   3  20
ATOM     20  C2  UNL     1       0.190   2.832   1.301  0.00  0.00    +0.142 C 
BRANCH  20  21
ATOM     21  C3  UNL     1      -1.080   2.171   0.840  0.00  0.00    -0.012 A 
ATOM     22  C4  UNL     1      -2.023   1.722   1.773  0.00  0.00    +0.010 A 
ATOM     23  C5  UNL     1      -3.193   1.095   1.342  0.00  0.00    +0.044 A 
ATOM     24  C6  UNL     1      -3.417   0.915  -0.034  0.00  0.00    +0.121 A 
ATOM     25  N3  UNL     1      -2.480   1.354  -0.920  0.00  0.00    -0.240 NA
ATOM     26  C11 UNL     1      -1.334   1.967  -0.523  0.00  0.00    +0.118 A 
BRANCH  24  27
ATOM     27  N2  UNL     1      -4.612   0.275  -0.522  0.00  0.00    -0.315 N 
ATOM     28  C7  UNL     1      -4.832  -0.010  -1.930  0.00  0.00    +0.106 C 
ATOM     29  C8  UNL     1      -6.119  -0.821  -1.990  0.00  0.00    +0.020 C 
ATOM     30  C9  UNL     1      -6.812  -0.607  -0.647  0.00  0.00    +0.020 C 
ATOM     31  C10 UNL     1      -5.726  -0.142   0.314  0.00  0.00    +0.106 C 
ENDBRANCH  24  27
ENDBRANCH  20  21
ENDBRANCH   3  20
TORSDOF 5
