MODEL 1
REMARK VINA RESULT:    -6.428      0.000      0.000
REMARK INTER + INTRA:          -8.351
REMARK INTER:                  -7.931
REMARK INTRA:                  -0.420
REMARK UNBOUND:                -0.420
REMARK  Name = /home/qwerty/github/datacon2025hack/step_04_hit_selection/docking/ligands/lig_481.pdb
REMARK  6 active torsions:
REMARK  status: ('A' for Active; 'I' for Inactive)
REMARK    1  A    between atoms: C1_1  and  O1_2
REMARK    2  A    between atoms: O1_2  and  C2_3
REMARK    3  A    between atoms: C4_5  and  C5_6
REMARK    4  A    between atoms: C6_8  and  C7_9
REMARK    5  A    between atoms: C14_20  and  O3_21
REMARK    6  A    between atoms: C15_22  and  O4_23
REMARK                            x       y       z     vdW  Elec       q    Type
REMARK                         _______ _______ _______ _____ _____    ______ ____
ROOT
ATOM      1  C5  UNL     1      12.694  13.987  33.706  0.00  0.00    +0.259 A 
ATOM      2  N1  UNL     1      12.880  13.882  32.375  0.00  0.00    -0.187 NA
ATOM      3  C6  UNL     1      11.623  14.062  31.912  0.00  0.00    +0.203 A 
ATOM      4  N2  UNL     1      10.736  14.263  32.906  0.00  0.00    -0.056 NA
ATOM      5  O2  UNL     1      11.436  14.209  33.998  0.00  0.00    -0.332 OA
ENDROOT
BRANCH   3   6
ATOM      6  C7  UNL     1      11.264  14.039  30.478  0.00  0.00    +0.028 A 
ATOM      7  C8  UNL     1      12.115  14.620  29.520  0.00  0.00    +0.050 A 
ATOM      8  C9  UNL     1      11.773  14.597  28.164  0.00  0.00    +0.127 A 
ATOM      9  F1  UNL     1      12.600  15.160  27.247  0.00  0.00    -0.205 F 
ATOM     10  C10 UNL     1      10.581  13.996  27.752  0.00  0.00    +0.076 A 
ATOM     11  C11 UNL     1       9.729  13.417  28.695  0.00  0.00    +0.127 A 
ATOM     12  F2  UNL     1       8.572  12.834  28.293  0.00  0.00    -0.205 F 
ATOM     13  C12 UNL     1      10.067  13.436  30.053  0.00  0.00    +0.050 A 
ENDBRANCH   3   6
BRANCH   1  16
ATOM     14  C2  UNL     1      15.621  12.602  35.683  0.00  0.00    +0.166 A 
ATOM     15  C3  UNL     1      14.590  12.726  34.732  0.00  0.00    +0.063 A 
ATOM     16  C4  UNL     1      13.773  13.868  34.708  0.00  0.00    +0.047 A 
ATOM     17  C13 UNL     1      13.994  14.890  35.643  0.00  0.00    +0.062 A 
ATOM     18  C14 UNL     1      15.017  14.776  36.593  0.00  0.00    +0.163 A 
ATOM     19  C15 UNL     1      15.831  13.631  36.611  0.00  0.00    +0.201 A 
BRANCH  14  21
ATOM     20  C1  UNL     1      17.571  11.255  34.877  0.00  0.00    +0.277 C 
ATOM     21  O1  UNL     1      16.457  11.474  35.735  0.00  0.00    -0.491 OA
ENDBRANCH  14  21
BRANCH  18  22
ATOM     22  O3  UNL     1      15.229  15.797  37.519  0.00  0.00    -0.503 OA
ATOM     23  H9  UNL     1      14.560  16.549  37.643  0.00  0.00    +0.292 HD
ENDBRANCH  18  22
BRANCH  19  24
ATOM     24  O4  UNL     1      16.856  13.499  37.550  0.00  0.00    -0.501 OA
ATOM     25  H10 UNL     1      17.054  14.216  38.237  0.00  0.00    +0.292 HD
ENDBRANCH  19  24
ENDBRANCH   1  16
TORSDOF 5
ENDMDL
MODEL 2
REMARK VINA RESULT:    -6.362      4.549      7.912
REMARK INTER + INTRA:          -8.270
REMARK INTER:                  -7.856
REMARK INTRA:                  -0.414
REMARK UNBOUND:                -0.420
REMARK  Name = /home/qwerty/github/datacon2025hack/step_04_hit_selection/docking/ligands/lig_481.pdb
REMARK  6 active torsions:
REMARK  status: ('A' for Active; 'I' for Inactive)
REMARK    1  A    between atoms: C1_1  and  O1_2
REMARK    2  A    between atoms: O1_2  and  C2_3
REMARK    3  A    between atoms: C4_5  and  C5_6
REMARK    4  A    between atoms: C6_8  and  C7_9
REMARK    5  A    between atoms: C14_20  and  O3_21
REMARK    6  A    between atoms: C15_22  and  O4_23
REMARK                            x       y       z     vdW  Elec       q    Type
REMARK                         _______ _______ _______ _____ _____    ______ ____
ROOT
ATOM      1  C5  UNL     1      11.568  13.817  32.177  0.00  0.00    +0.259 A 
ATOM      2  N1  UNL     1      11.564  12.583  32.720  0.00  0.00    -0.187 NA
ATOM      3  C6  UNL     1      11.446  12.867  34.036  0.00  0.00    +0.203 A 
ATOM      4  N2  UNL     1      11.385  14.193  34.269  0.00  0.00    -0.056 NA
ATOM      5  O2  UNL     1      11.463  14.745  33.097  0.00  0.00    -0.332 OA
ENDROOT
BRANCH   3   6
ATOM      6  C7  UNL     1      11.393  11.839  35.098  0.00  0.00    +0.028 A 
ATOM      7  C8  UNL     1      11.745  10.506  34.819  0.00  0.00    +0.050 A 
ATOM      8  C9  UNL     1      11.694   9.536  35.825  0.00  0.00    +0.127 A 
ATOM      9  F1  UNL     1      12.035   8.254  35.547  0.00  0.00    -0.205 F 
ATOM     10  C10 UNL     1      11.291   9.887  37.116  0.00  0.00    +0.076 A 
ATOM     11  C11 UNL     1      10.939  11.208  37.404  0.00  0.00    +0.127 A 
ATOM     12  F2  UNL     1      10.548  11.546  38.658  0.00  0.00    -0.205 F 
ATOM     13  C12 UNL     1      10.989  12.182  36.401  0.00  0.00    +0.050 A 
ENDBRANCH   3   6
BRANCH   1  16
ATOM     14  C2  UNL     1      10.700  14.044  28.491  0.00  0.00    +0.166 A 
ATOM     15  C3  UNL     1      10.607  13.789  29.873  0.00  0.00    +0.063 A 
ATOM     16  C4  UNL     1      11.678  14.089  30.729  0.00  0.00    +0.047 A 
ATOM     17  C13 UNL     1      12.848  14.648  30.195  0.00  0.00    +0.062 A 
ATOM     18  C14 UNL     1      12.951  14.905  28.823  0.00  0.00    +0.163 A 
ATOM     19  C15 UNL     1      11.876  14.603  27.971  0.00  0.00    +0.201 A 
BRANCH  14  21
ATOM     20  C1  UNL     1       8.589  12.847  27.880  0.00  0.00    +0.277 C 
ATOM     21  O1  UNL     1       9.648  13.757  27.606  0.00  0.00    -0.491 OA
ENDBRANCH  14  21
BRANCH  18  22
ATOM     22  O3  UNL     1      14.119  15.460  28.301  0.00  0.00    -0.503 OA
ATOM     23  H9  UNL     1      14.983  15.476  28.831  0.00  0.00    +0.292 HD
ENDBRANCH  18  22
BRANCH  19  24
ATOM     24  O4  UNL     1      11.959  14.852  26.600  0.00  0.00    -0.501 OA
ATOM     25  H10 UNL     1      12.096  15.784  26.228  0.00  0.00    +0.292 HD
ENDBRANCH  19  24
ENDBRANCH   1  16
TORSDOF 5
ENDMDL
MODEL 3
REMARK VINA RESULT:    -6.355      9.669     12.890
REMARK INTER + INTRA:          -8.261
REMARK INTER:                  -7.843
REMARK INTRA:                  -0.418
REMARK UNBOUND:                -0.420
REMARK  Name = /home/qwerty/github/datacon2025hack/step_04_hit_selection/docking/ligands/lig_481.pdb
REMARK  6 active torsions:
REMARK  status: ('A' for Active; 'I' for Inactive)
REMARK    1  A    between atoms: C1_1  and  O1_2
REMARK    2  A    between atoms: O1_2  and  C2_3
REMARK    3  A    between atoms: C4_5  and  C5_6
REMARK    4  A    between atoms: C6_8  and  C7_9
REMARK    5  A    between atoms: C14_20  and  O3_21
REMARK    6  A    between atoms: C15_22  and  O4_23
REMARK                            x       y       z     vdW  Elec       q    Type
REMARK                         _______ _______ _______ _____ _____    ______ ____
ROOT
ATOM      1  C5  UNL     1      21.711   5.554  34.187  0.00  0.00    +0.259 A 
ATOM      2  N1  UNL     1      20.992   4.491  33.772  0.00  0.00    -0.187 NA
ATOM      3  C6  UNL     1      21.847   3.907  32.904  0.00  0.00    +0.203 A 
ATOM      4  N2  UNL     1      23.011   4.580  32.803  0.00  0.00    -0.056 NA
ATOM      5  O2  UNL     1      22.888   5.589  33.610  0.00  0.00    -0.332 OA
ENDROOT
BRANCH   3   6
ATOM      6  C7  UNL     1      21.540   2.672  32.152  0.00  0.00    +0.028 A 
ATOM      7  C8  UNL     1      22.146   2.427  30.906  0.00  0.00    +0.050 A 
ATOM      8  C9  UNL     1      21.854   1.257  30.196  0.00  0.00    +0.127 A 
ATOM      9  F1  UNL     1      22.443   1.029  28.996  0.00  0.00    -0.205 F 
ATOM     10  C10 UNL     1      20.957   0.325  30.722  0.00  0.00    +0.076 A 
ATOM     11  C11 UNL     1      20.350   0.559  31.958  0.00  0.00    +0.127 A 
ATOM     12  F2  UNL     1      19.479  -0.348  32.466  0.00  0.00    -0.205 F 
ATOM     13  C12 UNL     1      20.639   1.727  32.672  0.00  0.00    +0.050 A 
ENDBRANCH   3   6
BRANCH   1  16
ATOM     14  C2  UNL     1      19.733   8.387  35.752  0.00  0.00    +0.166 A 
ATOM     15  C3  UNL     1      20.197   7.433  34.826  0.00  0.00    +0.063 A 
ATOM     16  C4  UNL     1      21.234   6.550  35.166  0.00  0.00    +0.047 A 
ATOM     17  C13 UNL     1      21.807   6.626  36.445  0.00  0.00    +0.062 A 
ATOM     18  C14 UNL     1      21.353   7.571  37.373  0.00  0.00    +0.163 A 
ATOM     19  C15 UNL     1      20.315   8.451  37.025  0.00  0.00    +0.201 A 
BRANCH  14  21
ATOM     20  C1  UNL     1      18.861  10.470  34.672  0.00  0.00    +0.277 C 
ATOM     21  O1  UNL     1      18.698   9.286  35.444  0.00  0.00    -0.491 OA
ENDBRANCH  14  21
BRANCH  18  22
ATOM     22  O3  UNL     1      21.930   7.638  38.641  0.00  0.00    -0.503 OA
ATOM     23  H9  UNL     1      21.366   7.744  39.476  0.00  0.00    +0.292 HD
ENDBRANCH  18  22
BRANCH  19  24
ATOM     24  O4  UNL     1      19.849   9.400  37.937  0.00  0.00    -0.501 OA
ATOM     25  H10 UNL     1      19.716   9.187  38.918  0.00  0.00    +0.292 HD
ENDBRANCH  19  24
ENDBRANCH   1  16
TORSDOF 5
ENDMDL
MODEL 4
REMARK VINA RESULT:    -6.339      9.662     12.977
REMARK INTER + INTRA:          -8.242
REMARK INTER:                  -7.825
REMARK INTRA:                  -0.417
REMARK UNBOUND:                -0.420
REMARK  Name = /home/qwerty/github/datacon2025hack/step_04_hit_selection/docking/ligands/lig_481.pdb
REMARK  6 active torsions:
REMARK  status: ('A' for Active; 'I' for Inactive)
REMARK    1  A    between atoms: C1_1  and  O1_2
REMARK    2  A    between atoms: O1_2  and  C2_3
REMARK    3  A    between atoms: C4_5  and  C5_6
REMARK    4  A    between atoms: C6_8  and  C7_9
REMARK    5  A    between atoms: C14_20  and  O3_21
REMARK    6  A    between atoms: C15_22  and  O4_23
REMARK                            x       y       z     vdW  Elec       q    Type
REMARK                         _______ _______ _______ _____ _____    ______ ____
ROOT
ATOM      1  C5  UNL     1      21.706   5.558  34.182  0.00  0.00    +0.259 A 
ATOM      2  N1  UNL     1      20.986   4.496  33.768  0.00  0.00    -0.187 NA
ATOM      3  C6  UNL     1      21.840   3.914  32.897  0.00  0.00    +0.203 A 
ATOM      4  N2  UNL     1      23.003   4.587  32.795  0.00  0.00    -0.056 NA
ATOM      5  O2  UNL     1      22.881   5.595  33.603  0.00  0.00    -0.332 OA
ENDROOT
BRANCH   3   6
ATOM      6  C7  UNL     1      21.532   2.680  32.143  0.00  0.00    +0.028 A 
ATOM      7  C8  UNL     1      20.631   1.732  32.662  0.00  0.00    +0.050 A 
ATOM      8  C9  UNL     1      20.342   0.566  31.947  0.00  0.00    +0.127 A 
ATOM      9  F1  UNL     1      19.472  -0.342  32.455  0.00  0.00    -0.205 F 
ATOM     10  C10 UNL     1      20.947   0.335  30.709  0.00  0.00    +0.076 A 
ATOM     11  C11 UNL     1      21.843   1.270  30.184  0.00  0.00    +0.127 A 
ATOM     12  F2  UNL     1      22.429   1.044  28.982  0.00  0.00    -0.205 F 
ATOM     13  C12 UNL     1      22.136   2.438  30.896  0.00  0.00    +0.050 A 
ENDBRANCH   3   6
BRANCH   1  16
ATOM     14  C2  UNL     1      19.725   8.384  35.758  0.00  0.00    +0.166 A 
ATOM     15  C3  UNL     1      20.187   7.431  34.829  0.00  0.00    +0.063 A 
ATOM     16  C4  UNL     1      21.229   6.553  35.165  0.00  0.00    +0.047 A 
ATOM     17  C13 UNL     1      21.809   6.630  36.440  0.00  0.00    +0.062 A 
ATOM     18  C14 UNL     1      21.356   7.574  37.371  0.00  0.00    +0.163 A 
ATOM     19  C15 UNL     1      20.313   8.450  37.028  0.00  0.00    +0.201 A 
BRANCH  14  21
ATOM     20  C1  UNL     1      18.756  10.292  34.459  0.00  0.00    +0.277 C 
ATOM     21  O1  UNL     1      18.685   9.278  35.456  0.00  0.00    -0.491 OA
ENDBRANCH  14  21
BRANCH  18  22
ATOM     22  O3  UNL     1      21.939   7.643  38.635  0.00  0.00    -0.503 OA
ATOM     23  H9  UNL     1      22.264   6.813  39.117  0.00  0.00    +0.292 HD
ENDBRANCH  18  22
BRANCH  19  24
ATOM     24  O4  UNL     1      19.848   9.397  37.942  0.00  0.00    -0.501 OA
ATOM     25  H10 UNL     1      20.473  10.024  38.435  0.00  0.00    +0.292 HD
ENDBRANCH  19  24
ENDBRANCH   1  16
TORSDOF 5
ENDMDL
MODEL 5
REMARK VINA RESULT:    -6.303      9.121     12.234
REMARK INTER + INTRA:          -8.197
REMARK INTER:                  -7.770
REMARK INTRA:                  -0.428
REMARK UNBOUND:                -0.420
REMARK  Name = /home/qwerty/github/datacon2025hack/step_04_hit_selection/docking/ligands/lig_481.pdb
REMARK  6 active torsions:
REMARK  status: ('A' for Active; 'I' for Inactive)
REMARK    1  A    between atoms: C1_1  and  O1_2
REMARK    2  A    between atoms: O1_2  and  C2_3
REMARK    3  A    between atoms: C4_5  and  C5_6
REMARK    4  A    between atoms: C6_8  and  C7_9
REMARK    5  A    between atoms: C14_20  and  O3_21
REMARK    6  A    between atoms: C15_22  and  O4_23
REMARK                            x       y       z     vdW  Elec       q    Type
REMARK                         _______ _______ _______ _____ _____    ______ ____
ROOT
ATOM      1  C5  UNL     1      18.530   4.861  36.222  0.00  0.00    +0.259 A 
ATOM      2  N1  UNL     1      19.144   4.392  35.117  0.00  0.00    -0.187 NA
ATOM      3  C6  UNL     1      18.694   3.119  35.077  0.00  0.00    +0.203 A 
ATOM      4  N2  UNL     1      17.859   2.839  36.097  0.00  0.00    -0.056 NA
ATOM      5  O2  UNL     1      17.783   3.940  36.781  0.00  0.00    -0.332 OA
ENDROOT
BRANCH   3   6
ATOM      6  C7  UNL     1      19.076   2.144  34.032  0.00  0.00    +0.028 A 
ATOM      7  C8  UNL     1      18.248   1.042  33.749  0.00  0.00    +0.050 A 
ATOM      8  C9  UNL     1      18.611   0.121  32.760  0.00  0.00    +0.127 A 
ATOM      9  F1  UNL     1      17.808  -0.938  32.493  0.00  0.00    -0.205 F 
ATOM     10  C10 UNL     1      19.801   0.292  32.048  0.00  0.00    +0.076 A 
ATOM     11  C11 UNL     1      20.629   1.383  32.321  0.00  0.00    +0.127 A 
ATOM     12  F2  UNL     1      21.784   1.546  31.628  0.00  0.00    -0.205 F 
ATOM     13  C12 UNL     1      20.271   2.306  33.309  0.00  0.00    +0.050 A 
ENDBRANCH   3   6
BRANCH   1  16
ATOM     14  C2  UNL     1      17.674   8.347  37.451  0.00  0.00    +0.166 A 
ATOM     15  C3  UNL     1      17.544   7.033  36.961  0.00  0.00    +0.063 A 
ATOM     16  C4  UNL     1      18.679   6.237  36.736  0.00  0.00    +0.047 A 
ATOM     17  C13 UNL     1      19.951   6.764  37.006  0.00  0.00    +0.062 A 
ATOM     18  C14 UNL     1      20.091   8.069  37.494  0.00  0.00    +0.163 A 
ATOM     19  C15 UNL     1      18.952   8.860  37.716  0.00  0.00    +0.201 A 
BRANCH  14  21
ATOM     20  C1  UNL     1      15.694   9.665  36.672  0.00  0.00    +0.277 C 
ATOM     21  O1  UNL     1      16.561   9.170  37.687  0.00  0.00    -0.491 OA
ENDBRANCH  14  21
BRANCH  18  22
ATOM     22  O3  UNL     1      21.360   8.583  37.759  0.00  0.00    -0.503 OA
ATOM     23  H9  UNL     1      22.154   7.977  37.933  0.00  0.00    +0.292 HD
ENDBRANCH  18  22
BRANCH  19  24
ATOM     24  O4  UNL     1      19.071  10.163  38.202  0.00  0.00    -0.501 OA
ATOM     25  H10 UNL     1      18.325  10.843  38.113  0.00  0.00    +0.292 HD
ENDBRANCH  19  24
ENDBRANCH   1  16
TORSDOF 5
ENDMDL
MODEL 6
REMARK VINA RESULT:    -6.176     14.018     15.529
REMARK INTER + INTRA:          -8.040
REMARK INTER:                  -7.615
REMARK INTRA:                  -0.425
REMARK UNBOUND:                -0.420
REMARK  Name = /home/qwerty/github/datacon2025hack/step_04_hit_selection/docking/ligands/lig_481.pdb
REMARK  6 active torsions:
REMARK  status: ('A' for Active; 'I' for Inactive)
REMARK    1  A    between atoms: C1_1  and  O1_2
REMARK    2  A    between atoms: O1_2  and  C2_3
REMARK    3  A    between atoms: C4_5  and  C5_6
REMARK    4  A    between atoms: C6_8  and  C7_9
REMARK    5  A    between atoms: C14_20  and  O3_21
REMARK    6  A    between atoms: C15_22  and  O4_23
REMARK                            x       y       z     vdW  Elec       q    Type
REMARK                         _______ _______ _______ _____ _____    ______ ____
ROOT
ATOM      1  C5  UNL     1      11.837   4.979  20.336  0.00  0.00    +0.259 A 
ATOM      2  N1  UNL     1      11.834   6.316  20.504  0.00  0.00    -0.187 NA
ATOM      3  C6  UNL     1      10.511   6.576  20.586  0.00  0.00    +0.203 A 
ATOM      4  N2  UNL     1       9.763   5.461  20.474  0.00  0.00    -0.056 NA
ATOM      5  O2  UNL     1      10.618   4.496  20.321  0.00  0.00    -0.332 OA
ENDROOT
BRANCH   3   6
ATOM      6  C7  UNL     1       9.948   7.931  20.777  0.00  0.00    +0.028 A 
ATOM      7  C8  UNL     1      10.386   9.004  19.979  0.00  0.00    +0.050 A 
ATOM      8  C9  UNL     1       9.852  10.283  20.161  0.00  0.00    +0.127 A 
ATOM      9  F1  UNL     1      10.280  11.312  19.388  0.00  0.00    -0.205 F 
ATOM     10  C10 UNL     1       8.879  10.504  21.139  0.00  0.00    +0.076 A 
ATOM     11  C11 UNL     1       8.437   9.445  21.936  0.00  0.00    +0.127 A 
ATOM     12  F2  UNL     1       7.493   9.661  22.885  0.00  0.00    -0.205 F 
ATOM     13  C12 UNL     1       8.968   8.163  21.758  0.00  0.00    +0.050 A 
ENDBRANCH   3   6
BRANCH   1  16
ATOM     14  C2  UNL     1      15.456   4.006  19.748  0.00  0.00    +0.166 A 
ATOM     15  C3  UNL     1      14.286   4.775  19.891  0.00  0.00    +0.063 A 
ATOM     16  C4  UNL     1      13.058   4.161  20.188  0.00  0.00    +0.047 A 
ATOM     17  C13 UNL     1      13.007   2.768  20.344  0.00  0.00    +0.062 A 
ATOM     18  C14 UNL     1      14.166   1.994  20.204  0.00  0.00    +0.163 A 
ATOM     19  C15 UNL     1      15.391   2.614  19.906  0.00  0.00    +0.201 A 
BRANCH  14  21
ATOM     20  C1  UNL     1      16.898   5.965  19.159  0.00  0.00    +0.277 C 
ATOM     21  O1  UNL     1      16.700   4.586  19.450  0.00  0.00    -0.491 OA
ENDBRANCH  14  21
BRANCH  18  22
ATOM     22  O3  UNL     1      14.105   0.610  20.361  0.00  0.00    -0.503 OA
ATOM     23  H9  UNL     1      13.450   0.044  19.833  0.00  0.00    +0.292 HD
ENDBRANCH  18  22
BRANCH  19  24
ATOM     24  O4  UNL     1      16.556   1.860  19.763  0.00  0.00    -0.501 OA
ATOM     25  H10 UNL     1      17.462   2.289  19.615  0.00  0.00    +0.292 HD
ENDBRANCH  19  24
ENDBRANCH   1  16
TORSDOF 5
ENDMDL
MODEL 7
REMARK VINA RESULT:    -6.138     10.338     12.831
REMARK INTER + INTRA:          -7.993
REMARK INTER:                  -7.562
REMARK INTRA:                  -0.431
REMARK UNBOUND:                -0.420
REMARK  Name = /home/qwerty/github/datacon2025hack/step_04_hit_selection/docking/ligands/lig_481.pdb
REMARK  6 active torsions:
REMARK  status: ('A' for Active; 'I' for Inactive)
REMARK    1  A    between atoms: C1_1  and  O1_2
REMARK    2  A    between atoms: O1_2  and  C2_3
REMARK    3  A    between atoms: C4_5  and  C5_6
REMARK    4  A    between atoms: C6_8  and  C7_9
REMARK    5  A    between atoms: C14_20  and  O3_21
REMARK    6  A    between atoms: C15_22  and  O4_23
REMARK                            x       y       z     vdW  Elec       q    Type
REMARK                         _______ _______ _______ _____ _____    ______ ____
ROOT
ATOM      1  C5  UNL     1      20.461   4.608  33.883  0.00  0.00    +0.259 A 
ATOM      2  N1  UNL     1      21.285   4.350  32.848  0.00  0.00    -0.187 NA
ATOM      3  C6  UNL     1      20.618   3.363  32.210  0.00  0.00    +0.203 A 
ATOM      4  N2  UNL     1      19.461   3.048  32.826  0.00  0.00    -0.056 NA
ATOM      5  O2  UNL     1      19.400   3.838  33.853  0.00  0.00    -0.332 OA
ENDROOT
BRANCH   3   6
ATOM      6  C7  UNL     1      21.103   2.704  30.978  0.00  0.00    +0.028 A 
ATOM      7  C8  UNL     1      21.422   3.468  29.840  0.00  0.00    +0.050 A 
ATOM      8  C9  UNL     1      21.881   2.842  28.676  0.00  0.00    +0.127 A 
ATOM      9  F1  UNL     1      22.185   3.585  27.583  0.00  0.00    -0.205 F 
ATOM     10  C10 UNL     1      22.025   1.453  28.637  0.00  0.00    +0.076 A 
ATOM     11  C11 UNL     1      21.712   0.687  29.762  0.00  0.00    +0.127 A 
ATOM     12  F2  UNL     1      21.854  -0.662  29.723  0.00  0.00    -0.205 F 
ATOM     13  C12 UNL     1      21.253   1.307  30.929  0.00  0.00    +0.050 A 
ENDBRANCH   3   6
BRANCH   1  16
ATOM     14  C2  UNL     1      19.920   7.024  36.758  0.00  0.00    +0.166 A 
ATOM     15  C3  UNL     1      19.684   6.050  35.768  0.00  0.00    +0.063 A 
ATOM     16  C4  UNL     1      20.719   5.630  34.917  0.00  0.00    +0.047 A 
ATOM     17  C13 UNL     1      21.997   6.190  35.063  0.00  0.00    +0.062 A 
ATOM     18  C14 UNL     1      22.242   7.158  36.044  0.00  0.00    +0.163 A 
ATOM     19  C15 UNL     1      21.202   7.574  36.892  0.00  0.00    +0.201 A 
BRANCH  14  21
ATOM     20  C1  UNL     1      17.917   8.430  37.284  0.00  0.00    +0.277 C 
ATOM     21  O1  UNL     1      18.908   7.467  37.625  0.00  0.00    -0.491 OA
ENDBRANCH  14  21
BRANCH  18  22
ATOM     22  O3  UNL     1      23.516   7.709  36.181  0.00  0.00    -0.503 OA
ATOM     23  H9  UNL     1      24.135   7.436  36.935  0.00  0.00    +0.292 HD
ENDBRANCH  18  22
BRANCH  19  24
ATOM     24  O4  UNL     1      21.426   8.539  37.876  0.00  0.00    -0.501 OA
ATOM     25  H10 UNL     1      22.334   8.673  38.304  0.00  0.00    +0.292 HD
ENDBRANCH  19  24
ENDBRANCH   1  16
TORSDOF 5
ENDMDL
MODEL 8
REMARK VINA RESULT:    -6.123     15.884     17.626
REMARK INTER + INTRA:          -7.975
REMARK INTER:                  -7.547
REMARK INTRA:                  -0.427
REMARK UNBOUND:                -0.420
REMARK  Name = /home/qwerty/github/datacon2025hack/step_04_hit_selection/docking/ligands/lig_481.pdb
REMARK  6 active torsions:
REMARK  status: ('A' for Active; 'I' for Inactive)
REMARK    1  A    between atoms: C1_1  and  O1_2
REMARK    2  A    between atoms: O1_2  and  C2_3
REMARK    3  A    between atoms: C4_5  and  C5_6
REMARK    4  A    between atoms: C6_8  and  C7_9
REMARK    5  A    between atoms: C14_20  and  O3_21
REMARK    6  A    between atoms: C15_22  and  O4_23
REMARK                            x       y       z     vdW  Elec       q    Type
REMARK                         _______ _______ _______ _____ _____    ______ ____
ROOT
ATOM      1  C5  UNL     1      12.660   3.838  20.378  0.00  0.00    +0.259 A 
ATOM      2  N1  UNL     1      12.873   2.633  20.943  0.00  0.00    -0.187 NA
ATOM      3  C6  UNL     1      14.134   2.365  20.541  0.00  0.00    +0.203 A 
ATOM      4  N2  UNL     1      14.648   3.350  19.779  0.00  0.00    -0.056 NA
ATOM      5  O2  UNL     1      13.708   4.241  19.701  0.00  0.00    -0.332 OA
ENDROOT
BRANCH   3   6
ATOM      6  C7  UNL     1      14.867   1.130  20.897  0.00  0.00    +0.028 A 
ATOM      7  C8  UNL     1      14.633   0.492  22.129  0.00  0.00    +0.050 A 
ATOM      8  C9  UNL     1      15.327  -0.676  22.463  0.00  0.00    +0.127 A 
ATOM      9  F1  UNL     1      15.097  -1.283  23.653  0.00  0.00    -0.205 F 
ATOM     10  C10 UNL     1      16.257  -1.216  21.572  0.00  0.00    +0.076 A 
ATOM     11  C11 UNL     1      16.496  -0.591  20.345  0.00  0.00    +0.127 A 
ATOM     12  F2  UNL     1      17.399  -1.118  19.482  0.00  0.00    -0.205 F 
ATOM     13  C12 UNL     1      15.805   0.577  20.007  0.00  0.00    +0.050 A 
ENDBRANCH   3   6
BRANCH   1  16
ATOM     14  C2  UNL     1       9.044   4.709  21.126  0.00  0.00    +0.166 A 
ATOM     15  C3  UNL     1      10.246   3.987  21.001  0.00  0.00    +0.063 A 
ATOM     16  C4  UNL     1      11.404   4.606  20.505  0.00  0.00    +0.047 A 
ATOM     17  C13 UNL     1      11.355   5.959  20.135  0.00  0.00    +0.062 A 
ATOM     18  C14 UNL     1      10.165   6.686  20.256  0.00  0.00    +0.163 A 
ATOM     19  C15 UNL     1       9.009   6.060  20.753  0.00  0.00    +0.201 A 
BRANCH  14  21
ATOM     20  C1  UNL     1       7.537   4.008  22.997  0.00  0.00    +0.277 C 
ATOM     21  O1  UNL     1       7.867   4.122  21.618  0.00  0.00    -0.491 OA
ENDBRANCH  14  21
BRANCH  18  22
ATOM     22  O3  UNL     1      10.126   8.030  19.885  0.00  0.00    -0.503 OA
ATOM     23  H9  UNL     1      10.925   8.488  19.463  0.00  0.00    +0.292 HD
ENDBRANCH  18  22
BRANCH  19  24
ATOM     24  O4  UNL     1       7.813   6.768  20.881  0.00  0.00    -0.501 OA
ATOM     25  H10 UNL     1       6.966   6.490  20.399  0.00  0.00    +0.292 HD
ENDBRANCH  19  24
ENDBRANCH   1  16
TORSDOF 5
ENDMDL
MODEL 9
REMARK VINA RESULT:    -6.087      7.346     10.554
REMARK INTER + INTRA:          -7.930
REMARK INTER:                  -7.531
REMARK INTRA:                  -0.400
REMARK UNBOUND:                -0.420
REMARK  Name = /home/qwerty/github/datacon2025hack/step_04_hit_selection/docking/ligands/lig_481.pdb
REMARK  6 active torsions:
REMARK  status: ('A' for Active; 'I' for Inactive)
REMARK    1  A    between atoms: C1_1  and  O1_2
REMARK    2  A    between atoms: O1_2  and  C2_3
REMARK    3  A    between atoms: C4_5  and  C5_6
REMARK    4  A    between atoms: C6_8  and  C7_9
REMARK    5  A    between atoms: C14_20  and  O3_21
REMARK    6  A    between atoms: C15_22  and  O4_23
REMARK                            x       y       z     vdW  Elec       q    Type
REMARK                         _______ _______ _______ _____ _____    ______ ____
ROOT
ATOM      1  C5  UNL     1      17.610   9.020  36.776  0.00  0.00    +0.259 A 
ATOM      2  N1  UNL     1      18.942   9.171  36.632  0.00  0.00    -0.187 NA
ATOM      3  C6  UNL     1      19.355   7.886  36.572  0.00  0.00    +0.203 A 
ATOM      4  N2  UNL     1      18.332   7.015  36.675  0.00  0.00    -0.056 NA
ATOM      5  O2  UNL     1      17.272   7.753  36.799  0.00  0.00    -0.332 OA
ENDROOT
BRANCH   3   6
ATOM      6  C7  UNL     1      20.769   7.483  36.413  0.00  0.00    +0.028 A 
ATOM      7  C8  UNL     1      21.375   7.493  35.144  0.00  0.00    +0.050 A 
ATOM      8  C9  UNL     1      22.713   7.112  34.996  0.00  0.00    +0.127 A 
ATOM      9  F1  UNL     1      23.289   7.124  33.769  0.00  0.00    -0.205 F 
ATOM     10  C10 UNL     1      23.456   6.718  36.112  0.00  0.00    +0.076 A 
ATOM     11  C11 UNL     1      22.863   6.704  37.377  0.00  0.00    +0.127 A 
ATOM     12  F2  UNL     1      23.587   6.322  38.459  0.00  0.00    -0.205 F 
ATOM     13  C12 UNL     1      21.526   7.085  37.530  0.00  0.00    +0.050 A 
ENDBRANCH   3   6
BRANCH   1  16
ATOM     14  C2  UNL     1      14.359  10.975  36.815  0.00  0.00    +0.166 A 
ATOM     15  C3  UNL     1      15.280   9.915  36.706  0.00  0.00    +0.063 A 
ATOM     16  C4  UNL     1      16.653  10.139  36.893  0.00  0.00    +0.047 A 
ATOM     17  C13 UNL     1      17.104  11.434  37.192  0.00  0.00    +0.062 A 
ATOM     18  C14 UNL     1      16.196  12.494  37.303  0.00  0.00    +0.163 A 
ATOM     19  C15 UNL     1      14.823  12.264  37.114  0.00  0.00    +0.201 A 
BRANCH  14  21
ATOM     20  C1  UNL     1      12.394   9.645  36.020  0.00  0.00    +0.277 C 
ATOM     21  O1  UNL     1      12.979  10.787  36.634  0.00  0.00    -0.491 OA
ENDBRANCH  14  21
BRANCH  18  22
ATOM     22  O3  UNL     1      16.654  13.778  37.600  0.00  0.00    -0.503 OA
ATOM     23  H9  UNL     1      17.468  13.930  38.185  0.00  0.00    +0.292 HD
ENDBRANCH  18  22
BRANCH  19  24
ATOM     24  O4  UNL     1      13.903  13.308  37.220  0.00  0.00    -0.501 OA
ATOM     25  H10 UNL     1      13.324  13.599  36.442  0.00  0.00    +0.292 HD
ENDBRANCH  19  24
ENDBRANCH   1  16
TORSDOF 5
ENDMDL
