MODEL 1
REMARK VINA RESULT:    -6.065      0.000      0.000
REMARK INTER + INTRA:          -7.829
REMARK INTER:                  -7.306
REMARK INTRA:                  -0.522
REMARK UNBOUND:                -0.522
REMARK  Name = /home/qwerty/github/datacon2025hack/step_04_hit_selection/docking/ligands/lig_621.pdb
REMARK  5 active torsions:
REMARK  status: ('A' for Active; 'I' for Inactive)
REMARK    1  A    between atoms: C1_1  and  C2_2
REMARK    2  A    between atoms: C5_6  and  C6_7
REMARK    3  A    between atoms: N1_9  and  C7_10
REMARK    4  A    between atoms: C10_14  and  C11_16
REMARK    5  A    between atoms: C15_20  and  O3_21
REMARK                            x       y       z     vdW  Elec       q    Type
REMARK                         _______ _______ _______ _____ _____    ______ ____
ROOT
ATOM      1  C6  UNL     1      19.160  11.395  35.972  0.00  0.00    +0.250 C 
ATOM      2  O1  UNL     1      19.650  12.540  36.173  0.00  0.00    -0.270 OA
ATOM      3  N1  UNL     1      17.778  11.263  35.603  0.00  0.00    -0.306 N 
ATOM      4  H5  UNL     1      17.335  10.318  35.663  0.00  0.00    +0.149 HD
ENDROOT
BRANCH   1  10
ATOM      5  C1  UNL     1      22.531   6.720  36.625  0.00  0.00    +0.044 C 
ATOM      6  C2  UNL     1      21.636   7.909  36.440  0.00  0.00    -0.045 A 
ATOM      7  C3  UNL     1      20.631   8.190  37.374  0.00  0.00    +0.042 A 
ATOM      8  C4  UNL     1      19.819   9.319  37.225  0.00  0.00    +0.139 A 
ATOM      9  F1  UNL     1      18.817   9.524  38.118  0.00  0.00    -0.205 F 
ATOM     10  C5  UNL     1      20.015  10.198  36.142  0.00  0.00    +0.107 A 
ATOM     11  C16 UNL     1      21.030   9.914  35.207  0.00  0.00    +0.139 A 
ATOM     12  F2  UNL     1      21.261  10.745  34.158  0.00  0.00    -0.205 F 
ATOM     13  C17 UNL     1      21.839   8.784  35.363  0.00  0.00    +0.042 A 
ENDBRANCH   1  10
BRANCH   3  14
ATOM     14  C7  UNL     1      16.955  12.419  35.232  0.00  0.00    +0.105 C 
ATOM     15  C8  UNL     1      16.050  12.052  34.044  0.00  0.00    +0.044 C 
ATOM     16  C9  UNL     1      15.143  13.224  33.654  0.00  0.00    +0.110 C 
ATOM     17  N2  UNL     1      14.407  13.722  34.827  0.00  0.00    -0.299 N 
ATOM     18  C10 UNL     1      13.042  14.179  34.710  0.00  0.00    +0.219 C 
ATOM     19  O2  UNL     1      12.343  14.344  35.747  0.00  0.00    -0.275 OA
ATOM     20  C14 UNL     1      15.183  14.052  36.032  0.00  0.00    +0.141 C 
ATOM     21  C15 UNL     1      16.089  12.875  36.428  0.00  0.00    +0.152 C 
BRANCH  18  22
ATOM     22  C11 UNL     1      12.406  14.424  33.369  0.00  0.00    +0.075 C 
ATOM     23  C12 UNL     1      11.618  13.248  32.810  0.00  0.00    +0.013 C 
ATOM     24  C13 UNL     1      10.885  14.446  33.385  0.00  0.00    +0.013 C 
ENDBRANCH  18  22
BRANCH  21  25
ATOM     25  O3  UNL     1      16.891  13.221  37.529  0.00  0.00    -0.388 OA
ATOM     26  H19 UNL     1      16.356  13.072  38.352  0.00  0.00    +0.210 HD
ENDBRANCH  21  25
ENDBRANCH   3  14
TORSDOF 4
ENDMDL
MODEL 2
REMARK VINA RESULT:    -6.035      0.062      1.706
REMARK INTER + INTRA:          -7.792
REMARK INTER:                  -7.259
REMARK INTRA:                  -0.533
REMARK UNBOUND:                -0.522
REMARK  Name = /home/qwerty/github/datacon2025hack/step_04_hit_selection/docking/ligands/lig_621.pdb
REMARK  5 active torsions:
REMARK  status: ('A' for Active; 'I' for Inactive)
REMARK    1  A    between atoms: C1_1  and  C2_2
REMARK    2  A    between atoms: C5_6  and  C6_7
REMARK    3  A    between atoms: N1_9  and  C7_10
REMARK    4  A    between atoms: C10_14  and  C11_16
REMARK    5  A    between atoms: C15_20  and  O3_21
REMARK                            x       y       z     vdW  Elec       q    Type
REMARK                         _______ _______ _______ _____ _____    ______ ____
ROOT
ATOM      1  C6  UNL     1      19.191  11.381  35.954  0.00  0.00    +0.250 C 
ATOM      2  O1  UNL     1      19.669  12.523  36.198  0.00  0.00    -0.270 OA
ATOM      3  N1  UNL     1      17.815  11.250  35.565  0.00  0.00    -0.306 N 
ATOM      4  H5  UNL     1      17.378  10.301  35.589  0.00  0.00    +0.149 HD
ENDROOT
BRANCH   1  10
ATOM      5  C1  UNL     1      22.545   6.681  36.518  0.00  0.00    +0.044 C 
ATOM      6  C2  UNL     1      21.701   7.915  36.389  0.00  0.00    -0.045 A 
ATOM      7  C3  UNL     1      21.873   8.778  35.298  0.00  0.00    +0.042 A 
ATOM      8  C4  UNL     1      21.064   9.909  35.154  0.00  0.00    +0.139 A 
ATOM      9  F1  UNL     1      21.302  10.752  34.117  0.00  0.00    -0.205 F 
ATOM     10  C5  UNL     1      20.053  10.185  36.095  0.00  0.00    +0.107 A 
ATOM     11  C16 UNL     1      19.880   9.312  37.188  0.00  0.00    +0.139 A 
ATOM     12  F2  UNL     1      18.907   9.535  38.108  0.00  0.00    -0.205 F 
ATOM     13  C17 UNL     1      20.693   8.182  37.325  0.00  0.00    +0.042 A 
ENDBRANCH   1  10
BRANCH   3  14
ATOM     14  C7  UNL     1      16.987  12.412  35.222  0.00  0.00    +0.105 C 
ATOM     15  C8  UNL     1      16.083  12.070  34.025  0.00  0.00    +0.044 C 
ATOM     16  C9  UNL     1      15.171  13.247  33.664  0.00  0.00    +0.110 C 
ATOM     17  N2  UNL     1      14.433  13.713  34.848  0.00  0.00    -0.299 N 
ATOM     18  C10 UNL     1      13.066  14.167  34.742  0.00  0.00    +0.219 C 
ATOM     19  O2  UNL     1      12.366  14.303  35.782  0.00  0.00    -0.275 OA
ATOM     20  C14 UNL     1      15.207  14.016  36.061  0.00  0.00    +0.141 C 
ATOM     21  C15 UNL     1      16.118  12.834  36.429  0.00  0.00    +0.152 C 
BRANCH  18  22
ATOM     22  C11 UNL     1      12.429  14.442  33.407  0.00  0.00    +0.075 C 
ATOM     23  C12 UNL     1      11.626  13.285  32.830  0.00  0.00    +0.013 C 
ATOM     24  C13 UNL     1      10.909  14.481  33.427  0.00  0.00    +0.013 C 
ENDBRANCH  18  22
BRANCH  21  25
ATOM     25  O3  UNL     1      16.918  13.157  37.538  0.00  0.00    -0.388 OA
ATOM     26  H19 UNL     1      17.868  13.079  37.258  0.00  0.00    +0.210 HD
ENDBRANCH  21  25
ENDBRANCH   3  14
TORSDOF 4
ENDMDL
MODEL 3
REMARK VINA RESULT:    -5.857      7.310      8.969
REMARK INTER + INTRA:          -7.578
REMARK INTER:                  -7.164
REMARK INTRA:                  -0.414
REMARK UNBOUND:                -0.522
REMARK  Name = /home/qwerty/github/datacon2025hack/step_04_hit_selection/docking/ligands/lig_621.pdb
REMARK  5 active torsions:
REMARK  status: ('A' for Active; 'I' for Inactive)
REMARK    1  A    between atoms: C1_1  and  C2_2
REMARK    2  A    between atoms: C5_6  and  C6_7
REMARK    3  A    between atoms: N1_9  and  C7_10
REMARK    4  A    between atoms: C10_14  and  C11_16
REMARK    5  A    between atoms: C15_20  and  O3_21
REMARK                            x       y       z     vdW  Elec       q    Type
REMARK                         _______ _______ _______ _____ _____    ______ ____
ROOT
ATOM      1  C6  UNL     1      15.263  14.572  28.522  0.00  0.00    +0.250 C 
ATOM      2  O1  UNL     1      15.408  14.334  27.292  0.00  0.00    -0.270 OA
ATOM      3  N1  UNL     1      13.985  14.365  29.144  0.00  0.00    -0.306 N 
ATOM      4  H5  UNL     1      13.819  14.776  30.091  0.00  0.00    +0.149 HD
ENDROOT
BRANCH   1  10
ATOM      5  C1  UNL     1      19.768  16.551  31.593  0.00  0.00    +0.044 C 
ATOM      6  C2  UNL     1      18.582  16.056  30.821  0.00  0.00    -0.045 A 
ATOM      7  C3  UNL     1      18.038  16.830  29.787  0.00  0.00    +0.042 A 
ATOM      8  C4  UNL     1      16.955  16.356  29.040  0.00  0.00    +0.139 A 
ATOM      9  F1  UNL     1      16.419  17.161  28.088  0.00  0.00    -0.205 F 
ATOM     10  C5  UNL     1      16.411  15.085  29.305  0.00  0.00    +0.107 A 
ATOM     11  C16 UNL     1      16.964  14.307  30.342  0.00  0.00    +0.139 A 
ATOM     12  F2  UNL     1      16.477  13.070  30.618  0.00  0.00    -0.205 F 
ATOM     13  C17 UNL     1      18.047  14.787  31.084  0.00  0.00    +0.042 A 
ENDBRANCH   1  10
BRANCH   3  14
ATOM     14  C7  UNL     1      12.885  13.677  28.459  0.00  0.00    +0.105 C 
ATOM     15  C8  UNL     1      12.535  12.382  29.211  0.00  0.00    +0.044 C 
ATOM     16  C9  UNL     1      11.360  11.655  28.548  0.00  0.00    +0.110 C 
ATOM     17  N2  UNL     1      10.219  12.566  28.376  0.00  0.00    -0.299 N 
ATOM     18  C10 UNL     1       8.862  12.100  28.546  0.00  0.00    +0.219 C 
ATOM     19  O2  UNL     1       7.921  12.931  28.663  0.00  0.00    -0.275 OA
ATOM     20  C14 UNL     1      10.465  13.855  27.712  0.00  0.00    +0.141 C 
ATOM     21  C15 UNL     1      11.640  14.588  28.379  0.00  0.00    +0.152 C 
BRANCH  18  22
ATOM     22  C11 UNL     1       8.539  10.633  28.635  0.00  0.00    +0.075 C 
ATOM     23  C12 UNL     1       8.650  10.036  30.031  0.00  0.00    +0.013 C 
ATOM     24  C13 UNL     1       7.284  10.308  29.430  0.00  0.00    +0.013 C 
ENDBRANCH  18  22
BRANCH  21  25
ATOM     25  O3  UNL     1      11.929  15.780  27.692  0.00  0.00    -0.388 OA
ATOM     26  H19 UNL     1      12.727  16.189  28.120  0.00  0.00    +0.210 HD
ENDBRANCH  21  25
ENDBRANCH   3  14
TORSDOF 4
ENDMDL
MODEL 4
REMARK VINA RESULT:    -5.812      7.982     11.349
REMARK INTER + INTRA:          -7.523
REMARK INTER:                  -6.975
REMARK INTRA:                  -0.549
REMARK UNBOUND:                -0.522
REMARK  Name = /home/qwerty/github/datacon2025hack/step_04_hit_selection/docking/ligands/lig_621.pdb
REMARK  5 active torsions:
REMARK  status: ('A' for Active; 'I' for Inactive)
REMARK    1  A    between atoms: C1_1  and  C2_2
REMARK    2  A    between atoms: C5_6  and  C6_7
REMARK    3  A    between atoms: N1_9  and  C7_10
REMARK    4  A    between atoms: C10_14  and  C11_16
REMARK    5  A    between atoms: C15_20  and  O3_21
REMARK                            x       y       z     vdW  Elec       q    Type
REMARK                         _______ _______ _______ _____ _____    ______ ____
ROOT
ATOM      1  C6  UNL     1      10.921  13.525  28.144  0.00  0.00    +0.250 C 
ATOM      2  O1  UNL     1      10.678  14.521  27.409  0.00  0.00    -0.270 OA
ATOM      3  N1  UNL     1      12.224  13.369  28.728  0.00  0.00    -0.306 N 
ATOM      4  H5  UNL     1      12.478  12.441  29.138  0.00  0.00    +0.149 HD
ENDROOT
BRANCH   1  10
ATOM      5  C1  UNL     1       6.793   9.553  29.051  0.00  0.00    +0.044 C 
ATOM      6  C2  UNL     1       7.838  10.598  28.797  0.00  0.00    -0.045 A 
ATOM      7  C3  UNL     1       7.930  11.722  29.629  0.00  0.00    +0.042 A 
ATOM      8  C4  UNL     1       8.927  12.680  29.418  0.00  0.00    +0.139 A 
ATOM      9  F1  UNL     1       8.946  13.784  30.208  0.00  0.00    -0.205 F 
ATOM     10  C5  UNL     1       9.862  12.517  28.378  0.00  0.00    +0.107 A 
ATOM     11  C16 UNL     1       9.769  11.382  27.547  0.00  0.00    +0.139 A 
ATOM     12  F2  UNL     1      10.661  11.181  26.544  0.00  0.00    -0.205 F 
ATOM     13  C17 UNL     1       8.770  10.428  27.764  0.00  0.00    +0.042 A 
ENDBRANCH   1  10
BRANCH   3  14
ATOM     14  C7  UNL     1      13.231  14.435  28.686  0.00  0.00    +0.105 C 
ATOM     15  C8  UNL     1      14.003  14.471  30.016  0.00  0.00    +0.044 C 
ATOM     16  C9  UNL     1      15.095  15.546  29.995  0.00  0.00    +0.110 C 
ATOM     17  N2  UNL     1      15.957  15.385  28.815  0.00  0.00    -0.299 N 
ATOM     18  C10 UNL     1      17.378  15.637  28.891  0.00  0.00    +0.219 C 
ATOM     19  O2  UNL     1      18.137  15.242  27.965  0.00  0.00    -0.275 OA
ATOM     20  C14 UNL     1      15.307  15.289  27.500  0.00  0.00    +0.141 C 
ATOM     21  C15 UNL     1      14.215  14.206  27.517  0.00  0.00    +0.152 C 
BRANCH  18  22
ATOM     22  C11 UNL     1      17.992  16.326  30.079  0.00  0.00    +0.075 C 
ATOM     23  C12 UNL     1      18.597  15.393  31.118  0.00  0.00    +0.013 C 
ATOM     24  C13 UNL     1      19.502  16.176  30.186  0.00  0.00    +0.013 C 
ENDBRANCH  18  22
BRANCH  21  25
ATOM     25  O3  UNL     1      13.537  14.173  26.286  0.00  0.00    -0.388 OA
ATOM     26  H19 UNL     1      13.810  14.976  25.769  0.00  0.00    +0.210 HD
ENDBRANCH  21  25
ENDBRANCH   3  14
TORSDOF 4
ENDMDL
MODEL 5
REMARK VINA RESULT:    -5.783      3.049      8.609
REMARK INTER + INTRA:          -7.489
REMARK INTER:                  -7.589
REMARK INTRA:                   0.100
REMARK UNBOUND:                -0.522
REMARK  Name = /home/qwerty/github/datacon2025hack/step_04_hit_selection/docking/ligands/lig_621.pdb
REMARK  5 active torsions:
REMARK  status: ('A' for Active; 'I' for Inactive)
REMARK    1  A    between atoms: C1_1  and  C2_2
REMARK    2  A    between atoms: C5_6  and  C6_7
REMARK    3  A    between atoms: N1_9  and  C7_10
REMARK    4  A    between atoms: C10_14  and  C11_16
REMARK    5  A    between atoms: C15_20  and  O3_21
REMARK                            x       y       z     vdW  Elec       q    Type
REMARK                         _______ _______ _______ _____ _____    ______ ____
ROOT
ATOM      1  C6  UNL     1      14.420  11.784  36.630  0.00  0.00    +0.250 C 
ATOM      2  O1  UNL     1      14.671  10.693  36.048  0.00  0.00    -0.270 OA
ATOM      3  N1  UNL     1      15.378  12.342  37.543  0.00  0.00    -0.306 N 
ATOM      4  H5  UNL     1      15.068  13.111  38.181  0.00  0.00    +0.149 HD
ENDROOT
BRANCH   1  10
ATOM      5  C1  UNL     1       9.354  14.441  35.674  0.00  0.00    +0.044 C 
ATOM      6  C2  UNL     1      10.659  13.736  35.893  0.00  0.00    -0.045 A 
ATOM      7  C3  UNL     1      11.836  14.233  35.317  0.00  0.00    +0.042 A 
ATOM      8  C4  UNL     1      13.061  13.599  35.548  0.00  0.00    +0.139 A 
ATOM      9  F1  UNL     1      14.169  14.076  34.924  0.00  0.00    -0.205 F 
ATOM     10  C5  UNL     1      13.129  12.464  36.379  0.00  0.00    +0.107 A 
ATOM     11  C16 UNL     1      11.944  11.971  36.960  0.00  0.00    +0.139 A 
ATOM     12  F2  UNL     1      11.971  10.888  37.779  0.00  0.00    -0.205 F 
ATOM     13  C17 UNL     1      10.723  12.610  36.725  0.00  0.00    +0.042 A 
ENDBRANCH   1  10
BRANCH   3  14
ATOM     14  C7  UNL     1      16.740  11.811  37.669  0.00  0.00    +0.105 C 
ATOM     15  C8  UNL     1      16.684  10.335  38.094  0.00  0.00    +0.044 C 
ATOM     16  C9  UNL     1      18.089   9.732  38.194  0.00  0.00    +0.110 C 
ATOM     17  N2  UNL     1      18.841   9.961  36.951  0.00  0.00    -0.299 N 
ATOM     18  C10 UNL     1      19.744   8.960  36.432  0.00  0.00    +0.219 C 
ATOM     19  O2  UNL     1      20.168   9.050  35.248  0.00  0.00    -0.275 OA
ATOM     20  C14 UNL     1      18.908  11.337  36.436  0.00  0.00    +0.141 C 
ATOM     21  C15 UNL     1      17.498  11.941  36.329  0.00  0.00    +0.152 C 
BRANCH  18  22
ATOM     22  C11 UNL     1      20.162   7.774  37.257  0.00  0.00    +0.075 C 
ATOM     23  C12 UNL     1      19.360   6.505  37.009  0.00  0.00    +0.013 C 
ATOM     24  C13 UNL     1      20.768   6.630  36.459  0.00  0.00    +0.013 C 
ENDBRANCH  18  22
BRANCH  21  25
ATOM     25  O3  UNL     1      17.569  13.283  35.916  0.00  0.00    -0.388 OA
ATOM     26  H19 UNL     1      16.667  13.549  35.598  0.00  0.00    +0.210 HD
ENDBRANCH  21  25
ENDBRANCH   3  14
TORSDOF 4
ENDMDL
MODEL 6
REMARK VINA RESULT:    -5.731      1.694      2.422
REMARK INTER + INTRA:          -7.426
REMARK INTER:                  -6.919
REMARK INTRA:                  -0.507
REMARK UNBOUND:                -0.522
REMARK  Name = /home/qwerty/github/datacon2025hack/step_04_hit_selection/docking/ligands/lig_621.pdb
REMARK  5 active torsions:
REMARK  status: ('A' for Active; 'I' for Inactive)
REMARK    1  A    between atoms: C1_1  and  C2_2
REMARK    2  A    between atoms: C5_6  and  C6_7
REMARK    3  A    between atoms: N1_9  and  C7_10
REMARK    4  A    between atoms: C10_14  and  C11_16
REMARK    5  A    between atoms: C15_20  and  O3_21
REMARK                            x       y       z     vdW  Elec       q    Type
REMARK                         _______ _______ _______ _____ _____    ______ ____
ROOT
ATOM      1  C6  UNL     1      18.730   9.799  37.082  0.00  0.00    +0.250 C 
ATOM      2  O1  UNL     1      18.466  10.180  38.256  0.00  0.00    -0.270 OA
ATOM      3  N1  UNL     1      17.869  10.179  35.997  0.00  0.00    -0.306 N 
ATOM      4  H5  UNL     1      17.966   9.678  35.085  0.00  0.00    +0.149 HD
ENDROOT
BRANCH   1  10
ATOM      5  C1  UNL     1      23.355   6.426  36.145  0.00  0.00    +0.044 C 
ATOM      6  C2  UNL     1      22.175   7.313  36.413  0.00  0.00    -0.045 A 
ATOM      7  C3  UNL     1      22.097   8.582  35.826  0.00  0.00    +0.042 A 
ATOM      8  C4  UNL     1      20.982   9.398  36.044  0.00  0.00    +0.139 A 
ATOM      9  F1  UNL     1      20.972  10.644  35.506  0.00  0.00    -0.205 F 
ATOM     10  C5  UNL     1      19.915   8.944  36.843  0.00  0.00    +0.107 A 
ATOM     11  C16 UNL     1      19.995   7.665  37.427  0.00  0.00    +0.139 A 
ATOM     12  F2  UNL     1      18.980   7.185  38.191  0.00  0.00    -0.205 F 
ATOM     13  C17 UNL     1      21.113   6.854  37.204  0.00  0.00    +0.042 A 
ENDBRANCH   1  10
BRANCH   3  14
ATOM     14  C7  UNL     1      16.808  11.180  36.156  0.00  0.00    +0.105 C 
ATOM     15  C8  UNL     1      16.739  12.067  34.902  0.00  0.00    +0.044 C 
ATOM     16  C9  UNL     1      15.612  13.099  35.012  0.00  0.00    +0.110 C 
ATOM     17  N2  UNL     1      14.338  12.441  35.342  0.00  0.00    -0.299 N 
ATOM     18  C10 UNL     1      13.092  12.905  34.776  0.00  0.00    +0.219 C 
ATOM     19  O2  UNL     1      12.062  12.182  34.847  0.00  0.00    -0.275 OA
ATOM     20  C14 UNL     1      14.317  11.532  36.497  0.00  0.00    +0.141 C 
ATOM     21  C15 UNL     1      15.443  10.492  36.385  0.00  0.00    +0.152 C 
BRANCH  18  22
ATOM     22  C11 UNL     1      12.998  14.222  34.056  0.00  0.00    +0.075 C 
ATOM     23  C12 UNL     1      13.082  14.130  32.539  0.00  0.00    +0.013 C 
ATOM     24  C13 UNL     1      11.746  14.391  33.208  0.00  0.00    +0.013 C 
ENDBRANCH  18  22
BRANCH  21  25
ATOM     25  O3  UNL     1      15.475   9.676  37.529  0.00  0.00    -0.388 OA
ATOM     26  H19 UNL     1      15.825  10.223  38.280  0.00  0.00    +0.210 HD
ENDBRANCH  21  25
ENDBRANCH   3  14
TORSDOF 4
ENDMDL
MODEL 7
REMARK VINA RESULT:    -5.702      3.239      8.803
REMARK INTER + INTRA:          -7.390
REMARK INTER:                  -6.929
REMARK INTRA:                  -0.461
REMARK UNBOUND:                -0.522
REMARK  Name = /home/qwerty/github/datacon2025hack/step_04_hit_selection/docking/ligands/lig_621.pdb
REMARK  5 active torsions:
REMARK  status: ('A' for Active; 'I' for Inactive)
REMARK    1  A    between atoms: C1_1  and  C2_2
REMARK    2  A    between atoms: C5_6  and  C6_7
REMARK    3  A    between atoms: N1_9  and  C7_10
REMARK    4  A    between atoms: C10_14  and  C11_16
REMARK    5  A    between atoms: C15_20  and  O3_21
REMARK                            x       y       z     vdW  Elec       q    Type
REMARK                         _______ _______ _______ _____ _____    ______ ____
ROOT
ATOM      1  C6  UNL     1      17.204  10.424  35.669  0.00  0.00    +0.250 C 
ATOM      2  O1  UNL     1      16.593   9.561  34.980  0.00  0.00    -0.270 OA
ATOM      3  N1  UNL     1      18.456  10.087  36.289  0.00  0.00    -0.306 N 
ATOM      4  H5  UNL     1      18.831  10.721  37.030  0.00  0.00    +0.149 HD
ENDROOT
BRANCH   1  10
ATOM      5  C1  UNL     1      14.873  15.685  36.396  0.00  0.00    +0.044 C 
ATOM      6  C2  UNL     1      15.456  14.320  36.181  0.00  0.00    -0.045 A 
ATOM      7  C3  UNL     1      16.561  14.148  35.337  0.00  0.00    +0.042 A 
ATOM      8  C4  UNL     1      17.131  12.883  35.162  0.00  0.00    +0.139 A 
ATOM      9  F1  UNL     1      18.163  12.749  34.290  0.00  0.00    -0.205 F 
ATOM     10  C5  UNL     1      16.611  11.768  35.847  0.00  0.00    +0.107 A 
ATOM     11  C16 UNL     1      15.502  11.946  36.699  0.00  0.00    +0.139 A 
ATOM     12  F2  UNL     1      14.982  10.899  37.389  0.00  0.00    -0.205 F 
ATOM     13  C17 UNL     1      14.938  13.214  36.870  0.00  0.00    +0.042 A 
ENDBRANCH   1  10
BRANCH   3  14
ATOM     14  C7  UNL     1      19.172   8.844  35.978  0.00  0.00    +0.105 C 
ATOM     15  C8  UNL     1      20.026   9.040  34.715  0.00  0.00    +0.044 C 
ATOM     16  C9  UNL     1      20.824   7.775  34.382  0.00  0.00    +0.110 C 
ATOM     17  N2  UNL     1      21.592   7.324  35.552  0.00  0.00    -0.299 N 
ATOM     18  C10 UNL     1      22.913   6.757  35.402  0.00  0.00    +0.219 C 
ATOM     19  O2  UNL     1      23.660   6.629  36.410  0.00  0.00    -0.275 OA
ATOM     20  C14 UNL     1      20.871   7.157  36.823  0.00  0.00    +0.141 C 
ATOM     21  C15 UNL     1      20.075   8.428  37.161  0.00  0.00    +0.152 C 
BRANCH  18  22
ATOM     22  C11 UNL     1      23.447   6.353  34.056  0.00  0.00    +0.075 C 
ATOM     23  C12 UNL     1      24.310   7.400  33.367  0.00  0.00    +0.013 C 
ATOM     24  C13 UNL     1      24.958   6.183  33.999  0.00  0.00    +0.013 C 
ENDBRANCH  18  22
BRANCH  21  25
ATOM     25  O3  UNL     1      19.319   8.238  38.331  0.00  0.00    -0.388 OA
ATOM     26  H19 UNL     1      18.715   9.019  38.430  0.00  0.00    +0.210 HD
ENDBRANCH  21  25
ENDBRANCH   3  14
TORSDOF 4
ENDMDL
MODEL 8
REMARK VINA RESULT:    -5.664     16.447     18.999
REMARK INTER + INTRA:          -7.345
REMARK INTER:                  -6.923
REMARK INTRA:                  -0.423
REMARK UNBOUND:                -0.522
REMARK  Name = /home/qwerty/github/datacon2025hack/step_04_hit_selection/docking/ligands/lig_621.pdb
REMARK  5 active torsions:
REMARK  status: ('A' for Active; 'I' for Inactive)
REMARK    1  A    between atoms: C1_1  and  C2_2
REMARK    2  A    between atoms: C5_6  and  C6_7
REMARK    3  A    between atoms: N1_9  and  C7_10
REMARK    4  A    between atoms: C10_14  and  C11_16
REMARK    5  A    between atoms: C15_20  and  O3_21
REMARK                            x       y       z     vdW  Elec       q    Type
REMARK                         _______ _______ _______ _____ _____    ______ ____
ROOT
ATOM      1  C6  UNL     1      11.611   4.442  21.928  0.00  0.00    +0.250 C 
ATOM      2  O1  UNL     1      12.328   5.171  22.668  0.00  0.00    -0.270 OA
ATOM      3  N1  UNL     1      12.137   3.207  21.417  0.00  0.00    -0.306 N 
ATOM      4  H5  UNL     1      11.629   2.735  20.635  0.00  0.00    +0.149 HD
ENDROOT
BRANCH   1  10
ATOM      5  C1  UNL     1       6.237   6.159  20.579  0.00  0.00    +0.044 C 
ATOM      6  C2  UNL     1       7.629   5.699  20.897  0.00  0.00    -0.045 A 
ATOM      7  C3  UNL     1       8.734   6.467  20.507  0.00  0.00    +0.042 A 
ATOM      8  C4  UNL     1      10.032   6.061  20.834  0.00  0.00    +0.139 A 
ATOM      9  F1  UNL     1      11.078   6.801  20.386  0.00  0.00    -0.205 F 
ATOM     10  C5  UNL     1      10.242   4.884  21.577  0.00  0.00    +0.107 A 
ATOM     11  C16 UNL     1       9.128   4.117  21.972  0.00  0.00    +0.139 A 
ATOM     12  F2  UNL     1       9.289   2.983  22.702  0.00  0.00    -0.205 F 
ATOM     13  C17 UNL     1       7.833   4.529  21.642  0.00  0.00    +0.042 A 
ENDBRANCH   1  10
BRANCH   3  14
ATOM     14  C7  UNL     1      13.402   2.639  21.896  0.00  0.00    +0.105 C 
ATOM     15  C8  UNL     1      13.147   1.787  23.149  0.00  0.00    +0.044 C 
ATOM     16  C9  UNL     1      14.442   1.141  23.655  0.00  0.00    +0.110 C 
ATOM     17  N2  UNL     1      15.114   0.411  22.570  0.00  0.00    -0.299 N 
ATOM     18  C10 UNL     1      15.799  -0.836  22.825  0.00  0.00    +0.219 C 
ATOM     19  O2  UNL     1      16.132  -1.579  21.862  0.00  0.00    -0.275 OA
ATOM     20  C14 UNL     1      15.357   1.128  21.309  0.00  0.00    +0.141 C 
ATOM     21  C15 UNL     1      14.057   1.771  20.798  0.00  0.00    +0.152 C 
BRANCH  18  22
ATOM     22  C11 UNL     1      16.091  -1.301  24.225  0.00  0.00    +0.075 C 
ATOM     23  C12 UNL     1      15.089  -2.297  24.791  0.00  0.00    +0.013 C 
ATOM     24  C13 UNL     1      16.457  -2.773  24.339  0.00  0.00    +0.013 C 
ENDBRANCH  18  22
BRANCH  21  25
ATOM     25  O3  UNL     1      14.307   2.526  19.639  0.00  0.00    -0.388 OA
ATOM     26  H19 UNL     1      13.429   2.774  19.245  0.00  0.00    +0.210 HD
ENDBRANCH  21  25
ENDBRANCH   3  14
TORSDOF 4
ENDMDL
MODEL 9
REMARK VINA RESULT:    -5.532     16.478     18.783
REMARK INTER + INTRA:          -7.186
REMARK INTER:                  -6.777
REMARK INTRA:                  -0.409
REMARK UNBOUND:                -0.522
REMARK  Name = /home/qwerty/github/datacon2025hack/step_04_hit_selection/docking/ligands/lig_621.pdb
REMARK  5 active torsions:
REMARK  status: ('A' for Active; 'I' for Inactive)
REMARK    1  A    between atoms: C1_1  and  C2_2
REMARK    2  A    between atoms: C5_6  and  C6_7
REMARK    3  A    between atoms: N1_9  and  C7_10
REMARK    4  A    between atoms: C10_14  and  C11_16
REMARK    5  A    between atoms: C15_20  and  O3_21
REMARK                            x       y       z     vdW  Elec       q    Type
REMARK                         _______ _______ _______ _____ _____    ______ ____
ROOT
ATOM      1  C6  UNL     1       9.850   5.163  21.045  0.00  0.00    +0.250 C 
ATOM      2  O1  UNL     1       9.161   4.390  20.325  0.00  0.00    -0.270 OA
ATOM      3  N1  UNL     1      10.991   4.653  21.753  0.00  0.00    -0.306 N 
ATOM      4  H5  UNL     1      11.409   5.238  22.512  0.00  0.00    +0.149 HD
ENDROOT
BRANCH   1  10
ATOM      5  C1  UNL     1       8.306  10.731  21.553  0.00  0.00    +0.044 C 
ATOM      6  C2  UNL     1       8.688   9.290  21.391  0.00  0.00    -0.045 A 
ATOM      7  C3  UNL     1       9.855   8.942  20.697  0.00  0.00    +0.042 A 
ATOM      8  C4  UNL     1      10.235   7.602  20.577  0.00  0.00    +0.139 A 
ATOM      9  F1  UNL     1      11.338   7.301  19.845  0.00  0.00    -0.205 F 
ATOM     10  C5  UNL     1       9.459   6.586  21.168  0.00  0.00    +0.107 A 
ATOM     11  C16 UNL     1       8.289   6.941  21.869  0.00  0.00    +0.139 A 
ATOM     12  F2  UNL     1       7.523   5.993  22.467  0.00  0.00    -0.205 F 
ATOM     13  C17 UNL     1       7.916   8.284  21.987  0.00  0.00    +0.042 A 
ENDBRANCH   1  10
BRANCH   3  14
ATOM     14  C7  UNL     1      11.527   3.310  21.506  0.00  0.00    +0.105 C 
ATOM     15  C8  UNL     1      13.032   3.400  21.203  0.00  0.00    +0.044 C 
ATOM     16  C9  UNL     1      13.638   2.011  20.981  0.00  0.00    +0.110 C 
ATOM     17  N2  UNL     1      13.313   1.118  22.104  0.00  0.00    -0.299 N 
ATOM     18  C10 UNL     1      14.270   0.148  22.586  0.00  0.00    +0.219 C 
ATOM     19  O2  UNL     1      14.089  -0.413  23.700  0.00  0.00    -0.275 OA
ATOM     20  C14 UNL     1      11.902   1.005  22.502  0.00  0.00    +0.141 C 
ATOM     21  C15 UNL     1      11.294   2.398  22.732  0.00  0.00    +0.152 C 
BRANCH  18  22
ATOM     22  C11 UNL     1      15.514  -0.182  21.808  0.00  0.00    +0.075 C 
ATOM     23  C12 UNL     1      16.814   0.273  22.456  0.00  0.00    +0.013 C 
ATOM     24  C13 UNL     1      16.430  -1.194  22.479  0.00  0.00    +0.013 C 
ENDBRANCH  18  22
BRANCH  21  25
ATOM     25  O3  UNL     1       9.925   2.294  23.030  0.00  0.00    -0.388 OA
ATOM     26  H19 UNL     1       9.419   2.675  22.264  0.00  0.00    +0.210 HD
ENDBRANCH  21  25
ENDBRANCH   3  14
TORSDOF 4
ENDMDL
