REMARK  Name = /home/qwerty/github/datacon2025hack/step_04_hit_selection/docking/ligands/lig_47.pdb
REMARK  3 active torsions:
REMARK  status: ('A' for Active; 'I' for Inactive)
REMARK    1  A    between atoms: N1_3  and  C2_4
REMARK    2  A    between atoms: N2_12  and  C9_13
REMARK    3  A    between atoms: N3_17  and  C13_18
REMARK                            x       y       z     vdW  Elec       q    Type
REMARK                         _______ _______ _______ _____ _____    ______ ____
ROOT
ATOM      1  O1  UNL     1      -2.619   0.891  -0.194  0.00  0.00    -0.252 OA
ATOM      2  C1  UNL     1      -2.453   0.039   0.722  0.00  0.00    +0.308 C 
ATOM      3  N1  UNL     1      -1.138  -0.451   1.025  0.00  0.00    -0.269 N 
ATOM      4  N3  UNL     1      -3.567  -0.386   1.520  0.00  0.00    -0.267 N 
ATOM      5  H1  UNL     1      -0.991  -0.906   1.954  0.00  0.00    +0.156 HD
ATOM      6  H12 UNL     1      -3.365  -0.838   2.440  0.00  0.00    +0.156 HD
ENDROOT
BRANCH   3   7
ATOM      7  C2  UNL     1       0.008  -0.263   0.177  0.00  0.00    +0.036 A 
ATOM      8  C3  UNL     1      -0.113  -0.255  -1.237  0.00  0.00    +0.024 A 
ATOM      9  C4  UNL     1       1.021  -0.094  -2.052  0.00  0.00    +0.008 A 
ATOM     10  C5  UNL     1       2.267   0.044  -1.443  0.00  0.00    -0.018 A 
ATOM     11  C6  UNL     1       2.387   0.015  -0.075  0.00  0.00    +0.043 A 
ATOM     12  C7  UNL     1       1.285  -0.144   0.762  0.00  0.00    +0.036 A 
ATOM     13  C8  UNL     1       3.785   0.165   0.239  0.00  0.00    +0.248 C 
ATOM     14  O2  UNL     1       4.264   0.183   1.404  0.00  0.00    -0.270 OA
ATOM     15  N2  UNL     1       4.542   0.290  -0.973  0.00  0.00    -0.290 N 
ATOM     16  C12 UNL     1       3.605   0.216  -2.100  0.00  0.00    +0.144 C 
BRANCH  15  17
ATOM     17  C9  UNL     1       5.989   0.461  -1.180  0.00  0.00    +0.077 C 
ATOM     18  C10 UNL     1       6.891  -0.237  -0.176  0.00  0.00    +0.024 C 
ATOM     19  C11 UNL     1       6.718   1.279  -0.127  0.00  0.00    +0.024 C 
ENDBRANCH  15  17
ENDBRANCH   3   7
BRANCH   4  20
ATOM     20  C13 UNL     1      -4.933  -0.074   1.205  0.00  0.00    +0.073 A 
ATOM     21  C14 UNL     1      -5.801   0.322   2.234  0.00  0.00    +0.064 A 
ATOM     22  C15 UNL     1      -7.139   0.618   1.956  0.00  0.00    +0.125 A 
ATOM     23  F1  UNL     1      -7.967   1.014   2.955  0.00  0.00    -0.205 F 
ATOM     24  C16 UNL     1      -7.625   0.504   0.651  0.00  0.00    +0.041 A 
ATOM     25  C17 UNL     1      -6.776   0.083  -0.376  0.00  0.00    +0.043 A 
ATOM     26  C18 UNL     1      -5.436  -0.213  -0.105  0.00  0.00    +0.145 A 
ATOM     27  F2  UNL     1      -4.650  -0.681  -1.107  0.00  0.00    -0.204 F 
ENDBRANCH   4  20
TORSDOF 3
