MODEL 1
REMARK VINA RESULT:    -5.979      0.000      0.000
REMARK INTER + INTRA:          -8.174
REMARK INTER:                  -7.727
REMARK INTRA:                  -0.447
REMARK UNBOUND:                -0.447
REMARK  Name = /home/qwerty/github/datacon2025hack/step_04_hit_selection/docking/ligands/lig_140.pdb
REMARK  8 active torsions:
REMARK  status: ('A' for Active; 'I' for Inactive)
REMARK    1  A    between atoms: C1_1  and  C2_2
REMARK    2  A    between atoms: C2_2  and  C3_3
REMARK    3  A    between atoms: C3_3  and  C4_4
REMARK    4  A    between atoms: C3_3  and  C5_5
REMARK    5  A    between atoms: C8_10  and  C9_11
REMARK    6  A    between atoms: C9_11  and  N2_12
REMARK    7  A    between atoms: C10_13  and  C11_15
REMARK    8  A    between atoms: C14_19  and  C15_20
REMARK                            x       y       z     vdW  Elec       q    Type
REMARK                         _______ _______ _______ _____ _____    ______ ____
ROOT
ATOM      1  C9  UNL     1      19.955   3.485  23.386  0.00  0.00    +0.109 C 
ENDROOT
BRANCH   1   7
ATOM      2  C5  UNL     1      21.519   2.144  27.919  0.00  0.00    +0.218 C 
ATOM      3  O1  UNL     1      22.051   3.232  28.274  0.00  0.00    -0.275 OA
ATOM      4  N1  UNL     1      21.016   2.013  26.573  0.00  0.00    -0.301 N 
ATOM      5  C6  UNL     1      20.268   0.871  26.072  0.00  0.00    +0.108 C 
ATOM      6  C7  UNL     1      19.768   1.287  24.695  0.00  0.00    +0.025 C 
ATOM      7  C8  UNL     1      20.673   2.449  24.267  0.00  0.00    +0.025 C 
ATOM      8  C17 UNL     1      21.186   3.054  25.573  0.00  0.00    +0.112 C 
BRANCH   2   9
ATOM      9  C3  UNL     1      21.492   0.982  28.892  0.00  0.00    +0.072 C 
ATOM     10  C4  UNL     1      20.921   1.399  30.257  0.00  0.00    +0.017 C 
BRANCH   9  12
ATOM     11  C1  UNL     1      22.866  -1.199  28.741  0.00  0.00    +0.004 C 
ATOM     12  C2  UNL     1      22.874   0.310  29.008  0.00  0.00    +0.009 C 
ENDBRANCH   9  12
ENDBRANCH   2   9
ENDBRANCH   1   7
BRANCH   1  13
ATOM     13  N2  UNL     1      20.875   4.039  22.392  0.00  0.00    -0.311 N 
ATOM     14  C10 UNL     1      21.189   5.442  22.312  0.00  0.00    +0.244 C 
ATOM     15  O2  UNL     1      20.617   6.257  23.087  0.00  0.00    -0.270 OA
ATOM     16  H17 UNL     1      21.230   3.387  21.654  0.00  0.00    +0.149 HD
BRANCH  14  17
ATOM     17  C11 UNL     1      22.161   5.957  21.312  0.00  0.00    +0.040 A 
ATOM     18  C12 UNL     1      21.961   5.710  19.942  0.00  0.00    +0.033 A 
ATOM     19  C13 UNL     1      22.881   6.191  19.006  0.00  0.00    +0.112 A 
ATOM     20  N3  UNL     1      23.962   6.902  19.421  0.00  0.00    -0.260 NA
ATOM     21  C14 UNL     1      24.187   7.165  20.738  0.00  0.00    +0.039 A 
ATOM     22  C15 UNL     1      25.380   7.972  21.142  0.00  0.00    +0.065 C 
ATOM     23  C16 UNL     1      23.284   6.706  21.705  0.00  0.00    +0.036 A 
ENDBRANCH  14  17
ENDBRANCH   1  13
TORSDOF 5
ENDMDL
MODEL 2
REMARK VINA RESULT:    -5.598      5.331      7.852
REMARK INTER + INTRA:          -7.681
REMARK INTER:                  -6.989
REMARK INTRA:                  -0.693
REMARK UNBOUND:                -0.447
REMARK  Name = /home/qwerty/github/datacon2025hack/step_04_hit_selection/docking/ligands/lig_140.pdb
REMARK  8 active torsions:
REMARK  status: ('A' for Active; 'I' for Inactive)
REMARK    1  A    between atoms: C1_1  and  C2_2
REMARK    2  A    between atoms: C2_2  and  C3_3
REMARK    3  A    between atoms: C3_3  and  C4_4
REMARK    4  A    between atoms: C3_3  and  C5_5
REMARK    5  A    between atoms: C8_10  and  C9_11
REMARK    6  A    between atoms: C9_11  and  N2_12
REMARK    7  A    between atoms: C10_13  and  C11_15
REMARK    8  A    between atoms: C14_19  and  C15_20
REMARK                            x       y       z     vdW  Elec       q    Type
REMARK                         _______ _______ _______ _____ _____    ______ ____
ROOT
ATOM      1  C9  UNL     1      20.648   1.549  25.939  0.00  0.00    +0.109 C 
ENDROOT
BRANCH   1   7
ATOM      2  C5  UNL     1      19.664   1.457  30.819  0.00  0.00    +0.218 C 
ATOM      3  O1  UNL     1      18.668   2.234  30.835  0.00  0.00    -0.275 OA
ATOM      4  N1  UNL     1      20.389   1.267  29.587  0.00  0.00    -0.301 N 
ATOM      5  C6  UNL     1      21.467   0.311  29.394  0.00  0.00    +0.108 C 
ATOM      6  C7  UNL     1      21.754   0.318  27.899  0.00  0.00    +0.025 C 
ATOM      7  C8  UNL     1      21.176   1.641  27.380  0.00  0.00    +0.025 C 
ATOM      8  C17 UNL     1      20.079   2.012  28.377  0.00  0.00    +0.112 C 
BRANCH   2   9
ATOM      9  C3  UNL     1      20.114   0.807  32.112  0.00  0.00    +0.072 C 
ATOM     10  C4  UNL     1      19.074  -0.198  32.633  0.00  0.00    +0.017 C 
BRANCH   9  12
ATOM     11  C1  UNL     1      21.673   2.760  32.763  0.00  0.00    +0.004 C 
ATOM     12  C2  UNL     1      20.502   1.860  33.169  0.00  0.00    +0.009 C 
ENDBRANCH   9  12
ENDBRANCH   2   9
ENDBRANCH   1   7
BRANCH   1  13
ATOM     13  N2  UNL     1      19.789   0.375  25.781  0.00  0.00    -0.311 N 
ATOM     14  C10 UNL     1      18.387   0.466  25.465  0.00  0.00    +0.244 C 
ATOM     15  O2  UNL     1      17.840   1.599  25.367  0.00  0.00    -0.270 OA
ATOM     16  H17 UNL     1      20.207  -0.557  26.012  0.00  0.00    +0.149 HD
BRANCH  14  17
ATOM     17  C11 UNL     1      17.561  -0.755  25.273  0.00  0.00    +0.040 A 
ATOM     18  C12 UNL     1      18.136  -1.918  24.730  0.00  0.00    +0.033 A 
ATOM     19  C13 UNL     1      17.353  -3.061  24.547  0.00  0.00    +0.112 A 
ATOM     20  N3  UNL     1      16.041  -3.050  24.901  0.00  0.00    -0.260 NA
ATOM     21  C14 UNL     1      15.451  -1.945  25.434  0.00  0.00    +0.039 A 
ATOM     22  C15 UNL     1      14.009  -1.989  25.829  0.00  0.00    +0.065 C 
ATOM     23  C16 UNL     1      16.204  -0.781  25.639  0.00  0.00    +0.036 A 
ENDBRANCH  14  17
ENDBRANCH   1  13
TORSDOF 5
ENDMDL
MODEL 3
REMARK VINA RESULT:    -5.549      4.680      9.541
REMARK INTER + INTRA:          -7.619
REMARK INTER:                  -7.063
REMARK INTRA:                  -0.556
REMARK UNBOUND:                -0.447
REMARK  Name = /home/qwerty/github/datacon2025hack/step_04_hit_selection/docking/ligands/lig_140.pdb
REMARK  8 active torsions:
REMARK  status: ('A' for Active; 'I' for Inactive)
REMARK    1  A    between atoms: C1_1  and  C2_2
REMARK    2  A    between atoms: C2_2  and  C3_3
REMARK    3  A    between atoms: C3_3  and  C4_4
REMARK    4  A    between atoms: C3_3  and  C5_5
REMARK    5  A    between atoms: C8_10  and  C9_11
REMARK    6  A    between atoms: C9_11  and  N2_12
REMARK    7  A    between atoms: C10_13  and  C11_15
REMARK    8  A    between atoms: C14_19  and  C15_20
REMARK                            x       y       z     vdW  Elec       q    Type
REMARK                         _______ _______ _______ _____ _____    ______ ____
ROOT
ATOM      1  C9  UNL     1      21.286   1.680  31.831  0.00  0.00    +0.109 C 
ENDROOT
BRANCH   1   7
ATOM      2  C5  UNL     1      21.925   3.945  27.443  0.00  0.00    +0.218 C 
ATOM      3  O1  UNL     1      21.180   4.948  27.628  0.00  0.00    -0.275 OA
ATOM      4  N1  UNL     1      21.964   2.904  28.441  0.00  0.00    -0.301 N 
ATOM      5  C6  UNL     1      22.868   1.765  28.420  0.00  0.00    +0.108 C 
ATOM      6  C7  UNL     1      22.692   1.084  29.771  0.00  0.00    +0.025 C 
ATOM      7  C8  UNL     1      21.336   1.568  30.298  0.00  0.00    +0.025 C 
ATOM      8  C17 UNL     1      21.101   2.913  29.611  0.00  0.00    +0.112 C 
BRANCH   2   9
ATOM      9  C3  UNL     1      22.699   3.830  26.145  0.00  0.00    +0.072 C 
ATOM     10  C4  UNL     1      23.175   5.202  25.644  0.00  0.00    +0.017 C 
BRANCH   9  12
ATOM     11  C1  UNL     1      20.941   3.917  24.256  0.00  0.00    +0.004 C 
ATOM     12  C2  UNL     1      21.902   3.053  25.079  0.00  0.00    +0.009 C 
ENDBRANCH   9  12
ENDBRANCH   2   9
ENDBRANCH   1   7
BRANCH   1  13
ATOM     13  N2  UNL     1      22.131   2.781  32.294  0.00  0.00    -0.311 N 
ATOM     14  C10 UNL     1      21.606   3.950  32.950  0.00  0.00    +0.244 C 
ATOM     15  O2  UNL     1      20.358   4.078  33.096  0.00  0.00    -0.270 OA
ATOM     16  H17 UNL     1      23.145   2.745  32.036  0.00  0.00    +0.149 HD
BRANCH  14  17
ATOM     17  C11 UNL     1      22.505   5.027  33.440  0.00  0.00    +0.040 A 
ATOM     18  C12 UNL     1      23.469   5.586  32.582  0.00  0.00    +0.033 A 
ATOM     19  C13 UNL     1      24.316   6.594  33.049  0.00  0.00    +0.112 A 
ATOM     20  N3  UNL     1      24.203   7.037  34.328  0.00  0.00    -0.260 NA
ATOM     21  C14 UNL     1      23.279   6.524  35.187  0.00  0.00    +0.039 A 
ATOM     22  C15 UNL     1      23.178   7.062  36.580  0.00  0.00    +0.065 C 
ATOM     23  C16 UNL     1      22.407   5.517  34.755  0.00  0.00    +0.036 A 
ENDBRANCH  14  17
ENDBRANCH   1  13
TORSDOF 5
ENDMDL
MODEL 4
REMARK VINA RESULT:    -5.546     15.362     16.604
REMARK INTER + INTRA:          -7.614
REMARK INTER:                  -7.085
REMARK INTRA:                  -0.530
REMARK UNBOUND:                -0.447
REMARK  Name = /home/qwerty/github/datacon2025hack/step_04_hit_selection/docking/ligands/lig_140.pdb
REMARK  8 active torsions:
REMARK  status: ('A' for Active; 'I' for Inactive)
REMARK    1  A    between atoms: C1_1  and  C2_2
REMARK    2  A    between atoms: C2_2  and  C3_3
REMARK    3  A    between atoms: C3_3  and  C4_4
REMARK    4  A    between atoms: C3_3  and  C5_5
REMARK    5  A    between atoms: C8_10  and  C9_11
REMARK    6  A    between atoms: C9_11  and  N2_12
REMARK    7  A    between atoms: C10_13  and  C11_15
REMARK    8  A    between atoms: C14_19  and  C15_20
REMARK                            x       y       z     vdW  Elec       q    Type
REMARK                         _______ _______ _______ _____ _____    ______ ____
ROOT
ATOM      1  C9  UNL     1      11.281  14.146  29.750  0.00  0.00    +0.109 C 
ENDROOT
BRANCH   1   7
ATOM      2  C5  UNL     1      11.266  12.780  34.539  0.00  0.00    +0.218 C 
ATOM      3  O1  UNL     1      10.405  13.595  34.974  0.00  0.00    -0.275 OA
ATOM      4  N1  UNL     1      11.704  12.884  33.168  0.00  0.00    -0.301 N 
ATOM      5  C6  UNL     1      12.585  11.939  32.502  0.00  0.00    +0.108 C 
ATOM      6  C7  UNL     1      12.573  12.339  31.033  0.00  0.00    +0.025 C 
ATOM      7  C8  UNL     1      12.088  13.794  31.011  0.00  0.00    +0.025 C 
ATOM      8  C17 UNL     1      11.266  13.957  32.289  0.00  0.00    +0.112 C 
BRANCH   2   9
ATOM      9  C3  UNL     1      11.868  11.764  35.489  0.00  0.00    +0.072 C 
ATOM     10  C4  UNL     1      11.305  10.355  35.244  0.00  0.00    +0.017 C 
BRANCH   9  12
ATOM     11  C1  UNL     1      11.018  11.198  37.861  0.00  0.00    +0.004 C 
ATOM     12  C2  UNL     1      11.728  12.212  36.957  0.00  0.00    +0.009 C 
ENDBRANCH   9  12
ENDBRANCH   2   9
ENDBRANCH   1   7
BRANCH   1  13
ATOM     13  N2  UNL     1      10.592  12.962  29.235  0.00  0.00    -0.311 N 
ATOM     14  C10 UNL     1       9.161  12.810  29.271  0.00  0.00    +0.244 C 
ATOM     15  O2  UNL     1       8.451  13.700  29.817  0.00  0.00    -0.270 OA
ATOM     16  H17 UNL     1      11.189  12.160  28.923  0.00  0.00    +0.149 HD
BRANCH  14  17
ATOM     17  C11 UNL     1       8.500  11.608  28.699  0.00  0.00    +0.040 A 
ATOM     18  C12 UNL     1       7.777  10.736  29.534  0.00  0.00    +0.033 A 
ATOM     19  C13 UNL     1       7.162   9.604  28.992  0.00  0.00    +0.112 A 
ATOM     20  N3  UNL     1       7.258   9.351  27.660  0.00  0.00    -0.260 NA
ATOM     21  C14 UNL     1       7.945  10.174  26.820  0.00  0.00    +0.039 A 
ATOM     22  C15 UNL     1       8.002   9.865  25.358  0.00  0.00    +0.065 C 
ATOM     23  C16 UNL     1       8.570  11.322  27.324  0.00  0.00    +0.036 A 
ENDBRANCH  14  17
ENDBRANCH   1  13
TORSDOF 5
ENDMDL
MODEL 5
REMARK VINA RESULT:    -5.511     15.572     17.230
REMARK INTER + INTRA:          -7.570
REMARK INTER:                  -6.905
REMARK INTRA:                  -0.665
REMARK UNBOUND:                -0.447
REMARK  Name = /home/qwerty/github/datacon2025hack/step_04_hit_selection/docking/ligands/lig_140.pdb
REMARK  8 active torsions:
REMARK  status: ('A' for Active; 'I' for Inactive)
REMARK    1  A    between atoms: C1_1  and  C2_2
REMARK    2  A    between atoms: C2_2  and  C3_3
REMARK    3  A    between atoms: C3_3  and  C4_4
REMARK    4  A    between atoms: C3_3  and  C5_5
REMARK    5  A    between atoms: C8_10  and  C9_11
REMARK    6  A    between atoms: C9_11  and  N2_12
REMARK    7  A    between atoms: C10_13  and  C11_15
REMARK    8  A    between atoms: C14_19  and  C15_20
REMARK                            x       y       z     vdW  Elec       q    Type
REMARK                         _______ _______ _______ _____ _____    ______ ____
ROOT
ATOM      1  C9  UNL     1      11.186  14.248  29.397  0.00  0.00    +0.109 C 
ENDROOT
BRANCH   1   7
ATOM      2  C5  UNL     1       8.924   9.836  29.860  0.00  0.00    +0.218 C 
ATOM      3  O1  UNL     1       9.865   9.186  30.396  0.00  0.00    -0.275 OA
ATOM      4  N1  UNL     1       9.165  11.187  29.415  0.00  0.00    -0.301 N 
ATOM      5  C6  UNL     1       8.146  12.089  28.903  0.00  0.00    +0.108 C 
ATOM      6  C7  UNL     1       8.828  13.445  28.784  0.00  0.00    +0.025 C 
ATOM      7  C8  UNL     1      10.332  13.143  28.752  0.00  0.00    +0.025 C 
ATOM      8  C17 UNL     1      10.482  11.802  29.469  0.00  0.00    +0.112 C 
BRANCH   2   9
ATOM      9  C3  UNL     1       7.591   9.152  29.632  0.00  0.00    +0.072 C 
ATOM     10  C4  UNL     1       7.090   8.446  30.902  0.00  0.00    +0.017 C 
BRANCH   9  12
ATOM     11  C1  UNL     1       7.384   8.905  27.069  0.00  0.00    +0.004 C 
ATOM     12  C2  UNL     1       7.640   8.211  28.412  0.00  0.00    +0.009 C 
ENDBRANCH   9  12
ENDBRANCH   2   9
ENDBRANCH   1   7
BRANCH   1  13
ATOM     13  N2  UNL     1      11.143  14.144  30.855  0.00  0.00    -0.311 N 
ATOM     14  C10 UNL     1      12.325  14.162  31.678  0.00  0.00    +0.244 C 
ATOM     15  O2  UNL     1      13.463  14.213  31.136  0.00  0.00    -0.270 OA
ATOM     16  H17 UNL     1      10.212  13.948  31.293  0.00  0.00    +0.149 HD
BRANCH  14  17
ATOM     17  C11 UNL     1      12.232  14.095  33.160  0.00  0.00    +0.040 A 
ATOM     18  C12 UNL     1      13.396  13.936  33.933  0.00  0.00    +0.033 A 
ATOM     19  C13 UNL     1      13.303  13.868  35.326  0.00  0.00    +0.112 A 
ATOM     20  N3  UNL     1      12.090  13.963  35.930  0.00  0.00    -0.260 NA
ATOM     21  C14 UNL     1      10.942  14.123  35.216  0.00  0.00    +0.039 A 
ATOM     22  C15 UNL     1       9.633  14.244  35.930  0.00  0.00    +0.065 C 
ATOM     23  C16 UNL     1      10.994  14.201  33.818  0.00  0.00    +0.036 A 
ENDBRANCH  14  17
ENDBRANCH   1  13
TORSDOF 5
ENDMDL
MODEL 6
REMARK VINA RESULT:    -5.509      4.637      8.251
REMARK INTER + INTRA:          -7.567
REMARK INTER:                  -7.071
REMARK INTRA:                  -0.496
REMARK UNBOUND:                -0.447
REMARK  Name = /home/qwerty/github/datacon2025hack/step_04_hit_selection/docking/ligands/lig_140.pdb
REMARK  8 active torsions:
REMARK  status: ('A' for Active; 'I' for Inactive)
REMARK    1  A    between atoms: C1_1  and  C2_2
REMARK    2  A    between atoms: C2_2  and  C3_3
REMARK    3  A    between atoms: C3_3  and  C4_4
REMARK    4  A    between atoms: C3_3  and  C5_5
REMARK    5  A    between atoms: C8_10  and  C9_11
REMARK    6  A    between atoms: C9_11  and  N2_12
REMARK    7  A    between atoms: C10_13  and  C11_15
REMARK    8  A    between atoms: C14_19  and  C15_20
REMARK                            x       y       z     vdW  Elec       q    Type
REMARK                         _______ _______ _______ _____ _____    ______ ____
ROOT
ATOM      1  C9  UNL     1      21.122   1.918  31.737  0.00  0.00    +0.109 C 
ENDROOT
BRANCH   1   7
ATOM      2  C5  UNL     1      22.797   6.589  32.146  0.00  0.00    +0.218 C 
ATOM      3  O1  UNL     1      23.000   6.834  30.923  0.00  0.00    -0.275 OA
ATOM      4  N1  UNL     1      22.405   5.258  32.541  0.00  0.00    -0.301 N 
ATOM      5  C6  UNL     1      22.016   4.871  33.887  0.00  0.00    +0.108 C 
ATOM      6  C7  UNL     1      21.480   3.451  33.761  0.00  0.00    +0.025 C 
ATOM      7  C8  UNL     1      22.055   2.914  32.445  0.00  0.00    +0.025 C 
ATOM      8  C17 UNL     1      22.330   4.155  31.597  0.00  0.00    +0.112 C 
BRANCH   2   9
ATOM      9  C3  UNL     1      23.044   7.680  33.168  0.00  0.00    +0.072 C 
ATOM     10  C4  UNL     1      22.236   8.948  32.852  0.00  0.00    +0.017 C 
BRANCH   9  12
ATOM     11  C1  UNL     1      25.058   9.173  32.547  0.00  0.00    +0.004 C 
ATOM     12  C2  UNL     1      24.549   7.964  33.340  0.00  0.00    +0.009 C 
ENDBRANCH   9  12
ENDBRANCH   2   9
ENDBRANCH   1   7
BRANCH   1  13
ATOM     13  N2  UNL     1      21.054   2.207  30.304  0.00  0.00    -0.311 N 
ATOM     14  C10 UNL     1      21.651   1.360  29.304  0.00  0.00    +0.244 C 
ATOM     15  O2  UNL     1      22.314   0.346  29.658  0.00  0.00    -0.270 OA
ATOM     16  H17 UNL     1      20.638   3.126  30.022  0.00  0.00    +0.149 HD
BRANCH  14  17
ATOM     17  C11 UNL     1      21.523   1.672  27.856  0.00  0.00    +0.040 A 
ATOM     18  C12 UNL     1      22.361   2.634  27.265  0.00  0.00    +0.033 A 
ATOM     19  C13 UNL     1      22.232   2.927  25.904  0.00  0.00    +0.112 A 
ATOM     20  N3  UNL     1      21.304   2.277  25.155  0.00  0.00    -0.260 NA
ATOM     21  C14 UNL     1      20.479   1.336  25.691  0.00  0.00    +0.039 A 
ATOM     22  C15 UNL     1      19.487   0.632  24.818  0.00  0.00    +0.065 C 
ATOM     23  C16 UNL     1      20.580   1.010  27.049  0.00  0.00    +0.036 A 
ENDBRANCH  14  17
ENDBRANCH   1  13
TORSDOF 5
ENDMDL
MODEL 7
REMARK VINA RESULT:    -5.462      4.640      7.961
REMARK INTER + INTRA:          -7.505
REMARK INTER:                  -6.885
REMARK INTRA:                  -0.621
REMARK UNBOUND:                -0.447
REMARK  Name = /home/qwerty/github/datacon2025hack/step_04_hit_selection/docking/ligands/lig_140.pdb
REMARK  8 active torsions:
REMARK  status: ('A' for Active; 'I' for Inactive)
REMARK    1  A    between atoms: C1_1  and  C2_2
REMARK    2  A    between atoms: C2_2  and  C3_3
REMARK    3  A    between atoms: C3_3  and  C4_4
REMARK    4  A    between atoms: C3_3  and  C5_5
REMARK    5  A    between atoms: C8_10  and  C9_11
REMARK    6  A    between atoms: C9_11  and  N2_12
REMARK    7  A    between atoms: C10_13  and  C11_15
REMARK    8  A    between atoms: C14_19  and  C15_20
REMARK                            x       y       z     vdW  Elec       q    Type
REMARK                         _______ _______ _______ _____ _____    ______ ____
ROOT
ATOM      1  C9  UNL     1      21.284   1.837  31.739  0.00  0.00    +0.109 C 
ENDROOT
BRANCH   1   7
ATOM      2  C5  UNL     1      23.739   6.017  32.877  0.00  0.00    +0.218 C 
ATOM      3  O1  UNL     1      24.903   5.539  32.986  0.00  0.00    -0.275 OA
ATOM      4  N1  UNL     1      22.628   5.122  32.664  0.00  0.00    -0.301 N 
ATOM      5  C6  UNL     1      21.262   5.541  32.393  0.00  0.00    +0.108 C 
ATOM      6  C7  UNL     1      20.514   4.268  32.021  0.00  0.00    +0.025 C 
ATOM      7  C8  UNL     1      21.360   3.119  32.585  0.00  0.00    +0.025 C 
ATOM      8  C17 UNL     1      22.780   3.676  32.669  0.00  0.00    +0.112 C 
BRANCH   2   9
ATOM      9  C3  UNL     1      23.535   7.509  33.048  0.00  0.00    +0.072 C 
ATOM     10  C4  UNL     1      24.772   8.306  32.605  0.00  0.00    +0.017 C 
BRANCH   9  12
ATOM     11  C1  UNL     1      21.816   8.712  34.554  0.00  0.00    +0.004 C 
ATOM     12  C2  UNL     1      23.086   7.858  34.480  0.00  0.00    +0.009 C 
ENDBRANCH   9  12
ENDBRANCH   2   9
ENDBRANCH   1   7
BRANCH   1  13
ATOM     13  N2  UNL     1      21.119   2.166  30.323  0.00  0.00    -0.311 N 
ATOM     14  C10 UNL     1      22.039   1.730  29.305  0.00  0.00    +0.244 C 
ATOM     15  O2  UNL     1      23.071   1.080  29.630  0.00  0.00    -0.270 OA
ATOM     16  H17 UNL     1      20.350   2.832  30.074  0.00  0.00    +0.149 HD
BRANCH  14  17
ATOM     17  C11 UNL     1      21.811   2.054  27.872  0.00  0.00    +0.040 A 
ATOM     18  C12 UNL     1      20.910   1.287  27.111  0.00  0.00    +0.033 A 
ATOM     19  C13 UNL     1      20.703   1.592  25.763  0.00  0.00    +0.112 A 
ATOM     20  N3  UNL     1      21.366   2.631  25.192  0.00  0.00    -0.260 NA
ATOM     21  C14 UNL     1      22.241   3.399  25.898  0.00  0.00    +0.039 A 
ATOM     22  C15 UNL     1      22.930   4.547  25.230  0.00  0.00    +0.065 C 
ATOM     23  C16 UNL     1      22.471   3.130  27.253  0.00  0.00    +0.036 A 
ENDBRANCH  14  17
ENDBRANCH   1  13
TORSDOF 5
ENDMDL
MODEL 8
REMARK VINA RESULT:    -5.458     15.785     16.760
REMARK INTER + INTRA:          -7.501
REMARK INTER:                  -6.995
REMARK INTRA:                  -0.506
REMARK UNBOUND:                -0.447
REMARK  Name = /home/qwerty/github/datacon2025hack/step_04_hit_selection/docking/ligands/lig_140.pdb
REMARK  8 active torsions:
REMARK  status: ('A' for Active; 'I' for Inactive)
REMARK    1  A    between atoms: C1_1  and  C2_2
REMARK    2  A    between atoms: C2_2  and  C3_3
REMARK    3  A    between atoms: C3_3  and  C4_4
REMARK    4  A    between atoms: C3_3  and  C5_5
REMARK    5  A    between atoms: C8_10  and  C9_11
REMARK    6  A    between atoms: C9_11  and  N2_12
REMARK    7  A    between atoms: C10_13  and  C11_15
REMARK    8  A    between atoms: C14_19  and  C15_20
REMARK                            x       y       z     vdW  Elec       q    Type
REMARK                         _______ _______ _______ _____ _____    ______ ____
ROOT
ATOM      1  C9  UNL     1      11.474  13.816  30.661  0.00  0.00    +0.109 C 
ENDROOT
BRANCH   1   7
ATOM      2  C5  UNL     1      12.205  11.642  35.081  0.00  0.00    +0.218 C 
ATOM      3  O1  UNL     1      11.895  10.457  34.772  0.00  0.00    -0.275 OA
ATOM      4  N1  UNL     1      12.024  12.692  34.109  0.00  0.00    -0.301 N 
ATOM      5  C6  UNL     1      12.456  14.070  34.282  0.00  0.00    +0.108 C 
ATOM      6  C7  UNL     1      12.257  14.731  32.925  0.00  0.00    +0.025 C 
ATOM      7  C8  UNL     1      11.252  13.842  32.182  0.00  0.00    +0.025 C 
ATOM      8  C17 UNL     1      11.405  12.459  32.814  0.00  0.00    +0.112 C 
BRANCH   2   9
ATOM      9  C3  UNL     1      12.686  11.937  36.487  0.00  0.00    +0.072 C 
ATOM     10  C4  UNL     1      14.212  11.799  36.606  0.00  0.00    +0.017 C 
BRANCH   9  12
ATOM     11  C1  UNL     1      10.526  11.603  37.864  0.00  0.00    +0.004 C 
ATOM     12  C2  UNL     1      11.932  11.091  37.531  0.00  0.00    +0.009 C 
ENDBRANCH   9  12
ENDBRANCH   2   9
ENDBRANCH   1   7
BRANCH   1  13
ATOM     13  N2  UNL     1      10.770  12.683  30.059  0.00  0.00    -0.311 N 
ATOM     14  C10 UNL     1       9.403  12.757  29.614  0.00  0.00    +0.244 C 
ATOM     15  O2  UNL     1       8.744  13.819  29.791  0.00  0.00    -0.270 OA
ATOM     16  H17 UNL     1      11.266  11.761  30.052  0.00  0.00    +0.149 HD
BRANCH  14  17
ATOM     17  C11 UNL     1       8.739  11.593  28.970  0.00  0.00    +0.040 A 
ATOM     18  C12 UNL     1       8.697  11.492  27.568  0.00  0.00    +0.033 A 
ATOM     19  C13 UNL     1       8.067  10.399  26.968  0.00  0.00    +0.112 A 
ATOM     20  N3  UNL     1       7.503   9.433  27.738  0.00  0.00    -0.260 NA
ATOM     21  C14 UNL     1       7.527   9.494  29.099  0.00  0.00    +0.039 A 
ATOM     22  C15 UNL     1       6.911   8.394  29.904  0.00  0.00    +0.065 C 
ATOM     23  C16 UNL     1       8.155  10.570  29.738  0.00  0.00    +0.036 A 
ENDBRANCH  14  17
ENDBRANCH   1  13
TORSDOF 5
ENDMDL
MODEL 9
REMARK VINA RESULT:    -5.405      9.287     12.497
REMARK INTER + INTRA:          -7.433
REMARK INTER:                  -6.887
REMARK INTRA:                  -0.546
REMARK UNBOUND:                -0.447
REMARK  Name = /home/qwerty/github/datacon2025hack/step_04_hit_selection/docking/ligands/lig_140.pdb
REMARK  8 active torsions:
REMARK  status: ('A' for Active; 'I' for Inactive)
REMARK    1  A    between atoms: C1_1  and  C2_2
REMARK    2  A    between atoms: C2_2  and  C3_3
REMARK    3  A    between atoms: C3_3  and  C4_4
REMARK    4  A    between atoms: C3_3  and  C5_5
REMARK    5  A    between atoms: C8_10  and  C9_11
REMARK    6  A    between atoms: C9_11  and  N2_12
REMARK    7  A    between atoms: C10_13  and  C11_15
REMARK    8  A    between atoms: C14_19  and  C15_20
REMARK                            x       y       z     vdW  Elec       q    Type
REMARK                         _______ _______ _______ _____ _____    ______ ____
ROOT
ATOM      1  C9  UNL     1      10.387   3.222  21.221  0.00  0.00    +0.109 C 
ENDROOT
BRANCH   1   7
ATOM      2  C5  UNL     1      10.031   8.109  22.108  0.00  0.00    +0.218 C 
ATOM      3  O1  UNL     1       9.024   8.099  22.870  0.00  0.00    -0.275 OA
ATOM      4  N1  UNL     1      10.450   6.881  21.479  0.00  0.00    -0.301 N 
ATOM      5  C6  UNL     1      11.659   6.721  20.687  0.00  0.00    +0.108 C 
ATOM      6  C7  UNL     1      11.784   5.224  20.435  0.00  0.00    +0.025 C 
ATOM      7  C8  UNL     1      10.378   4.654  20.661  0.00  0.00    +0.025 C 
ATOM      8  C17 UNL     1       9.697   5.643  21.608  0.00  0.00    +0.112 C 
BRANCH   2   9
ATOM      9  C3  UNL     1      10.724   9.425  21.818  0.00  0.00    +0.072 C 
ATOM     10  C4  UNL     1      10.781  10.324  23.063  0.00  0.00    +0.017 C 
BRANCH   9  12
ATOM     11  C1  UNL     1      10.978  10.126  19.345  0.00  0.00    +0.004 C 
ATOM     12  C2  UNL     1      10.101  10.137  20.602  0.00  0.00    +0.009 C 
ENDBRANCH   9  12
ENDBRANCH   2   9
ENDBRANCH   1   7
BRANCH   1  13
ATOM     13  N2  UNL     1      11.655   2.561  20.918  0.00  0.00    -0.311 N 
ATOM     14  C10 UNL     1      12.413   1.830  21.900  0.00  0.00    +0.244 C 
ATOM     15  O2  UNL     1      12.013   1.790  23.096  0.00  0.00    -0.270 OA
ATOM     16  H17 UNL     1      12.063   2.722  19.966  0.00  0.00    +0.149 HD
BRANCH  14  17
ATOM     17  C11 UNL     1      13.678   1.138  21.538  0.00  0.00    +0.040 A 
ATOM     18  C12 UNL     1      14.304   1.411  20.307  0.00  0.00    +0.033 A 
ATOM     19  C13 UNL     1      15.489   0.753  19.969  0.00  0.00    +0.112 A 
ATOM     20  N3  UNL     1      16.040  -0.141  20.831  0.00  0.00    -0.260 NA
ATOM     21  C14 UNL     1      15.466  -0.427  22.033  0.00  0.00    +0.039 A 
ATOM     22  C15 UNL     1      16.123  -1.403  22.957  0.00  0.00    +0.065 C 
ATOM     23  C16 UNL     1      14.281   0.215  22.411  0.00  0.00    +0.036 A 
ENDBRANCH  14  17
ENDBRANCH   1  13
TORSDOF 5
ENDMDL
