MODEL 1
REMARK VINA RESULT:    -8.022      0.000      0.000
REMARK INTER + INTRA:         -10.455
REMARK INTER:                  -9.898
REMARK INTRA:                  -0.557
REMARK UNBOUND:                -0.557
REMARK  Name = /home/qwerty/github/datacon2025hack/step_04_hit_selection/docking/ligands/lig_87.pdb
REMARK  5 active torsions:
REMARK  status: ('A' for Active; 'I' for Inactive)
REMARK    1  A    between atoms: C1_1  and  C2_2
REMARK    2  A    between atoms: C6_8  and  C7_10
REMARK    3  A    between atoms: C11_14  and  C12_15
REMARK    4  A    between atoms: C12_15  and  N3_16
REMARK    5  A    between atoms: C19_24  and  C20_25
REMARK                            x       y       z     vdW  Elec       q    Type
REMARK                         _______ _______ _______ _____ _____    ______ ____
ROOT
ATOM      1  C1  UNL     1      19.661   3.928  26.335  0.00  0.00    +0.067 C 
ATOM      2  C2  UNL     1      20.336   3.862  27.662  0.00  0.00    +0.063 A 
ATOM      3  C3  UNL     1      20.200   4.798  28.684  0.00  0.00    +0.073 A 
ATOM      4  C4  UNL     1      20.959   4.257  29.692  0.00  0.00    +0.158 A 
ATOM      5  N1  UNL     1      21.203   4.775  30.917  0.00  0.00    -0.213 NA
ATOM      6  C5  UNL     1      22.014   4.092  31.780  0.00  0.00    +0.130 A 
ATOM      7  N2  UNL     1      22.281   4.605  33.096  0.00  0.00    -0.266 N 
ATOM      8  C6  UNL     1      21.876   5.911  33.547  0.00  0.00    +0.249 C 
ATOM      9  O1  UNL     1      21.529   6.787  32.709  0.00  0.00    -0.270 OA
ATOM     10  C18 UNL     1      22.577   2.856  31.385  0.00  0.00    +0.072 A 
ATOM     11  C19 UNL     1      22.293   2.345  30.104  0.00  0.00    +0.078 A 
ATOM     12  N4  UNL     1      21.483   3.089  29.301  0.00  0.00    -0.214 N 
ATOM     13  N5  UNL     1      21.114   2.826  28.058  0.00  0.00    -0.170 NA
ATOM     14  H5  UNL     1      22.835   4.007  33.750  0.00  0.00    +0.157 HD
ENDROOT
BRANCH   8  15
ATOM     15  C7  UNL     1      21.898   6.256  34.989  0.00  0.00    +0.037 A 
ATOM     16  C8  UNL     1      23.116   6.274  35.691  0.00  0.00    +0.013 A 
ATOM     17  C9  UNL     1      23.144   6.586  37.052  0.00  0.00    +0.001 A 
ATOM     18  C10 UNL     1      21.963   6.896  37.726  0.00  0.00    +0.005 A 
ATOM     19  C11 UNL     1      20.740   6.906  37.039  0.00  0.00    -0.033 A 
ATOM     20  C17 UNL     1      20.713   6.589  35.671  0.00  0.00    +0.018 A 
BRANCH  19  21
ATOM     21  C12 UNL     1      19.468   7.239  37.775  0.00  0.00    +0.119 C 
BRANCH  21  22
ATOM     22  N3  UNL     1      18.672   8.221  37.011  0.00  0.00    -0.294 NA
ATOM     23  C13 UNL     1      17.297   7.719  36.795  0.00  0.00    +0.113 C 
ATOM     24  C14 UNL     1      16.323   8.878  36.524  0.00  0.00    +0.175 C 
ATOM     25  O2  UNL     1      16.228   9.807  37.596  0.00  0.00    -0.377 OA
ATOM     26  C15 UNL     1      17.396   9.870  38.404  0.00  0.00    +0.175 C 
ATOM     27  C16 UNL     1      18.695   9.569  37.633  0.00  0.00    +0.113 C 
ENDBRANCH  21  22
ENDBRANCH  19  21
ENDBRANCH   8  15
BRANCH  11  28
ATOM     28  C20 UNL     1      22.849   1.045  29.661  0.00  0.00    +0.001 A 
ATOM     29  C21 UNL     1      21.990  -0.023  29.342  0.00  0.00    +0.010 A 
ATOM     30  C22 UNL     1      22.515  -1.247  28.913  0.00  0.00    +0.001 A 
ATOM     31  C23 UNL     1      23.897  -1.413  28.792  0.00  0.00    +0.000 A 
ATOM     32  C24 UNL     1      24.758  -0.356  29.101  0.00  0.00    +0.001 A 
ATOM     33  C25 UNL     1      24.238   0.867  29.533  0.00  0.00    +0.010 A 
ENDBRANCH  11  28
TORSDOF 4
ENDMDL
MODEL 2
REMARK VINA RESULT:    -7.859      1.645      2.210
REMARK INTER + INTRA:         -10.253
REMARK INTER:                  -9.558
REMARK INTRA:                  -0.695
REMARK UNBOUND:                -0.557
REMARK  Name = /home/qwerty/github/datacon2025hack/step_04_hit_selection/docking/ligands/lig_87.pdb
REMARK  5 active torsions:
REMARK  status: ('A' for Active; 'I' for Inactive)
REMARK    1  A    between atoms: C1_1  and  C2_2
REMARK    2  A    between atoms: C6_8  and  C7_10
REMARK    3  A    between atoms: C11_14  and  C12_15
REMARK    4  A    between atoms: C12_15  and  N3_16
REMARK    5  A    between atoms: C19_24  and  C20_25
REMARK                            x       y       z     vdW  Elec       q    Type
REMARK                         _______ _______ _______ _____ _____    ______ ____
ROOT
ATOM      1  C1  UNL     1      21.749   4.213  25.280  0.00  0.00    +0.067 C 
ATOM      2  C2  UNL     1      21.746   3.977  26.752  0.00  0.00    +0.063 A 
ATOM      3  C3  UNL     1      21.184   4.824  27.704  0.00  0.00    +0.073 A 
ATOM      4  C4  UNL     1      21.390   4.139  28.876  0.00  0.00    +0.158 A 
ATOM      5  N1  UNL     1      21.064   4.524  30.131  0.00  0.00    -0.213 NA
ATOM      6  C5  UNL     1      21.378   3.708  31.182  0.00  0.00    +0.130 A 
ATOM      7  N2  UNL     1      21.031   4.079  32.527  0.00  0.00    -0.266 N 
ATOM      8  C6  UNL     1      20.498   5.364  32.894  0.00  0.00    +0.249 C 
ATOM      9  O1  UNL     1      20.590   6.336  32.095  0.00  0.00    -0.270 OA
ATOM     10  C18 UNL     1      22.029   2.475  30.943  0.00  0.00    +0.072 A 
ATOM     11  C19 UNL     1      22.345   2.105  29.621  0.00  0.00    +0.078 A 
ATOM     12  N4  UNL     1      22.005   2.976  28.631  0.00  0.00    -0.214 N 
ATOM     13  N5  UNL     1      22.235   2.855  27.334  0.00  0.00    -0.170 NA
ATOM     14  H5  UNL     1      21.214   3.384  33.286  0.00  0.00    +0.157 HD
ENDROOT
BRANCH   8  15
ATOM     15  C7  UNL     1      19.872   5.575  34.221  0.00  0.00    +0.037 A 
ATOM     16  C8  UNL     1      19.140   4.539  34.827  0.00  0.00    +0.013 A 
ATOM     17  C9  UNL     1      18.536   4.733  36.072  0.00  0.00    +0.001 A 
ATOM     18  C10 UNL     1      18.665   5.956  36.732  0.00  0.00    +0.005 A 
ATOM     19  C11 UNL     1      19.409   6.994  36.154  0.00  0.00    -0.033 A 
ATOM     20  C17 UNL     1      20.013   6.799  34.902  0.00  0.00    +0.018 A 
BRANCH  19  21
ATOM     21  C12 UNL     1      19.541   8.313  36.873  0.00  0.00    +0.119 C 
BRANCH  21  22
ATOM     22  N3  UNL     1      18.591   9.299  36.320  0.00  0.00    -0.294 NA
ATOM     23  C13 UNL     1      17.744   9.862  37.394  0.00  0.00    +0.113 C 
ATOM     24  C14 UNL     1      17.169  11.228  36.983  0.00  0.00    +0.175 C 
ATOM     25  O2  UNL     1      18.162  12.212  36.723  0.00  0.00    -0.377 OA
ATOM     26  C15 UNL     1      19.407  11.669  36.301  0.00  0.00    +0.175 C 
ATOM     27  C16 UNL     1      19.271  10.349  35.521  0.00  0.00    +0.113 C 
ENDBRANCH  21  22
ENDBRANCH  19  21
ENDBRANCH   8  15
BRANCH  11  28
ATOM     28  C20 UNL     1      23.009   0.813  29.330  0.00  0.00    +0.001 A 
ATOM     29  C21 UNL     1      24.410   0.704  29.393  0.00  0.00    +0.010 A 
ATOM     30  C22 UNL     1      25.036  -0.519  29.129  0.00  0.00    +0.001 A 
ATOM     31  C23 UNL     1      24.271  -1.642  28.808  0.00  0.00    +0.000 A 
ATOM     32  C24 UNL     1      22.878  -1.546  28.748  0.00  0.00    +0.001 A 
ATOM     33  C25 UNL     1      22.248  -0.326  29.008  0.00  0.00    +0.010 A 
ENDBRANCH  11  28
TORSDOF 4
ENDMDL
MODEL 3
REMARK VINA RESULT:    -7.808      7.768     12.111
REMARK INTER + INTRA:         -10.190
REMARK INTER:                  -9.492
REMARK INTRA:                  -0.698
REMARK UNBOUND:                -0.557
REMARK  Name = /home/qwerty/github/datacon2025hack/step_04_hit_selection/docking/ligands/lig_87.pdb
REMARK  5 active torsions:
REMARK  status: ('A' for Active; 'I' for Inactive)
REMARK    1  A    between atoms: C1_1  and  C2_2
REMARK    2  A    between atoms: C6_8  and  C7_10
REMARK    3  A    between atoms: C11_14  and  C12_15
REMARK    4  A    between atoms: C12_15  and  N3_16
REMARK    5  A    between atoms: C19_24  and  C20_25
REMARK                            x       y       z     vdW  Elec       q    Type
REMARK                         _______ _______ _______ _____ _____    ______ ____
ROOT
ATOM      1  C1  UNL     1      22.629   0.826  29.435  0.00  0.00    +0.067 C 
ATOM      2  C2  UNL     1      22.085   1.395  28.169  0.00  0.00    +0.063 A 
ATOM      3  C3  UNL     1      22.673   2.414  27.424  0.00  0.00    +0.073 A 
ATOM      4  C4  UNL     1      21.831   2.523  26.345  0.00  0.00    +0.158 A 
ATOM      5  N1  UNL     1      21.915   3.391  25.311  0.00  0.00    -0.213 NA
ATOM      6  C5  UNL     1      20.956   3.362  24.337  0.00  0.00    +0.130 A 
ATOM      7  N2  UNL     1      21.023   4.260  23.216  0.00  0.00    -0.266 N 
ATOM      8  C6  UNL     1      21.969   5.339  23.106  0.00  0.00    +0.249 C 
ATOM      9  O1  UNL     1      22.591   5.738  24.128  0.00  0.00    -0.270 OA
ATOM     10  C18 UNL     1      19.900   2.424  24.419  0.00  0.00    +0.072 A 
ATOM     11  C19 UNL     1      19.852   1.531  25.506  0.00  0.00    +0.078 A 
ATOM     12  N4  UNL     1      20.840   1.629  26.439  0.00  0.00    -0.214 N 
ATOM     13  N5  UNL     1      20.974   0.926  27.551  0.00  0.00    -0.170 NA
ATOM     14  H5  UNL     1      20.317   4.141  22.454  0.00  0.00    +0.157 HD
ENDROOT
BRANCH   8  15
ATOM     15  C7  UNL     1      22.197   6.019  21.808  0.00  0.00    +0.037 A 
ATOM     16  C8  UNL     1      21.783   5.410  20.611  0.00  0.00    +0.013 A 
ATOM     17  C9  UNL     1      22.004   6.037  19.383  0.00  0.00    +0.001 A 
ATOM     18  C10 UNL     1      22.630   7.284  19.334  0.00  0.00    +0.005 A 
ATOM     19  C11 UNL     1      23.031   7.918  20.519  0.00  0.00    -0.033 A 
ATOM     20  C17 UNL     1      22.810   7.284  21.753  0.00  0.00    +0.018 A 
BRANCH  19  21
ATOM     21  C12 UNL     1      23.708   9.263  20.458  0.00  0.00    +0.119 C 
BRANCH  21  22
ATOM     22  N3  UNL     1      22.856  10.239  19.749  0.00  0.00    -0.294 NA
ATOM     23  C13 UNL     1      21.767  10.715  20.631  0.00  0.00    +0.113 C 
ATOM     24  C14 UNL     1      21.231  12.077  20.159  0.00  0.00    +0.175 C 
ATOM     25  O2  UNL     1      22.209  13.109  20.165  0.00  0.00    -0.377 OA
ATOM     26  C15 UNL     1      23.541  12.637  20.008  0.00  0.00    +0.175 C 
ATOM     27  C16 UNL     1      23.643  11.353  19.163  0.00  0.00    +0.113 C 
ENDBRANCH  21  22
ENDBRANCH  19  21
ENDBRANCH   8  15
BRANCH  11  28
ATOM     28  C20 UNL     1      18.772   0.522  25.616  0.00  0.00    +0.001 A 
ATOM     29  C21 UNL     1      17.670   0.750  26.460  0.00  0.00    +0.010 A 
ATOM     30  C22 UNL     1      16.645  -0.197  26.555  0.00  0.00    +0.001 A 
ATOM     31  C23 UNL     1      16.708  -1.374  25.805  0.00  0.00    +0.000 A 
ATOM     32  C24 UNL     1      17.796  -1.608  24.960  0.00  0.00    +0.001 A 
ATOM     33  C25 UNL     1      18.823  -0.665  24.864  0.00  0.00    +0.010 A 
ENDBRANCH  11  28
TORSDOF 4
ENDMDL
MODEL 4
REMARK VINA RESULT:    -7.634      6.125     11.997
REMARK INTER + INTRA:          -9.976
REMARK INTER:                  -9.388
REMARK INTRA:                  -0.589
REMARK UNBOUND:                -0.557
REMARK  Name = /home/qwerty/github/datacon2025hack/step_04_hit_selection/docking/ligands/lig_87.pdb
REMARK  5 active torsions:
REMARK  status: ('A' for Active; 'I' for Inactive)
REMARK    1  A    between atoms: C1_1  and  C2_2
REMARK    2  A    between atoms: C6_8  and  C7_10
REMARK    3  A    between atoms: C11_14  and  C12_15
REMARK    4  A    between atoms: C12_15  and  N3_16
REMARK    5  A    between atoms: C19_24  and  C20_25
REMARK                            x       y       z     vdW  Elec       q    Type
REMARK                         _______ _______ _______ _____ _____    ______ ____
ROOT
ATOM      1  C1  UNL     1      18.744   2.983  31.698  0.00  0.00    +0.067 C 
ATOM      2  C2  UNL     1      18.943   2.333  30.372  0.00  0.00    +0.063 A 
ATOM      3  C3  UNL     1      18.012   2.310  29.336  0.00  0.00    +0.073 A 
ATOM      4  C4  UNL     1      18.689   1.656  28.336  0.00  0.00    +0.158 A 
ATOM      5  N1  UNL     1      18.237   1.331  27.103  0.00  0.00    -0.213 NA
ATOM      6  C5  UNL     1      19.060   0.650  26.251  0.00  0.00    +0.130 A 
ATOM      7  N2  UNL     1      18.618   0.302  24.927  0.00  0.00    -0.266 N 
ATOM      8  C6  UNL     1      17.270   0.481  24.458  0.00  0.00    +0.249 C 
ATOM      9  O1  UNL     1      16.335   0.673  25.283  0.00  0.00    -0.270 OA
ATOM     10  C18 UNL     1      20.368   0.304  26.664  0.00  0.00    +0.072 A 
ATOM     11  C19 UNL     1      20.805   0.667  27.952  0.00  0.00    +0.078 A 
ATOM     12  N4  UNL     1      19.923   1.337  28.744  0.00  0.00    -0.214 N 
ATOM     13  N5  UNL     1      20.101   1.742  29.991  0.00  0.00    -0.170 NA
ATOM     14  H5  UNL     1      19.311  -0.141  24.282  0.00  0.00    +0.157 HD
ENDROOT
BRANCH   8  15
ATOM     15  C7  UNL     1      16.953   0.404  23.011  0.00  0.00    +0.037 A 
ATOM     16  C8  UNL     1      17.009  -0.830  22.342  0.00  0.00    +0.013 A 
ATOM     17  C9  UNL     1      16.724  -0.910  20.977  0.00  0.00    +0.001 A 
ATOM     18  C10 UNL     1      16.370   0.237  20.265  0.00  0.00    +0.005 A 
ATOM     19  C11 UNL     1      16.288   1.475  20.919  0.00  0.00    -0.033 A 
ATOM     20  C17 UNL     1      16.577   1.554  22.291  0.00  0.00    +0.018 A 
BRANCH  19  21
ATOM     21  C12 UNL     1      15.907   2.709  20.143  0.00  0.00    +0.119 C 
BRANCH  21  22
ATOM     22  N3  UNL     1      14.829   3.443  20.836  0.00  0.00    -0.294 NA
ATOM     23  C13 UNL     1      15.067   4.902  20.767  0.00  0.00    +0.113 C 
ATOM     24  C14 UNL     1      13.756   5.683  20.961  0.00  0.00    +0.175 C 
ATOM     25  O2  UNL     1      12.774   5.407  19.971  0.00  0.00    -0.377 OA
ATOM     26  C15 UNL     1      12.897   4.117  19.388  0.00  0.00    +0.175 C 
ATOM     27  C16 UNL     1      13.482   3.061  20.344  0.00  0.00    +0.113 C 
ENDBRANCH  21  22
ENDBRANCH  19  21
ENDBRANCH   8  15
BRANCH  11  28
ATOM     28  C20 UNL     1      22.174   0.339  28.413  0.00  0.00    +0.001 A 
ATOM     29  C21 UNL     1      22.574  -1.003  28.553  0.00  0.00    +0.010 A 
ATOM     30  C22 UNL     1      23.870  -1.312  28.977  0.00  0.00    +0.001 A 
ATOM     31  C23 UNL     1      24.779  -0.288  29.258  0.00  0.00    +0.000 A 
ATOM     32  C24 UNL     1      24.393   1.047  29.117  0.00  0.00    +0.001 A 
ATOM     33  C25 UNL     1      23.098   1.361  28.696  0.00  0.00    +0.010 A 
ENDBRANCH  11  28
TORSDOF 4
ENDMDL
MODEL 5
REMARK VINA RESULT:    -7.611      6.377     11.037
REMARK INTER + INTRA:          -9.947
REMARK INTER:                  -9.171
REMARK INTRA:                  -0.776
REMARK UNBOUND:                -0.557
REMARK  Name = /home/qwerty/github/datacon2025hack/step_04_hit_selection/docking/ligands/lig_87.pdb
REMARK  5 active torsions:
REMARK  status: ('A' for Active; 'I' for Inactive)
REMARK    1  A    between atoms: C1_1  and  C2_2
REMARK    2  A    between atoms: C6_8  and  C7_10
REMARK    3  A    between atoms: C11_14  and  C12_15
REMARK    4  A    between atoms: C12_15  and  N3_16
REMARK    5  A    between atoms: C19_24  and  C20_25
REMARK                            x       y       z     vdW  Elec       q    Type
REMARK                         _______ _______ _______ _____ _____    ______ ____
ROOT
ATOM      1  C1  UNL     1      18.703   1.410  32.428  0.00  0.00    +0.067 C 
ATOM      2  C2  UNL     1      18.990   1.327  30.968  0.00  0.00    +0.063 A 
ATOM      3  C3  UNL     1      18.114   1.698  29.951  0.00  0.00    +0.073 A 
ATOM      4  C4  UNL     1      18.862   1.489  28.818  0.00  0.00    +0.158 A 
ATOM      5  N1  UNL     1      18.485   1.663  27.531  0.00  0.00    -0.213 NA
ATOM      6  C5  UNL     1      19.373   1.374  26.532  0.00  0.00    +0.130 A 
ATOM      7  N2  UNL     1      19.010   1.562  25.153  0.00  0.00    -0.266 N 
ATOM      8  C6  UNL     1      17.683   1.895  24.709  0.00  0.00    +0.249 C 
ATOM      9  O1  UNL     1      16.701   1.742  25.488  0.00  0.00    -0.270 OA
ATOM     10  C18 UNL     1      20.668   0.908  26.857  0.00  0.00    +0.072 A 
ATOM     11  C19 UNL     1      21.026   0.748  28.209  0.00  0.00    +0.078 A 
ATOM     12  N4  UNL     1      20.084   1.050  29.144  0.00  0.00    -0.214 N 
ATOM     13  N5  UNL     1      20.185   0.942  30.459  0.00  0.00    -0.170 NA
ATOM     14  H5  UNL     1      19.750   1.411  24.430  0.00  0.00    +0.157 HD
ENDROOT
BRANCH   8  15
ATOM     15  C7  UNL     1      17.444   2.382  23.329  0.00  0.00    +0.037 A 
ATOM     16  C8  UNL     1      16.588   1.672  22.470  0.00  0.00    +0.013 A 
ATOM     17  C9  UNL     1      16.366   2.116  21.165  0.00  0.00    +0.001 A 
ATOM     18  C10 UNL     1      16.985   3.279  20.704  0.00  0.00    +0.005 A 
ATOM     19  C11 UNL     1      17.825   4.014  21.553  0.00  0.00    -0.033 A 
ATOM     20  C17 UNL     1      18.049   3.565  22.865  0.00  0.00    +0.018 A 
BRANCH  19  21
ATOM     21  C12 UNL     1      18.492   5.268  21.048  0.00  0.00    +0.119 C 
BRANCH  21  22
ATOM     22  N3  UNL     1      19.668   5.598  21.877  0.00  0.00    -0.294 NA
ATOM     23  C13 UNL     1      20.917   5.214  21.183  0.00  0.00    +0.113 C 
ATOM     24  C14 UNL     1      22.115   6.013  21.722  0.00  0.00    +0.175 C 
ATOM     25  O2  UNL     1      21.993   7.418  21.542  0.00  0.00    -0.377 OA
ATOM     26  C15 UNL     1      20.647   7.872  21.481  0.00  0.00    +0.175 C 
ATOM     27  C16 UNL     1      19.671   7.018  22.311  0.00  0.00    +0.113 C 
ENDBRANCH  21  22
ENDBRANCH  19  21
ENDBRANCH   8  15
BRANCH  11  28
ATOM     28  C20 UNL     1      22.380   0.281  28.589  0.00  0.00    +0.001 A 
ATOM     29  C21 UNL     1      22.672  -1.095  28.629  0.00  0.00    +0.010 A 
ATOM     30  C22 UNL     1      23.953  -1.535  28.976  0.00  0.00    +0.001 A 
ATOM     31  C23 UNL     1      24.954  -0.609  29.278  0.00  0.00    +0.000 A 
ATOM     32  C24 UNL     1      24.677   0.760  29.235  0.00  0.00    +0.001 A 
ATOM     33  C25 UNL     1      23.397   1.204  28.891  0.00  0.00    +0.010 A 
ENDBRANCH  11  28
TORSDOF 4
ENDMDL
MODEL 6
REMARK VINA RESULT:    -7.604      6.321     11.443
REMARK INTER + INTRA:          -9.939
REMARK INTER:                  -9.406
REMARK INTRA:                  -0.533
REMARK UNBOUND:                -0.557
REMARK  Name = /home/qwerty/github/datacon2025hack/step_04_hit_selection/docking/ligands/lig_87.pdb
REMARK  5 active torsions:
REMARK  status: ('A' for Active; 'I' for Inactive)
REMARK    1  A    between atoms: C1_1  and  C2_2
REMARK    2  A    between atoms: C6_8  and  C7_10
REMARK    3  A    between atoms: C11_14  and  C12_15
REMARK    4  A    between atoms: C12_15  and  N3_16
REMARK    5  A    between atoms: C19_24  and  C20_25
REMARK                            x       y       z     vdW  Elec       q    Type
REMARK                         _______ _______ _______ _____ _____    ______ ____
ROOT
ATOM      1  C1  UNL     1      18.884   1.458  32.499  0.00  0.00    +0.067 C 
ATOM      2  C2  UNL     1      19.133   1.337  31.035  0.00  0.00    +0.063 A 
ATOM      3  C3  UNL     1      18.236   1.691  30.031  0.00  0.00    +0.073 A 
ATOM      4  C4  UNL     1      18.953   1.449  28.885  0.00  0.00    +0.158 A 
ATOM      5  N1  UNL     1      18.545   1.594  27.604  0.00  0.00    -0.213 NA
ATOM      6  C5  UNL     1      19.405   1.274  26.590  0.00  0.00    +0.130 A 
ATOM      7  N2  UNL     1      19.010   1.432  25.217  0.00  0.00    -0.266 N 
ATOM      8  C6  UNL     1      17.674   1.766  24.798  0.00  0.00    +0.249 C 
ATOM      9  O1  UNL     1      16.711   1.641  25.604  0.00  0.00    -0.270 OA
ATOM     10  C18 UNL     1      20.704   0.805  26.894  0.00  0.00    +0.072 A 
ATOM     11  C19 UNL     1      21.095   0.674  28.240  0.00  0.00    +0.078 A 
ATOM     12  N4  UNL     1      20.179   1.007  29.191  0.00  0.00    -0.214 N 
ATOM     13  N5  UNL     1      20.312   0.929  30.505  0.00  0.00    -0.170 NA
ATOM     14  H5  UNL     1      19.729   1.257  24.479  0.00  0.00    +0.157 HD
ENDROOT
BRANCH   8  15
ATOM     15  C7  UNL     1      17.404   2.222  23.413  0.00  0.00    +0.037 A 
ATOM     16  C8  UNL     1      16.558   1.472  22.577  0.00  0.00    +0.013 A 
ATOM     17  C9  UNL     1      16.308   1.887  21.268  0.00  0.00    +0.001 A 
ATOM     18  C10 UNL     1      16.888   3.059  20.779  0.00  0.00    +0.005 A 
ATOM     19  C11 UNL     1      17.717   3.832  21.605  0.00  0.00    -0.033 A 
ATOM     20  C17 UNL     1      17.970   3.412  22.921  0.00  0.00    +0.018 A 
BRANCH  19  21
ATOM     21  C12 UNL     1      18.342   5.095  21.069  0.00  0.00    +0.119 C 
BRANCH  21  22
ATOM     22  N3  UNL     1      17.296   6.050  20.647  0.00  0.00    -0.294 NA
ATOM     23  C13 UNL     1      17.550   7.387  21.225  0.00  0.00    +0.113 C 
ATOM     24  C14 UNL     1      16.856   8.485  20.401  0.00  0.00    +0.175 C 
ATOM     25  O2  UNL     1      17.304   8.558  19.053  0.00  0.00    -0.377 OA
ATOM     26  C15 UNL     1      17.803   7.325  18.549  0.00  0.00    +0.175 C 
ATOM     27  C16 UNL     1      17.132   6.088  19.172  0.00  0.00    +0.113 C 
ENDBRANCH  21  22
ENDBRANCH  19  21
ENDBRANCH   8  15
BRANCH  11  28
ATOM     28  C20 UNL     1      22.454   0.204  28.597  0.00  0.00    +0.001 A 
ATOM     29  C21 UNL     1      23.454   1.127  28.954  0.00  0.00    +0.010 A 
ATOM     30  C22 UNL     1      24.733   0.682  29.303  0.00  0.00    +0.001 A 
ATOM     31  C23 UNL     1      25.024  -0.685  29.305  0.00  0.00    +0.000 A 
ATOM     32  C24 UNL     1      24.036  -1.610  28.957  0.00  0.00    +0.001 A 
ATOM     33  C25 UNL     1      22.757  -1.170  28.606  0.00  0.00    +0.010 A 
ENDBRANCH  11  28
TORSDOF 4
ENDMDL
MODEL 7
REMARK VINA RESULT:    -7.573      6.213     11.445
REMARK INTER + INTRA:          -9.900
REMARK INTER:                  -9.221
REMARK INTRA:                  -0.680
REMARK UNBOUND:                -0.557
REMARK  Name = /home/qwerty/github/datacon2025hack/step_04_hit_selection/docking/ligands/lig_87.pdb
REMARK  5 active torsions:
REMARK  status: ('A' for Active; 'I' for Inactive)
REMARK    1  A    between atoms: C1_1  and  C2_2
REMARK    2  A    between atoms: C6_8  and  C7_10
REMARK    3  A    between atoms: C11_14  and  C12_15
REMARK    4  A    between atoms: C12_15  and  N3_16
REMARK    5  A    between atoms: C19_24  and  C20_25
REMARK                            x       y       z     vdW  Elec       q    Type
REMARK                         _______ _______ _______ _____ _____    ______ ____
ROOT
ATOM      1  C1  UNL     1      19.070   1.398  32.734  0.00  0.00    +0.067 C 
ATOM      2  C2  UNL     1      19.274   1.321  31.260  0.00  0.00    +0.063 A 
ATOM      3  C3  UNL     1      18.351   1.719  30.296  0.00  0.00    +0.073 A 
ATOM      4  C4  UNL     1      19.030   1.506  29.122  0.00  0.00    +0.158 A 
ATOM      5  N1  UNL     1      18.586   1.698  27.859  0.00  0.00    -0.213 NA
ATOM      6  C5  UNL     1      19.411   1.400  26.810  0.00  0.00    +0.130 A 
ATOM      7  N2  UNL     1      18.976   1.608  25.455  0.00  0.00    -0.266 N 
ATOM      8  C6  UNL     1      17.633   1.972  25.088  0.00  0.00    +0.249 C 
ATOM      9  O1  UNL     1      16.694   1.833  25.919  0.00  0.00    -0.270 OA
ATOM     10  C18 UNL     1      20.712   0.905  27.058  0.00  0.00    +0.072 A 
ATOM     11  C19 UNL     1      21.141   0.726  28.387  0.00  0.00    +0.078 A 
ATOM     12  N4  UNL     1      20.259   1.038  29.376  0.00  0.00    -0.214 N 
ATOM     13  N5  UNL     1      20.430   0.916  30.682  0.00  0.00    -0.170 NA
ATOM     14  H5  UNL     1      19.671   1.448  24.690  0.00  0.00    +0.157 HD
ENDROOT
BRANCH   8  15
ATOM     15  C7  UNL     1      17.328   2.476  23.727  0.00  0.00    +0.037 A 
ATOM     16  C8  UNL     1      18.286   3.226  23.023  0.00  0.00    +0.013 A 
ATOM     17  C9  UNL     1      18.003   3.715  21.746  0.00  0.00    +0.001 A 
ATOM     18  C10 UNL     1      16.768   3.453  21.151  0.00  0.00    +0.005 A 
ATOM     19  C11 UNL     1      15.807   2.688  21.829  0.00  0.00    -0.033 A 
ATOM     20  C17 UNL     1      16.092   2.199  23.114  0.00  0.00    +0.018 A 
BRANCH  19  21
ATOM     21  C12 UNL     1      14.475   2.411  21.181  0.00  0.00    +0.119 C 
BRANCH  21  22
ATOM     22  N3  UNL     1      13.509   3.479  21.510  0.00  0.00    -0.294 NA
ATOM     23  C13 UNL     1      13.245   4.324  20.325  0.00  0.00    +0.113 C 
ATOM     24  C14 UNL     1      11.894   5.048  20.455  0.00  0.00    +0.175 C 
ATOM     25  O2  UNL     1      10.781   4.169  20.555  0.00  0.00    -0.377 OA
ATOM     26  C15 UNL     1      11.103   2.899  21.107  0.00  0.00    +0.175 C 
ATOM     27  C16 UNL     1      12.264   2.944  22.117  0.00  0.00    +0.113 C 
ENDBRANCH  21  22
ENDBRANCH  19  21
ENDBRANCH   8  15
BRANCH  11  28
ATOM     28  C20 UNL     1      22.504   0.227  28.687  0.00  0.00    +0.001 A 
ATOM     29  C21 UNL     1      23.529   1.126  29.036  0.00  0.00    +0.010 A 
ATOM     30  C22 UNL     1      24.812   0.654  29.331  0.00  0.00    +0.001 A 
ATOM     31  C23 UNL     1      25.081  -0.716  29.287  0.00  0.00    +0.000 A 
ATOM     32  C24 UNL     1      24.069  -1.617  28.948  0.00  0.00    +0.001 A 
ATOM     33  C25 UNL     1      22.786  -1.150  28.650  0.00  0.00    +0.010 A 
ENDBRANCH  11  28
TORSDOF 4
ENDMDL
MODEL 8
REMARK VINA RESULT:    -7.518      5.645     10.862
REMARK INTER + INTRA:          -9.832
REMARK INTER:                  -9.162
REMARK INTRA:                  -0.671
REMARK UNBOUND:                -0.557
REMARK  Name = /home/qwerty/github/datacon2025hack/step_04_hit_selection/docking/ligands/lig_87.pdb
REMARK  5 active torsions:
REMARK  status: ('A' for Active; 'I' for Inactive)
REMARK    1  A    between atoms: C1_1  and  C2_2
REMARK    2  A    between atoms: C6_8  and  C7_10
REMARK    3  A    between atoms: C11_14  and  C12_15
REMARK    4  A    between atoms: C12_15  and  N3_16
REMARK    5  A    between atoms: C19_24  and  C20_25
REMARK                            x       y       z     vdW  Elec       q    Type
REMARK                         _______ _______ _______ _____ _____    ______ ____
ROOT
ATOM      1  C1  UNL     1      20.905   4.394  32.321  0.00  0.00    +0.067 C 
ATOM      2  C2  UNL     1      21.142   4.171  30.867  0.00  0.00    +0.063 A 
ATOM      3  C3  UNL     1      20.860   5.085  29.854  0.00  0.00    +0.073 A 
ATOM      4  C4  UNL     1      21.309   4.436  28.730  0.00  0.00    +0.158 A 
ATOM      5  N1  UNL     1      21.253   4.863  27.447  0.00  0.00    -0.213 NA
ATOM      6  C5  UNL     1      21.732   4.055  26.455  0.00  0.00    +0.130 A 
ATOM      7  N2  UNL     1      21.703   4.485  25.083  0.00  0.00    -0.266 N 
ATOM      8  C6  UNL     1      21.042   5.679  24.628  0.00  0.00    +0.249 C 
ATOM      9  O1  UNL     1      20.196   6.252  25.369  0.00  0.00    -0.270 OA
ATOM     10  C18 UNL     1      22.285   2.795  26.780  0.00  0.00    +0.072 A 
ATOM     11  C19 UNL     1      22.333   2.389  28.128  0.00  0.00    +0.078 A 
ATOM     12  N4  UNL     1      21.828   3.247  29.057  0.00  0.00    -0.214 N 
ATOM     13  N5  UNL     1      21.736   3.062  30.363  0.00  0.00    -0.170 NA
ATOM     14  H5  UNL     1      22.160   3.871  24.370  0.00  0.00    +0.157 HD
ENDROOT
BRANCH   8  15
ATOM     15  C7  UNL     1      21.311   6.229  23.278  0.00  0.00    +0.037 A 
ATOM     16  C8  UNL     1      22.622   6.243  22.771  0.00  0.00    +0.013 A 
ATOM     17  C9  UNL     1      22.887   6.770  21.506  0.00  0.00    +0.001 A 
ATOM     18  C10 UNL     1      21.848   7.278  20.725  0.00  0.00    +0.005 A 
ATOM     19  C11 UNL     1      20.530   7.254  21.203  0.00  0.00    -0.033 A 
ATOM     20  C17 UNL     1      20.266   6.726  22.477  0.00  0.00    +0.018 A 
BRANCH  19  21
ATOM     21  C12 UNL     1      19.414   7.807  20.355  0.00  0.00    +0.119 C 
BRANCH  21  22
ATOM     22  N3  UNL     1      19.350   9.277  20.481  0.00  0.00    -0.294 NA
ATOM     23  C13 UNL     1      19.771   9.925  19.219  0.00  0.00    +0.113 C 
ATOM     24  C14 UNL     1      19.206  11.352  19.117  0.00  0.00    +0.175 C 
ATOM     25  O2  UNL     1      17.785  11.405  19.120  0.00  0.00    -0.377 OA
ATOM     26  C15 UNL     1      17.173  10.311  19.791  0.00  0.00    +0.175 C 
ATOM     27  C16 UNL     1      18.020   9.745  20.945  0.00  0.00    +0.113 C 
ENDBRANCH  21  22
ENDBRANCH  19  21
ENDBRANCH   8  15
BRANCH  11  28
ATOM     28  C20 UNL     1      22.922   1.084  28.510  0.00  0.00    +0.001 A 
ATOM     29  C21 UNL     1      22.160  -0.095  28.415  0.00  0.00    +0.010 A 
ATOM     30  C22 UNL     1      22.719  -1.328  28.764  0.00  0.00    +0.001 A 
ATOM     31  C23 UNL     1      24.043  -1.396  29.205  0.00  0.00    +0.000 A 
ATOM     32  C24 UNL     1      24.811  -0.232  29.298  0.00  0.00    +0.001 A 
ATOM     33  C25 UNL     1      24.255   1.002  28.952  0.00  0.00    +0.010 A 
ENDBRANCH  11  28
TORSDOF 4
ENDMDL
MODEL 9
REMARK VINA RESULT:    -7.257      7.236     11.728
REMARK INTER + INTRA:          -9.511
REMARK INTER:                  -8.808
REMARK INTRA:                  -0.703
REMARK UNBOUND:                -0.557
REMARK  Name = /home/qwerty/github/datacon2025hack/step_04_hit_selection/docking/ligands/lig_87.pdb
REMARK  5 active torsions:
REMARK  status: ('A' for Active; 'I' for Inactive)
REMARK    1  A    between atoms: C1_1  and  C2_2
REMARK    2  A    between atoms: C6_8  and  C7_10
REMARK    3  A    between atoms: C11_14  and  C12_15
REMARK    4  A    between atoms: C12_15  and  N3_16
REMARK    5  A    between atoms: C19_24  and  C20_25
REMARK                            x       y       z     vdW  Elec       q    Type
REMARK                         _______ _______ _______ _____ _____    ______ ____
ROOT
ATOM      1  C1  UNL     1      17.058   1.813  24.613  0.00  0.00    +0.067 C 
ATOM      2  C2  UNL     1      18.328   2.589  24.535  0.00  0.00    +0.063 A 
ATOM      3  C3  UNL     1      18.722   3.387  23.464  0.00  0.00    +0.073 A 
ATOM      4  C4  UNL     1      19.910   3.917  23.905  0.00  0.00    +0.158 A 
ATOM      5  N1  UNL     1      20.745   4.748  23.240  0.00  0.00    -0.213 NA
ATOM      6  C5  UNL     1      21.904   5.150  23.843  0.00  0.00    +0.130 A 
ATOM      7  N2  UNL     1      22.807   6.046  23.172  0.00  0.00    -0.266 N 
ATOM      8  C6  UNL     1      22.664   6.451  21.798  0.00  0.00    +0.249 C 
ATOM      9  O1  UNL     1      21.907   5.801  21.025  0.00  0.00    -0.270 OA
ATOM     10  C18 UNL     1      22.209   4.700  25.148  0.00  0.00    +0.072 A 
ATOM     11  C19 UNL     1      21.311   3.842  25.812  0.00  0.00    +0.078 A 
ATOM     12  N4  UNL     1      20.182   3.481  25.141  0.00  0.00    -0.214 N 
ATOM     13  N5  UNL     1      19.225   2.664  25.548  0.00  0.00    -0.170 NA
ATOM     14  H5  UNL     1      23.636   6.393  23.706  0.00  0.00    +0.157 HD
ENDROOT
BRANCH   8  15
ATOM     15  C7  UNL     1      23.427   7.604  21.263  0.00  0.00    +0.037 A 
ATOM     16  C8  UNL     1      24.810   7.492  21.042  0.00  0.00    +0.013 A 
ATOM     17  C9  UNL     1      25.539   8.577  20.550  0.00  0.00    +0.001 A 
ATOM     18  C10 UNL     1      24.897   9.782  20.262  0.00  0.00    +0.005 A 
ATOM     19  C11 UNL     1      23.514   9.907  20.455  0.00  0.00    -0.033 A 
ATOM     20  C17 UNL     1      22.782   8.816  20.953  0.00  0.00    +0.018 A 
BRANCH  19  21
ATOM     21  C12 UNL     1      22.828  11.213  20.144  0.00  0.00    +0.119 C 
BRANCH  21  22
ATOM     22  N3  UNL     1      22.533  11.950  21.390  0.00  0.00    -0.294 NA
ATOM     23  C13 UNL     1      23.550  12.997  21.626  0.00  0.00    +0.113 C 
ATOM     24  C14 UNL     1      23.002  14.102  22.545  0.00  0.00    +0.175 C 
ATOM     25  O2  UNL     1      21.871  14.779  22.012  0.00  0.00    -0.377 OA
ATOM     26  C15 UNL     1      21.109  13.994  21.104  0.00  0.00    +0.175 C 
ATOM     27  C16 UNL     1      21.148  12.486  21.412  0.00  0.00    +0.113 C 
ENDBRANCH  21  22
ENDBRANCH  19  21
ENDBRANCH   8  15
BRANCH  11  28
ATOM     28  C20 UNL     1      21.586   3.365  27.187  0.00  0.00    +0.001 A 
ATOM     29  C21 UNL     1      21.144   4.106  28.298  0.00  0.00    +0.010 A 
ATOM     30  C22 UNL     1      21.393   3.649  29.596  0.00  0.00    +0.001 A 
ATOM     31  C23 UNL     1      22.080   2.449  29.797  0.00  0.00    +0.000 A 
ATOM     32  C24 UNL     1      22.519   1.703  28.700  0.00  0.00    +0.001 A 
ATOM     33  C25 UNL     1      22.273   2.156  27.401  0.00  0.00    +0.010 A 
ENDBRANCH  11  28
TORSDOF 4
ENDMDL
