MODEL 1
REMARK VINA RESULT:    -7.296      0.000      0.000
REMARK INTER + INTRA:          -8.448
REMARK INTER:                  -8.149
REMARK INTRA:                  -0.299
REMARK UNBOUND:                -0.299
REMARK  Name = /home/qwerty/github/datacon2025hack/step_04_hit_selection/docking/ligands/lig_719.pdb
REMARK  3 active torsions:
REMARK  status: ('A' for Active; 'I' for Inactive)
REMARK    1  A    between atoms: C1_1  and  C2_2
REMARK    2  A    between atoms: C7_8  and  N2_9
REMARK    3  A    between atoms: C8_10  and  C9_12
REMARK                            x       y       z     vdW  Elec       q    Type
REMARK                         _______ _______ _______ _____ _____    ______ ____
ROOT
ATOM      1  C1  UNL     1      16.873  -1.651  22.620  0.00  0.00    +0.044 C 
ATOM      2  C2  UNL     1      15.631  -0.874  22.944  0.00  0.00    -0.037 A 
ATOM      3  C3  UNL     1      15.158   0.149  22.094  0.00  0.00    +0.047 A 
ATOM      4  C4  UNL     1      13.971   0.860  22.423  0.00  0.00    +0.124 A 
ATOM      5  N1  UNL     1      13.471   1.910  21.570  0.00  0.00    -0.313 N 
ATOM      6  C5  UNL     1      14.157   2.413  20.390  0.00  0.00    +0.108 C 
ATOM      7  C6  UNL     1      13.347   3.618  19.928  0.00  0.00    +0.043 C 
ATOM      8  C7  UNL     1      11.973   3.464  20.585  0.00  0.00    +0.092 C 
ATOM      9  C14 UNL     1      12.218   2.601  21.824  0.00  0.00    +0.128 C 
ATOM     10  N7  UNL     1      13.285   0.542  23.565  0.00  0.00    -0.215 NA
ATOM     11  C15 UNL     1      13.747  -0.445  24.371  0.00  0.00    +0.140 A 
ATOM     12  N8  UNL     1      13.179  -0.862  25.511  0.00  0.00    -0.346 N 
ATOM     13  C16 UNL     1      13.975  -1.857  25.966  0.00  0.00    +0.085 A 
ATOM     14  C17 UNL     1      15.050  -2.064  25.105  0.00  0.00    +0.029 A 
ATOM     15  C18 UNL     1      14.883  -1.145  24.089  0.00  0.00    +0.022 A 
ATOM     16  H16 UNL     1      12.306  -0.499  25.955  0.00  0.00    +0.167 HD
ENDROOT
BRANCH   8  17
ATOM     17  N2  UNL     1      11.386   4.767  20.917  0.00  0.00    -0.307 N 
ATOM     18  C8  UNL     1       9.964   4.977  20.910  0.00  0.00    +0.246 C 
ATOM     19  O1  UNL     1       9.190   3.988  20.794  0.00  0.00    -0.270 OA
ATOM     20  H10 UNL     1      12.007   5.540  21.248  0.00  0.00    +0.149 HD
BRANCH  18  21
ATOM     21  C9  UNL     1       9.389   6.336  21.052  0.00  0.00    +0.057 A 
ATOM     22  C10 UNL     1       8.108   6.509  21.655  0.00  0.00    +0.126 A 
ATOM     23  N3  UNL     1       7.555   7.754  21.787  0.00  0.00    -0.234 NA
ATOM     24  C11 UNL     1       8.254   8.818  21.328  0.00  0.00    +0.176 A 
ATOM     25  N4  UNL     1       7.903  10.106  21.342  0.00  0.00    -0.240 N 
ATOM     26  N5  UNL     1       8.903  10.766  20.763  0.00  0.00    -0.066 NA
ATOM     27  N6  UNL     1       9.877   9.936  20.382  0.00  0.00    -0.128 NA
ATOM     28  C12 UNL     1       9.464   8.708  20.741  0.00  0.00    +0.132 A 
ATOM     29  C13 UNL     1      10.081   7.477  20.574  0.00  0.00    +0.048 A 
ATOM     30  H12 UNL     1       7.028  10.534  21.718  0.00  0.00    +0.192 HD
ENDBRANCH  18  21
ENDBRANCH   8  17
TORSDOF 2
ENDMDL
MODEL 2
REMARK VINA RESULT:    -7.130     16.491     17.098
REMARK INTER + INTRA:          -8.262
REMARK INTER:                  -8.001
REMARK INTRA:                  -0.261
REMARK UNBOUND:                -0.299
REMARK  Name = /home/qwerty/github/datacon2025hack/step_04_hit_selection/docking/ligands/lig_719.pdb
REMARK  3 active torsions:
REMARK  status: ('A' for Active; 'I' for Inactive)
REMARK    1  A    between atoms: C1_1  and  C2_2
REMARK    2  A    between atoms: C7_8  and  N2_9
REMARK    3  A    between atoms: C8_10  and  C9_12
REMARK                            x       y       z     vdW  Elec       q    Type
REMARK                         _______ _______ _______ _____ _____    ______ ____
ROOT
ATOM      1  C1  UNL     1      23.665   6.290  35.656  0.00  0.00    +0.044 C 
ATOM      2  C2  UNL     1      22.814   7.455  35.243  0.00  0.00    -0.037 A 
ATOM      3  C3  UNL     1      21.674   7.836  35.983  0.00  0.00    +0.047 A 
ATOM      4  C4  UNL     1      20.894   8.952  35.573  0.00  0.00    +0.124 A 
ATOM      5  N1  UNL     1      19.726   9.357  36.313  0.00  0.00    -0.313 N 
ATOM      6  C5  UNL     1      19.174   8.633  37.447  0.00  0.00    +0.108 C 
ATOM      7  C6  UNL     1      17.861   9.330  37.781  0.00  0.00    +0.043 C 
ATOM      8  C7  UNL     1      17.953  10.710  37.125  0.00  0.00    +0.092 C 
ATOM      9  C14 UNL     1      18.952  10.541  35.978  0.00  0.00    +0.128 C 
ATOM     10  N7  UNL     1      21.259   9.660  34.459  0.00  0.00    -0.215 NA
ATOM     11  C15 UNL     1      22.358   9.287  33.757  0.00  0.00    +0.140 A 
ATOM     12  N8  UNL     1      22.831   9.886  32.656  0.00  0.00    -0.346 N 
ATOM     13  C16 UNL     1      23.933   9.183  32.309  0.00  0.00    +0.085 A 
ATOM     14  C17 UNL     1      24.152   8.134  33.200  0.00  0.00    +0.029 A 
ATOM     15  C18 UNL     1      23.127   8.221  34.121  0.00  0.00    +0.022 A 
ATOM     16  H16 UNL     1      22.435  10.721  32.169  0.00  0.00    +0.167 HD
ENDROOT
BRANCH   8  17
ATOM     17  N2  UNL     1      16.641  11.175  36.660  0.00  0.00    -0.307 N 
ATOM     18  C8  UNL     1      16.353  12.572  36.492  0.00  0.00    +0.246 C 
ATOM     19  O1  UNL     1      17.290  13.414  36.566  0.00  0.00    -0.270 OA
ATOM     20  H10 UNL     1      15.924  10.474  36.366  0.00  0.00    +0.149 HD
BRANCH  18  21
ATOM     21  C9  UNL     1      14.975  13.043  36.214  0.00  0.00    +0.057 A 
ATOM     22  C10 UNL     1      14.767  14.236  35.459  0.00  0.00    +0.126 A 
ATOM     23  N3  UNL     1      13.502  14.693  35.201  0.00  0.00    -0.234 NA
ATOM     24  C11 UNL     1      12.454  13.985  35.683  0.00  0.00    +0.176 A 
ATOM     25  N4  UNL     1      11.151  14.252  35.562  0.00  0.00    -0.240 N 
ATOM     26  N5  UNL     1      10.516  13.284  36.218  0.00  0.00    -0.066 NA
ATOM     27  N6  UNL     1      11.374  12.412  36.751  0.00  0.00    -0.128 NA
ATOM     28  C12 UNL     1      12.597  12.857  36.410  0.00  0.00    +0.132 A 
ATOM     29  C13 UNL     1      13.849  12.340  36.710  0.00  0.00    +0.048 A 
ATOM     30  H12 UNL     1      10.699  15.051  35.066  0.00  0.00    +0.192 HD
ENDBRANCH  18  21
ENDBRANCH   8  17
TORSDOF 2
ENDMDL
MODEL 3
REMARK VINA RESULT:    -7.066      2.353     10.159
REMARK INTER + INTRA:          -8.191
REMARK INTER:                  -7.953
REMARK INTRA:                  -0.238
REMARK UNBOUND:                -0.299
REMARK  Name = /home/qwerty/github/datacon2025hack/step_04_hit_selection/docking/ligands/lig_719.pdb
REMARK  3 active torsions:
REMARK  status: ('A' for Active; 'I' for Inactive)
REMARK    1  A    between atoms: C1_1  and  C2_2
REMARK    2  A    between atoms: C7_8  and  N2_9
REMARK    3  A    between atoms: C8_10  and  C9_12
REMARK                            x       y       z     vdW  Elec       q    Type
REMARK                         _______ _______ _______ _____ _____    ______ ____
ROOT
ATOM      1  C1  UNL     1       7.534   8.065  21.783  0.00  0.00    +0.044 C 
ATOM      2  C2  UNL     1       8.867   7.419  21.541  0.00  0.00    -0.037 A 
ATOM      3  C3  UNL     1       9.082   6.048  21.800  0.00  0.00    +0.047 A 
ATOM      4  C4  UNL     1      10.353   5.463  21.550  0.00  0.00    +0.124 A 
ATOM      5  N1  UNL     1      10.594   4.066  21.809  0.00  0.00    -0.313 N 
ATOM      6  C5  UNL     1       9.639   3.164  22.435  0.00  0.00    +0.108 C 
ATOM      7  C6  UNL     1      10.392   1.859  22.659  0.00  0.00    +0.043 C 
ATOM      8  C7  UNL     1      11.601   1.919  21.723  0.00  0.00    +0.092 C 
ATOM      9  C14 UNL     1      11.851   3.410  21.487  0.00  0.00    +0.128 C 
ATOM     10  N7  UNL     1      11.367   6.235  21.049  0.00  0.00    -0.215 NA
ATOM     11  C15 UNL     1      11.149   7.550  20.801  0.00  0.00    +0.140 A 
ATOM     12  N8  UNL     1      12.044   8.419  20.310  0.00  0.00    -0.346 N 
ATOM     13  C16 UNL     1      11.389   9.599  20.224  0.00  0.00    +0.085 A 
ATOM     14  C17 UNL     1      10.074   9.469  20.666  0.00  0.00    +0.029 A 
ATOM     15  C18 UNL     1       9.944   8.145  21.031  0.00  0.00    +0.022 A 
ATOM     16  H16 UNL     1      13.036   8.226  20.047  0.00  0.00    +0.167 HD
ENDROOT
BRANCH   8  17
ATOM     17  N2  UNL     1      12.767   1.241  22.303  0.00  0.00    -0.307 N 
ATOM     18  C8  UNL     1      13.850   0.771  21.485  0.00  0.00    +0.246 C 
ATOM     19  O1  UNL     1      13.899   1.101  20.268  0.00  0.00    -0.270 OA
ATOM     20  H10 UNL     1      12.853   1.170  23.342  0.00  0.00    +0.149 HD
BRANCH  18  21
ATOM     21  C9  UNL     1      14.923  -0.081  22.049  0.00  0.00    +0.057 A 
ATOM     22  C10 UNL     1      16.170  -0.206  21.366  0.00  0.00    +0.126 A 
ATOM     23  N3  UNL     1      17.170  -0.996  21.866  0.00  0.00    -0.234 NA
ATOM     24  C11 UNL     1      16.945  -1.658  23.024  0.00  0.00    +0.176 A 
ATOM     25  N4  UNL     1      17.767  -2.484  23.676  0.00  0.00    -0.240 N 
ATOM     26  N5  UNL     1      17.095  -2.903  24.746  0.00  0.00    -0.066 NA
ATOM     27  N6  UNL     1      15.872  -2.369  24.792  0.00  0.00    -0.128 NA
ATOM     28  C12 UNL     1      15.782  -1.583  23.704  0.00  0.00    +0.132 A 
ATOM     29  C13 UNL     1      14.727  -0.803  23.253  0.00  0.00    +0.048 A 
ATOM     30  H12 UNL     1      18.739  -2.765  23.420  0.00  0.00    +0.192 HD
ENDBRANCH  18  21
ENDBRANCH   8  17
TORSDOF 2
ENDMDL
MODEL 4
REMARK VINA RESULT:    -6.870     13.731     16.637
REMARK INTER + INTRA:          -7.972
REMARK INTER:                  -7.693
REMARK INTRA:                  -0.279
REMARK UNBOUND:                -0.299
REMARK  Name = /home/qwerty/github/datacon2025hack/step_04_hit_selection/docking/ligands/lig_719.pdb
REMARK  3 active torsions:
REMARK  status: ('A' for Active; 'I' for Inactive)
REMARK    1  A    between atoms: C1_1  and  C2_2
REMARK    2  A    between atoms: C7_8  and  N2_9
REMARK    3  A    between atoms: C8_10  and  C9_12
REMARK                            x       y       z     vdW  Elec       q    Type
REMARK                         _______ _______ _______ _____ _____    ______ ____
ROOT
ATOM      1  C1  UNL     1       8.359  13.848  27.770  0.00  0.00    +0.044 C 
ATOM      2  C2  UNL     1       8.967  12.917  28.778  0.00  0.00    -0.037 A 
ATOM      3  C3  UNL     1       9.807  13.391  29.809  0.00  0.00    +0.047 A 
ATOM      4  C4  UNL     1      10.359  12.485  30.756  0.00  0.00    +0.124 A 
ATOM      5  N1  UNL     1      11.219  12.947  31.816  0.00  0.00    -0.313 N 
ATOM      6  C5  UNL     1      11.690  14.316  31.960  0.00  0.00    +0.108 C 
ATOM      7  C6  UNL     1      12.698  14.285  33.102  0.00  0.00    +0.043 C 
ATOM      8  C7  UNL     1      12.408  12.992  33.869  0.00  0.00    +0.092 C 
ATOM      9  C14 UNL     1      11.733  12.068  32.853  0.00  0.00    +0.128 C 
ATOM     10  N7  UNL     1      10.066  11.150  30.666  0.00  0.00    -0.215 NA
ATOM     11  C15 UNL     1       9.256  10.707  29.674  0.00  0.00    +0.140 A 
ATOM     12  N8  UNL     1       8.883   9.435  29.468  0.00  0.00    -0.346 N 
ATOM     13  C16 UNL     1       8.079   9.467  28.382  0.00  0.00    +0.085 A 
ATOM     14  C17 UNL     1       7.947  10.768  27.902  0.00  0.00    +0.029 A 
ATOM     15  C18 UNL     1       8.711  11.546  28.747  0.00  0.00    +0.022 A 
ATOM     16  H16 UNL     1       9.155   8.597  30.029  0.00  0.00    +0.167 HD
ENDROOT
BRANCH   8  17
ATOM     17  N2  UNL     1      13.634  12.410  34.427  0.00  0.00    -0.307 N 
ATOM     18  C8  UNL     1      14.065  12.703  35.767  0.00  0.00    +0.246 C 
ATOM     19  O1  UNL     1      13.292  13.324  36.547  0.00  0.00    -0.270 OA
ATOM     20  H10 UNL     1      14.164  11.702  33.872  0.00  0.00    +0.149 HD
BRANCH  18  21
ATOM     21  C9  UNL     1      15.396  12.272  36.255  0.00  0.00    +0.057 A 
ATOM     22  C10 UNL     1      16.537  13.103  36.044  0.00  0.00    +0.126 A 
ATOM     23  N3  UNL     1      17.777  12.719  36.478  0.00  0.00    -0.234 NA
ATOM     24  C11 UNL     1      17.894  11.529  37.110  0.00  0.00    +0.176 A 
ATOM     25  N4  UNL     1      18.998  10.958  37.600  0.00  0.00    -0.240 N 
ATOM     26  N5  UNL     1      18.613   9.789  38.107  0.00  0.00    -0.066 NA
ATOM     27  N6  UNL     1      17.301   9.601  37.954  0.00  0.00    -0.128 NA
ATOM     28  C12 UNL     1      16.851  10.702  37.326  0.00  0.00    +0.132 A 
ATOM     29  C13 UNL     1      15.567  11.028  36.911  0.00  0.00    +0.048 A 
ATOM     30  H12 UNL     1      19.974  11.327  37.594  0.00  0.00    +0.192 HD
ENDBRANCH  18  21
ENDBRANCH   8  17
TORSDOF 2
ENDMDL
MODEL 5
REMARK VINA RESULT:    -6.837     16.545     19.025
REMARK INTER + INTRA:          -7.935
REMARK INTER:                  -8.150
REMARK INTRA:                   0.215
REMARK UNBOUND:                -0.299
REMARK  Name = /home/qwerty/github/datacon2025hack/step_04_hit_selection/docking/ligands/lig_719.pdb
REMARK  3 active torsions:
REMARK  status: ('A' for Active; 'I' for Inactive)
REMARK    1  A    between atoms: C1_1  and  C2_2
REMARK    2  A    between atoms: C7_8  and  N2_9
REMARK    3  A    between atoms: C8_10  and  C9_12
REMARK                            x       y       z     vdW  Elec       q    Type
REMARK                         _______ _______ _______ _____ _____    ______ ____
ROOT
ATOM      1  C1  UNL     1      12.024  14.181  33.973  0.00  0.00    +0.044 C 
ATOM      2  C2  UNL     1      12.913  13.397  34.893  0.00  0.00    -0.037 A 
ATOM      3  C3  UNL     1      14.320  13.483  34.811  0.00  0.00    +0.047 A 
ATOM      4  C4  UNL     1      15.136  12.737  35.705  0.00  0.00    +0.124 A 
ATOM      5  N1  UNL     1      16.574  12.810  35.638  0.00  0.00    -0.313 N 
ATOM      6  C5  UNL     1      17.319  13.534  34.620  0.00  0.00    +0.108 C 
ATOM      7  C6  UNL     1      18.782  13.179  34.850  0.00  0.00    +0.043 C 
ATOM      8  C7  UNL     1      18.852  12.642  36.282  0.00  0.00    +0.092 C 
ATOM      9  C14 UNL     1      17.442  12.131  36.586  0.00  0.00    +0.128 C 
ATOM     10  N7  UNL     1      14.549  11.939  36.650  0.00  0.00    -0.215 NA
ATOM     11  C15 UNL     1      13.198  11.866  36.722  0.00  0.00    +0.140 A 
ATOM     12  N8  UNL     1      12.492  11.132  37.594  0.00  0.00    -0.346 N 
ATOM     13  C16 UNL     1      11.194  11.373  37.300  0.00  0.00    +0.085 A 
ATOM     14  C17 UNL     1      11.085  12.264  36.234  0.00  0.00    +0.029 A 
ATOM     15  C18 UNL     1      12.385  12.566  35.880  0.00  0.00    +0.022 A 
ATOM     16  H16 UNL     1      12.865  10.508  38.344  0.00  0.00    +0.167 HD
ENDROOT
BRANCH   8  17
ATOM     17  N2  UNL     1      19.869  11.593  36.416  0.00  0.00    -0.307 N 
ATOM     18  C8  UNL     1      19.785  10.363  35.678  0.00  0.00    +0.246 C 
ATOM     19  O1  UNL     1      18.925  10.244  34.761  0.00  0.00    -0.270 OA
ATOM     20  H10 UNL     1      20.718  11.774  36.997  0.00  0.00    +0.149 HD
BRANCH  18  21
ATOM     21  C9  UNL     1      20.702   9.234  35.962  0.00  0.00    +0.057 A 
ATOM     22  C10 UNL     1      20.598   8.523  37.195  0.00  0.00    +0.126 A 
ATOM     23  N3  UNL     1      21.442   7.483  37.481  0.00  0.00    -0.234 NA
ATOM     24  C11 UNL     1      22.380   7.150  36.565  0.00  0.00    +0.176 A 
ATOM     25  N4  UNL     1      23.305   6.189  36.642  0.00  0.00    -0.240 N 
ATOM     26  N5  UNL     1      24.005   6.261  35.513  0.00  0.00    -0.066 NA
ATOM     27  N6  UNL     1      23.554   7.238  34.722  0.00  0.00    -0.128 NA
ATOM     28  C12 UNL     1      22.527   7.795  35.390  0.00  0.00    +0.132 A 
ATOM     29  C13 UNL     1      21.708   8.858  35.037  0.00  0.00    +0.048 A 
ATOM     30  H12 UNL     1      23.469   5.511  37.418  0.00  0.00    +0.192 HD
ENDBRANCH  18  21
ENDBRANCH   8  17
TORSDOF 2
ENDMDL
MODEL 6
REMARK VINA RESULT:    -6.701      7.087     10.410
REMARK INTER + INTRA:          -7.783
REMARK INTER:                  -7.554
REMARK INTRA:                  -0.229
REMARK UNBOUND:                -0.299
REMARK  Name = /home/qwerty/github/datacon2025hack/step_04_hit_selection/docking/ligands/lig_719.pdb
REMARK  3 active torsions:
REMARK  status: ('A' for Active; 'I' for Inactive)
REMARK    1  A    between atoms: C1_1  and  C2_2
REMARK    2  A    between atoms: C7_8  and  N2_9
REMARK    3  A    between atoms: C8_10  and  C9_12
REMARK                            x       y       z     vdW  Elec       q    Type
REMARK                         _______ _______ _______ _____ _____    ______ ____
ROOT
ATOM      1  C1  UNL     1      22.545   3.469  32.294  0.00  0.00    +0.044 C 
ATOM      2  C2  UNL     1      21.490   2.747  31.508  0.00  0.00    -0.037 A 
ATOM      3  C3  UNL     1      21.565   2.631  30.103  0.00  0.00    +0.047 A 
ATOM      4  C4  UNL     1      20.556   1.931  29.388  0.00  0.00    +0.124 A 
ATOM      5  N1  UNL     1      20.612   1.802  27.953  0.00  0.00    -0.313 N 
ATOM      6  C5  UNL     1      21.604   2.443  27.104  0.00  0.00    +0.108 C 
ATOM      7  C6  UNL     1      21.161   2.166  25.673  0.00  0.00    +0.043 C 
ATOM      8  C7  UNL     1      20.197   0.981  25.766  0.00  0.00    +0.092 C 
ATOM      9  C14 UNL     1      19.649   1.023  27.194  0.00  0.00    +0.128 C 
ATOM     10  N7  UNL     1      19.512   1.363  30.070  0.00  0.00    -0.215 NA
ATOM     11  C15 UNL     1      19.452   1.478  31.419  0.00  0.00    +0.140 A 
ATOM     12  N8  UNL     1      18.496   0.972  32.212  0.00  0.00    -0.346 N 
ATOM     13  C16 UNL     1      18.847   1.326  33.469  0.00  0.00    +0.085 A 
ATOM     14  C17 UNL     1      20.032   2.059  33.464  0.00  0.00    +0.029 A 
ATOM     15  C18 UNL     1      20.401   2.144  32.137  0.00  0.00    +0.022 A 
ATOM     16  H16 UNL     1      17.659   0.421  31.921  0.00  0.00    +0.167 HD
ENDROOT
BRANCH   8  17
ATOM     17  N2  UNL     1      19.137   1.068  24.756  0.00  0.00    -0.307 N 
ATOM     18  C8  UNL     1      18.383  -0.087  24.352  0.00  0.00    +0.246 C 
ATOM     19  O1  UNL     1      18.501  -1.164  24.998  0.00  0.00    -0.270 OA
ATOM     20  H10 UNL     1      18.864   2.004  24.378  0.00  0.00    +0.149 HD
BRANCH  18  21
ATOM     21  C9  UNL     1      17.455  -0.032  23.198  0.00  0.00    +0.057 A 
ATOM     22  C10 UNL     1      17.102  -1.229  22.508  0.00  0.00    +0.126 A 
ATOM     23  N3  UNL     1      16.254  -1.198  21.433  0.00  0.00    -0.234 NA
ATOM     24  C11 UNL     1      15.761  -0.001  21.040  0.00  0.00    +0.176 A 
ATOM     25  N4  UNL     1      14.938   0.260  20.022  0.00  0.00    -0.240 N 
ATOM     26  N5  UNL     1      14.757   1.578  20.024  0.00  0.00    -0.066 NA
ATOM     27  N6  UNL     1      15.440   2.162  21.011  0.00  0.00    -0.128 NA
ATOM     28  C12 UNL     1      16.071   1.161  21.651  0.00  0.00    +0.132 A 
ATOM     29  C13 UNL     1      16.925   1.202  22.744  0.00  0.00    +0.048 A 
ATOM     30  H12 UNL     1      14.514  -0.412  19.345  0.00  0.00    +0.192 HD
ENDBRANCH  18  21
ENDBRANCH   8  17
TORSDOF 2
ENDMDL
MODEL 7
REMARK VINA RESULT:    -6.661     13.976     16.729
REMARK INTER + INTRA:          -7.739
REMARK INTER:                  -7.420
REMARK INTRA:                  -0.319
REMARK UNBOUND:                -0.299
REMARK  Name = /home/qwerty/github/datacon2025hack/step_04_hit_selection/docking/ligands/lig_719.pdb
REMARK  3 active torsions:
REMARK  status: ('A' for Active; 'I' for Inactive)
REMARK    1  A    between atoms: C1_1  and  C2_2
REMARK    2  A    between atoms: C7_8  and  N2_9
REMARK    3  A    between atoms: C8_10  and  C9_12
REMARK                            x       y       z     vdW  Elec       q    Type
REMARK                         _______ _______ _______ _____ _____    ______ ____
ROOT
ATOM      1  C1  UNL     1       9.508  13.451  28.532  0.00  0.00    +0.044 C 
ATOM      2  C2  UNL     1       9.973  12.508  29.602  0.00  0.00    -0.037 A 
ATOM      3  C3  UNL     1      11.017  12.852  30.487  0.00  0.00    +0.047 A 
ATOM      4  C4  UNL     1      11.428  11.942  31.499  0.00  0.00    +0.124 A 
ATOM      5  N1  UNL     1      12.493  12.273  32.412  0.00  0.00    -0.313 N 
ATOM      6  C5  UNL     1      13.307  13.476  32.331  0.00  0.00    +0.108 C 
ATOM      7  C6  UNL     1      14.399  13.304  33.379  0.00  0.00    +0.043 C 
ATOM      8  C7  UNL     1      13.883  12.225  34.334  0.00  0.00    +0.092 C 
ATOM      9  C14 UNL     1      12.885  11.407  33.512  0.00  0.00    +0.128 C 
ATOM     10  N7  UNL     1      10.801  10.730  31.614  0.00  0.00    -0.215 NA
ATOM     11  C15 UNL     1       9.797  10.411  30.761  0.00  0.00    +0.140 A 
ATOM     12  N8  UNL     1       9.095   9.268  30.760  0.00  0.00    -0.346 N 
ATOM     13  C16 UNL     1       8.206   9.393  29.749  0.00  0.00    +0.085 A 
ATOM     14  C17 UNL     1       8.351  10.623  29.111  0.00  0.00    +0.029 A 
ATOM     15  C18 UNL     1       9.379  11.259  29.778  0.00  0.00    +0.022 A 
ATOM     16  H16 UNL     1       9.210   8.454  31.404  0.00  0.00    +0.167 HD
ENDROOT
BRANCH   8  17
ATOM     17  N2  UNL     1      14.979  11.405  34.863  0.00  0.00    -0.307 N 
ATOM     18  C8  UNL     1      15.557  11.661  36.153  0.00  0.00    +0.246 C 
ATOM     19  O1  UNL     1      15.004  12.486  36.931  0.00  0.00    -0.270 OA
ATOM     20  H10 UNL     1      15.293  10.563  34.329  0.00  0.00    +0.149 HD
BRANCH  18  21
ATOM     21  C9  UNL     1      16.785  10.959  36.595  0.00  0.00    +0.057 A 
ATOM     22  C10 UNL     1      16.834  10.348  37.884  0.00  0.00    +0.126 A 
ATOM     23  N3  UNL     1      17.963   9.704  38.315  0.00  0.00    -0.234 NA
ATOM     24  C11 UNL     1      19.033   9.663  37.488  0.00  0.00    +0.176 A 
ATOM     25  N4  UNL     1      20.227   9.106  37.708  0.00  0.00    -0.240 N 
ATOM     26  N5  UNL     1      20.950   9.343  36.616  0.00  0.00    -0.066 NA
ATOM     27  N6  UNL     1      20.252  10.034  35.711  0.00  0.00    -0.128 NA
ATOM     28  C12 UNL     1      19.043  10.233  36.265  0.00  0.00    +0.132 A 
ATOM     29  C13 UNL     1      17.934  10.903  35.767  0.00  0.00    +0.048 A 
ATOM     30  H12 UNL     1      20.553   8.590  38.554  0.00  0.00    +0.192 HD
ENDBRANCH  18  21
ENDBRANCH   8  17
TORSDOF 2
ENDMDL
MODEL 8
REMARK VINA RESULT:    -6.623      5.678      8.185
REMARK INTER + INTRA:          -7.696
REMARK INTER:                  -7.417
REMARK INTRA:                  -0.279
REMARK UNBOUND:                -0.299
REMARK  Name = /home/qwerty/github/datacon2025hack/step_04_hit_selection/docking/ligands/lig_719.pdb
REMARK  3 active torsions:
REMARK  status: ('A' for Active; 'I' for Inactive)
REMARK    1  A    between atoms: C1_1  and  C2_2
REMARK    2  A    between atoms: C7_8  and  N2_9
REMARK    3  A    between atoms: C8_10  and  C9_12
REMARK                            x       y       z     vdW  Elec       q    Type
REMARK                         _______ _______ _______ _____ _____    ______ ____
ROOT
ATOM      1  C1  UNL     1      23.230   1.235  29.280  0.00  0.00    +0.044 C 
ATOM      2  C2  UNL     1      21.743   1.187  29.081  0.00  0.00    -0.037 A 
ATOM      3  C3  UNL     1      21.175   0.978  27.806  0.00  0.00    +0.047 A 
ATOM      4  C4  UNL     1      19.762   0.926  27.651  0.00  0.00    +0.124 A 
ATOM      5  N1  UNL     1      19.162   0.715  26.358  0.00  0.00    -0.313 N 
ATOM      6  C5  UNL     1      19.898   0.650  25.105  0.00  0.00    +0.108 C 
ATOM      7  C6  UNL     1      18.841   0.597  24.010  0.00  0.00    +0.043 C 
ATOM      8  C7  UNL     1      17.551   0.158  24.707  0.00  0.00    +0.092 C 
ATOM      9  C14 UNL     1      17.728   0.570  26.170  0.00  0.00    +0.128 C 
ATOM     10  N7  UNL     1      18.956   1.072  28.748  0.00  0.00    -0.215 NA
ATOM     11  C15 UNL     1      19.512   1.268  29.968  0.00  0.00    +0.140 A 
ATOM     12  N8  UNL     1      18.848   1.422  31.123  0.00  0.00    -0.346 N 
ATOM     13  C16 UNL     1      19.802   1.582  32.068  0.00  0.00    +0.085 A 
ATOM     14  C17 UNL     1      21.074   1.528  31.502  0.00  0.00    +0.029 A 
ATOM     15  C18 UNL     1      20.862   1.326  30.153  0.00  0.00    +0.022 A 
ATOM     16  H16 UNL     1      17.813   1.418  31.264  0.00  0.00    +0.167 HD
ENDROOT
BRANCH   8  17
ATOM     17  N2  UNL     1      16.369   0.771  24.091  0.00  0.00    -0.307 N 
ATOM     18  C8  UNL     1      15.678   0.146  22.997  0.00  0.00    +0.246 C 
ATOM     19  O1  UNL     1      15.973  -1.037  22.670  0.00  0.00    -0.270 OA
ATOM     20  H10 UNL     1      15.968   1.641  24.508  0.00  0.00    +0.149 HD
BRANCH  18  21
ATOM     21  C9  UNL     1      14.612   0.859  22.256  0.00  0.00    +0.057 A 
ATOM     22  C10 UNL     1      14.882   1.405  20.965  0.00  0.00    +0.126 A 
ATOM     23  N3  UNL     1      13.913   2.076  20.269  0.00  0.00    -0.234 NA
ATOM     24  C11 UNL     1      12.693   2.211  20.836  0.00  0.00    +0.176 A 
ATOM     25  N4  UNL     1      11.617   2.832  20.346  0.00  0.00    -0.240 N 
ATOM     26  N5  UNL     1      10.670   2.716  21.274  0.00  0.00    -0.066 NA
ATOM     27  N6  UNL     1      11.112   2.041  22.338  0.00  0.00    -0.128 NA
ATOM     28  C12 UNL     1      12.388   1.723  22.057  0.00  0.00    +0.132 A 
ATOM     29  C13 UNL     1      13.323   1.035  22.818  0.00  0.00    +0.048 A 
ATOM     30  H12 UNL     1      11.515   3.321  19.429  0.00  0.00    +0.192 HD
ENDBRANCH  18  21
ENDBRANCH   8  17
TORSDOF 2
ENDMDL
MODEL 9
REMARK VINA RESULT:    -6.465     10.746     13.623
REMARK INTER + INTRA:          -7.519
REMARK INTER:                  -7.209
REMARK INTRA:                  -0.311
REMARK UNBOUND:                -0.299
REMARK  Name = /home/qwerty/github/datacon2025hack/step_04_hit_selection/docking/ligands/lig_719.pdb
REMARK  3 active torsions:
REMARK  status: ('A' for Active; 'I' for Inactive)
REMARK    1  A    between atoms: C1_1  and  C2_2
REMARK    2  A    between atoms: C7_8  and  N2_9
REMARK    3  A    between atoms: C8_10  and  C9_12
REMARK                            x       y       z     vdW  Elec       q    Type
REMARK                         _______ _______ _______ _____ _____    ______ ____
ROOT
ATOM      1  C1  UNL     1      11.309   9.755  22.941  0.00  0.00    +0.044 C 
ATOM      2  C2  UNL     1      10.611  10.070  24.232  0.00  0.00    -0.037 A 
ATOM      3  C3  UNL     1      11.322  10.523  25.364  0.00  0.00    +0.047 A 
ATOM      4  C4  UNL     1      10.631  10.826  26.569  0.00  0.00    +0.124 A 
ATOM      5  N1  UNL     1      11.338  11.288  27.737  0.00  0.00    -0.313 N 
ATOM      6  C5  UNL     1      12.785  11.384  27.844  0.00  0.00    +0.108 C 
ATOM      7  C6  UNL     1      13.068  11.744  29.297  0.00  0.00    +0.043 C 
ATOM      8  C7  UNL     1      11.751  12.301  29.843  0.00  0.00    +0.092 C 
ATOM      9  C14 UNL     1      10.662  11.689  28.960  0.00  0.00    +0.128 C 
ATOM     10  N7  UNL     1       9.270  10.681  26.624  0.00  0.00    -0.215 NA
ATOM     11  C15 UNL     1       8.598  10.249  25.530  0.00  0.00    +0.140 A 
ATOM     12  N8  UNL     1       7.272  10.066  25.440  0.00  0.00    -0.346 N 
ATOM     13  C16 UNL     1       7.053   9.637  24.176  0.00  0.00    +0.085 A 
ATOM     14  C17 UNL     1       8.250   9.550  23.468  0.00  0.00    +0.029 A 
ATOM     15  C18 UNL     1       9.228   9.947  24.359  0.00  0.00    +0.022 A 
ATOM     16  H16 UNL     1       6.559  10.222  26.186  0.00  0.00    +0.167 HD
ENDROOT
BRANCH   8  17
ATOM     17  N2  UNL     1      11.573  11.970  31.262  0.00  0.00    -0.307 N 
ATOM     18  C8  UNL     1      11.483  12.990  32.269  0.00  0.00    +0.246 C 
ATOM     19  O1  UNL     1      11.371  14.199  31.922  0.00  0.00    -0.270 OA
ATOM     20  H10 UNL     1      11.426  10.973  31.541  0.00  0.00    +0.149 HD
BRANCH  18  21
ATOM     21  C9  UNL     1      11.501  12.649  33.711  0.00  0.00    +0.057 A 
ATOM     22  C10 UNL     1      11.829  13.646  34.677  0.00  0.00    +0.126 A 
ATOM     23  N3  UNL     1      11.861  13.348  36.013  0.00  0.00    -0.234 NA
ATOM     24  C11 UNL     1      11.577  12.082  36.394  0.00  0.00    +0.176 A 
ATOM     25  N4  UNL     1      11.562  11.574  37.629  0.00  0.00    -0.240 N 
ATOM     26  N5  UNL     1      11.248  10.288  37.493  0.00  0.00    -0.066 NA
ATOM     27  N6  UNL     1      11.063   9.964  36.211  0.00  0.00    -0.128 NA
ATOM     28  C12 UNL     1      11.270  11.100  35.521  0.00  0.00    +0.132 A 
ATOM     29  C13 UNL     1      11.222  11.332  34.154  0.00  0.00    +0.048 A 
ATOM     30  H12 UNL     1      11.758  12.061  38.530  0.00  0.00    +0.192 HD
ENDBRANCH  18  21
ENDBRANCH   8  17
TORSDOF 2
ENDMDL
