REMARK  Name = /home/qwerty/github/datacon2025hack/step_04_hit_selection/docking/ligands/lig_323.pdb
REMARK  8 active torsions:
REMARK  status: ('A' for Active; 'I' for Inactive)
REMARK    1  A    between atoms: C1_1  and  C2_2
REMARK    2  A    between atoms: C2_2  and  N1_3
REMARK    3  A    between atoms: C2_2  and  C14_20
REMARK    4  A    between atoms: N2_6  and  C4_7
REMARK    5  A    between atoms: C4_7  and  C5_8
REMARK    6  A    between atoms: C5_8  and  O2_9
REMARK    7  A    between atoms: C5_8  and  C6_10
REMARK    8  A    between atoms: C17_23  and  C18_24
REMARK                            x       y       z     vdW  Elec       q    Type
REMARK                         _______ _______ _______ _____ _____    ______ ____
ROOT
ATOM      1  N1  UNL     1       1.192   0.545   0.703  0.00  0.00    -0.293 N 
ATOM      2  C3  UNL     1      -0.169   0.122   0.538  0.00  0.00    +0.300 C 
ATOM      3  O1  UNL     1      -0.639  -0.804   1.255  0.00  0.00    -0.253 OA
ATOM      4  N2  UNL     1      -0.992   0.751  -0.455  0.00  0.00    -0.297 N 
ATOM      5  H5  UNL     1       1.505   1.394   0.182  0.00  0.00    +0.151 HD
ATOM      6  H6  UNL     1      -0.565   1.468  -1.083  0.00  0.00    +0.150 HD
ENDROOT
BRANCH   1   8
ATOM      7  C1  UNL     1       2.152   0.767   2.952  0.00  0.00    +0.033 C 
ATOM      8  C2  UNL     1       2.106  -0.070   1.671  0.00  0.00    +0.102 C 
BRANCH   8   9
ATOM      9  C14 UNL     1       3.484  -0.226   1.057  0.00  0.00    -0.027 A 
ATOM     10  C15 UNL     1       4.236   0.895   0.664  0.00  0.00    +0.006 A 
ATOM     11  C16 UNL     1       5.492   0.737   0.073  0.00  0.00    +0.009 A 
ATOM     12  C17 UNL     1       6.023  -0.546  -0.145  0.00  0.00    -0.018 A 
ATOM     13  C23 UNL     1       5.272  -1.667   0.248  0.00  0.00    +0.009 A 
ATOM     14  C24 UNL     1       4.018  -1.508   0.843  0.00  0.00    +0.006 A 
BRANCH  12  15
ATOM     15  C18 UNL     1       7.351  -0.714  -0.788  0.00  0.00    -0.015 A 
ATOM     16  C19 UNL     1       7.563  -1.727  -1.739  0.00  0.00    +0.028 A 
ATOM     17  C20 UNL     1       8.819  -1.863  -2.337  0.00  0.00    +0.111 A 
ATOM     18  N3  UNL     1       9.830  -1.022  -2.000  0.00  0.00    -0.263 NA
ATOM     19  C21 UNL     1       9.658  -0.033  -1.084  0.00  0.00    +0.111 A 
ATOM     20  C22 UNL     1       8.419   0.140  -0.462  0.00  0.00    +0.028 A 
ENDBRANCH  12  15
ENDBRANCH   8   9
ENDBRANCH   1   8
BRANCH   4  21
ATOM     21  C4  UNL     1      -2.379   0.356  -0.693  0.00  0.00    +0.141 C 
BRANCH  21  22
ATOM     22  C5  UNL     1      -3.302   0.935   0.387  0.00  0.00    +0.162 C 
BRANCH  22  23
ATOM     23  C6  UNL     1      -4.720   0.455   0.169  0.00  0.00    -0.014 A 
ATOM     24  C7  UNL     1      -5.232  -0.605   0.939  0.00  0.00    +0.010 A 
ATOM     25  C8  UNL     1      -6.535  -1.069   0.729  0.00  0.00    +0.050 A 
ATOM     26  C9  UNL     1      -7.331  -0.485  -0.259  0.00  0.00    +0.162 A 
ATOM     27  C10 UNL     1      -6.814   0.539  -1.063  0.00  0.00    +0.162 A 
ATOM     28  C11 UNL     1      -5.520   1.018  -0.844  0.00  0.00    +0.055 A 
ATOM     29  O3  UNL     1      -7.610   1.067  -2.086  0.00  0.00    -0.485 OA
ATOM     30  C12 UNL     1      -8.810   0.409  -2.499  0.00  0.00    +0.270 C 
ATOM     31  C13 UNL     1      -9.549  -0.161  -1.281  0.00  0.00    +0.270 C 
ATOM     32  O4  UNL     1      -8.646  -0.914  -0.466  0.00  0.00    -0.485 OA
ENDBRANCH  22  23
BRANCH  22  33
ATOM     33  O2  UNL     1      -3.248   2.338   0.347  0.00  0.00    -0.386 OA
ATOM     34  H10 UNL     1      -3.678   2.664   1.181  0.00  0.00    +0.210 HD
ENDBRANCH  22  33
ENDBRANCH  21  22
ENDBRANCH   4  21
TORSDOF 7
