MODEL 1
REMARK VINA RESULT:    -6.382      0.000      0.000
REMARK INTER + INTRA:          -9.512
REMARK INTER:                  -8.248
REMARK INTRA:                  -1.264
REMARK UNBOUND:                -1.264
REMARK  Name = /home/qwerty/github/datacon2025hack/step_04_hit_selection/docking/ligands/lig_702.pdb
REMARK  7 active torsions:
REMARK  status: ('A' for Active; 'I' for Inactive)
REMARK    1  A    between atoms: C1_1  and  O1_2
REMARK    2  A    between atoms: O1_2  and  C2_3
REMARK    3  A    between atoms: C6_7  and  C7_8
REMARK    4  A    between atoms: N7_24  and  C17_25
REMARK    5  A    between atoms: C17_25  and  C18_26
REMARK    6  A    between atoms: C22_31  and  O3_32
REMARK    7  A    between atoms: O3_32  and  C23_33
REMARK                            x       y       z     vdW  Elec       q    Type
REMARK                         _______ _______ _______ _____ _____    ______ ____
ROOT
ATOM      1  C7  UNL     1      18.954  11.028  19.724  0.00  0.00    +0.169 A 
ATOM      2  N1  UNL     1      17.629  10.815  19.863  0.00  0.00    -0.127 NA
ATOM      3  N2  UNL     1      17.423   9.515  19.725  0.00  0.00    -0.113 NA
ATOM      4  C8  UNL     1      18.628   8.953  19.515  0.00  0.00    +0.220 A 
ATOM      5  N3  UNL     1      18.817   7.541  19.363  0.00  0.00    -0.297 N 
ATOM      6  C9  UNL     1      17.997   6.798  18.409  0.00  0.00    +0.127 C 
ATOM      7  C10 UNL     1      16.916   6.021  19.162  0.00  0.00    +0.127 C 
ATOM      8  N4  UNL     1      17.508   5.264  20.280  0.00  0.00    -0.297 N 
ATOM      9  C11 UNL     1      16.941   3.993  20.672  0.00  0.00    +0.218 A 
ATOM     10  N5  UNL     1      17.395   3.347  21.783  0.00  0.00    -0.223 NA
ATOM     11  C12 UNL     1      16.877   2.151  22.165  0.00  0.00    +0.116 A 
ATOM     12  C13 UNL     1      15.864   1.562  21.415  0.00  0.00    +0.039 A 
ATOM     13  C14 UNL     1      15.405   2.228  20.281  0.00  0.00    +0.116 A 
ATOM     14  N6  UNL     1      15.948   3.422  19.932  0.00  0.00    -0.223 NA
ATOM     15  C15 UNL     1      18.413   5.980  21.198  0.00  0.00    +0.127 C 
ATOM     16  C16 UNL     1      19.468   6.768  20.419  0.00  0.00    +0.127 C 
ATOM     17  N7  UNL     1      19.620   9.870  19.492  0.00  0.00    -0.295 N 
ENDROOT
BRANCH   1  22
ATOM     18  C2  UNL     1      20.188  14.311  21.198  0.00  0.00    +0.162 A 
ATOM     19  C3  UNL     1      20.661  14.942  20.030  0.00  0.00    +0.049 A 
ATOM     20  C4  UNL     1      20.574  14.305  18.794  0.00  0.00    +0.004 A 
ATOM     21  C5  UNL     1      20.024  13.032  18.701  0.00  0.00    +0.015 A 
ATOM     22  C6  UNL     1      19.563  12.370  19.847  0.00  0.00    +0.065 A 
ATOM     23  C22 UNL     1      19.620  13.012  21.104  0.00  0.00    +0.172 A 
BRANCH  18  25
ATOM     24  C1  UNL     1      21.223  15.966  22.776  0.00  0.00    +0.277 C 
ATOM     25  O1  UNL     1      20.281  14.950  22.446  0.00  0.00    -0.491 OA
ENDBRANCH  18  25
BRANCH  23  26
ATOM     26  O3  UNL     1      19.111  12.309  22.214  0.00  0.00    -0.491 OA
ATOM     27  C23 UNL     1      19.870  11.657  23.227  0.00  0.00    +0.277 C 
ENDBRANCH  23  26
ENDBRANCH   1  22
BRANCH  17  28
ATOM     28  C17 UNL     1      21.069   9.650  19.374  0.00  0.00    +0.132 C 
BRANCH  28  29
ATOM     29  C18 UNL     1      21.791   9.729  20.741  0.00  0.00    +0.037 C 
ATOM     30  C19 UNL     1      22.761  10.879  20.777  0.00  0.00    +0.035 C 
ATOM     31  C20 UNL     1      24.074  10.242  20.361  0.00  0.00    +0.160 C 
ATOM     32  O2  UNL     1      24.006   8.849  20.561  0.00  0.00    -0.379 OA
ATOM     33  C21 UNL     1      22.706   8.542  21.008  0.00  0.00    +0.165 C 
ENDBRANCH  28  29
ENDBRANCH  17  28
TORSDOF 5
ENDMDL
MODEL 2
REMARK VINA RESULT:    -6.382      8.695     10.139
REMARK INTER + INTRA:          -9.511
REMARK INTER:                  -8.567
REMARK INTRA:                  -0.944
REMARK UNBOUND:                -1.264
REMARK  Name = /home/qwerty/github/datacon2025hack/step_04_hit_selection/docking/ligands/lig_702.pdb
REMARK  7 active torsions:
REMARK  status: ('A' for Active; 'I' for Inactive)
REMARK    1  A    between atoms: C1_1  and  O1_2
REMARK    2  A    between atoms: O1_2  and  C2_3
REMARK    3  A    between atoms: C6_7  and  C7_8
REMARK    4  A    between atoms: N7_24  and  C17_25
REMARK    5  A    between atoms: C17_25  and  C18_26
REMARK    6  A    between atoms: C22_31  and  O3_32
REMARK    7  A    between atoms: O3_32  and  C23_33
REMARK                            x       y       z     vdW  Elec       q    Type
REMARK                         _______ _______ _______ _____ _____    ______ ____
ROOT
ATOM      1  C7  UNL     1      11.505   7.126  21.592  0.00  0.00    +0.169 A 
ATOM      2  N1  UNL     1      12.610   7.109  22.366  0.00  0.00    -0.127 NA
ATOM      3  N2  UNL     1      12.972   5.845  22.509  0.00  0.00    -0.113 NA
ATOM      4  C8  UNL     1      12.087   5.109  21.810  0.00  0.00    +0.220 A 
ATOM      5  N3  UNL     1      12.177   3.684  21.691  0.00  0.00    -0.297 N 
ATOM      6  C9  UNL     1      12.332   2.863  22.889  0.00  0.00    +0.127 C 
ATOM      7  C10 UNL     1      13.785   2.399  23.005  0.00  0.00    +0.127 C 
ATOM      8  N4  UNL     1      14.248   1.826  21.728  0.00  0.00    -0.297 N 
ATOM      9  C11 UNL     1      15.207   0.744  21.728  0.00  0.00    +0.218 A 
ATOM     10  N5  UNL     1      15.741   0.296  20.557  0.00  0.00    -0.223 NA
ATOM     11  C12 UNL     1      16.641  -0.722  20.535  0.00  0.00    +0.116 A 
ATOM     12  C13 UNL     1      17.033  -1.327  21.725  0.00  0.00    +0.039 A 
ATOM     13  C14 UNL     1      16.483  -0.863  22.918  0.00  0.00    +0.116 A 
ATOM     14  N6  UNL     1      15.587   0.157  22.898  0.00  0.00    -0.223 NA
ATOM     15  C15 UNL     1      14.015   2.603  20.496  0.00  0.00    +0.127 C 
ATOM     16  C16 UNL     1      12.561   3.076  20.418  0.00  0.00    +0.127 C 
ATOM     17  N7  UNL     1      11.137   5.873  21.228  0.00  0.00    -0.295 N 
ENDROOT
BRANCH   1  22
ATOM     18  C2  UNL     1       9.122  10.092  21.555  0.00  0.00    +0.162 A 
ATOM     19  C3  UNL     1       9.530  10.718  20.359  0.00  0.00    +0.049 A 
ATOM     20  C4  UNL     1      10.556  10.178  19.589  0.00  0.00    +0.004 A 
ATOM     21  C5  UNL     1      11.199   9.014  19.996  0.00  0.00    +0.015 A 
ATOM     22  C6  UNL     1      10.831   8.379  21.190  0.00  0.00    +0.065 A 
ATOM     23  C22 UNL     1       9.773   8.899  21.970  0.00  0.00    +0.172 A 
BRANCH  18  25
ATOM     24  C1  UNL     1       7.278  11.746  21.958  0.00  0.00    +0.277 C 
ATOM     25  O1  UNL     1       8.091  10.639  22.336  0.00  0.00    -0.491 OA
ENDBRANCH  18  25
BRANCH  23  26
ATOM     26  O3  UNL     1       9.428   8.197  23.142  0.00  0.00    -0.491 OA
ATOM     27  C23 UNL     1       9.791   8.541  24.476  0.00  0.00    +0.277 C 
ENDBRANCH  23  26
ENDBRANCH   1  22
BRANCH  17  28
ATOM     28  C17 UNL     1      10.056   5.457  20.323  0.00  0.00    +0.132 C 
BRANCH  28  29
ATOM     29  C18 UNL     1       9.033   4.523  21.014  0.00  0.00    +0.037 C 
ATOM     30  C19 UNL     1       7.654   4.706  20.439  0.00  0.00    +0.035 C 
ATOM     31  C20 UNL     1       7.023   5.730  21.363  0.00  0.00    +0.160 C 
ATOM     32  O2  UNL     1       7.719   5.753  22.587  0.00  0.00    -0.379 OA
ATOM     33  C21 UNL     1       8.805   4.862  22.481  0.00  0.00    +0.165 C 
ENDBRANCH  28  29
ENDBRANCH  17  28
TORSDOF 5
ENDMDL
MODEL 3
REMARK VINA RESULT:    -6.227      6.716     11.034
REMARK INTER + INTRA:          -9.312
REMARK INTER:                  -7.946
REMARK INTRA:                  -1.365
REMARK UNBOUND:                -1.264
REMARK  Name = /home/qwerty/github/datacon2025hack/step_04_hit_selection/docking/ligands/lig_702.pdb
REMARK  7 active torsions:
REMARK  status: ('A' for Active; 'I' for Inactive)
REMARK    1  A    between atoms: C1_1  and  O1_2
REMARK    2  A    between atoms: O1_2  and  C2_3
REMARK    3  A    between atoms: C6_7  and  C7_8
REMARK    4  A    between atoms: N7_24  and  C17_25
REMARK    5  A    between atoms: C17_25  and  C18_26
REMARK    6  A    between atoms: C22_31  and  O3_32
REMARK    7  A    between atoms: O3_32  and  C23_33
REMARK                            x       y       z     vdW  Elec       q    Type
REMARK                         _______ _______ _______ _____ _____    ______ ____
ROOT
ATOM      1  C7  UNL     1      13.776   1.957  21.741  0.00  0.00    +0.169 A 
ATOM      2  N1  UNL     1      12.475   1.858  21.396  0.00  0.00    -0.127 NA
ATOM      3  N2  UNL     1      11.890   2.994  21.738  0.00  0.00    -0.113 NA
ATOM      4  C8  UNL     1      12.845   3.774  22.276  0.00  0.00    +0.220 A 
ATOM      5  N3  UNL     1      12.601   5.111  22.728  0.00  0.00    -0.297 N 
ATOM      6  C9  UNL     1      11.485   5.379  23.632  0.00  0.00    +0.127 C 
ATOM      7  C10 UNL     1      10.335   6.015  22.851  0.00  0.00    +0.127 C 
ATOM      8  N4  UNL     1      10.826   7.138  22.030  0.00  0.00    -0.297 N 
ATOM      9  C11 UNL     1       9.975   8.281  21.788  0.00  0.00    +0.218 A 
ATOM     10  N5  UNL     1      10.366   9.263  20.927  0.00  0.00    -0.223 NA
ATOM     11  C12 UNL     1       9.582  10.346  20.689  0.00  0.00    +0.116 A 
ATOM     12  C13 UNL     1       8.353  10.469  21.332  0.00  0.00    +0.039 A 
ATOM     13  C14 UNL     1       7.960   9.461  22.210  0.00  0.00    +0.116 A 
ATOM     14  N6  UNL     1       8.772   8.394  22.421  0.00  0.00    -0.223 NA
ATOM     15  C15 UNL     1      12.009   6.909  21.181  0.00  0.00    +0.127 C 
ATOM     16  C16 UNL     1      13.136   6.249  21.982  0.00  0.00    +0.127 C 
ATOM     17  N7  UNL     1      14.046   3.156  22.312  0.00  0.00    -0.295 N 
ENDROOT
BRANCH   1  22
ATOM     18  C2  UNL     1      16.014  -1.082  22.227  0.00  0.00    +0.162 A 
ATOM     19  C3  UNL     1      16.666  -1.107  20.978  0.00  0.00    +0.049 A 
ATOM     20  C4  UNL     1      16.379  -0.151  20.007  0.00  0.00    +0.004 A 
ATOM     21  C5  UNL     1      15.435   0.839  20.257  0.00  0.00    +0.015 A 
ATOM     22  C6  UNL     1      14.754   0.879  21.482  0.00  0.00    +0.065 A 
ATOM     23  C22 UNL     1      15.053  -0.068  22.488  0.00  0.00    +0.172 A 
BRANCH  18  25
ATOM     24  C1  UNL     1      17.371  -1.975  24.140  0.00  0.00    +0.277 C 
ATOM     25  O1  UNL     1      16.298  -2.049  23.205  0.00  0.00    -0.491 OA
ENDBRANCH  18  25
BRANCH  23  26
ATOM     26  O3  UNL     1      14.359   0.045  23.709  0.00  0.00    -0.491 OA
ATOM     27  C23 UNL     1      14.840   0.647  24.906  0.00  0.00    +0.277 C 
ENDBRANCH  23  26
ENDBRANCH   1  22
BRANCH  17  28
ATOM     28  C17 UNL     1      15.343   3.699  22.742  0.00  0.00    +0.132 C 
BRANCH  28  29
ATOM     29  C18 UNL     1      16.157   4.286  21.564  0.00  0.00    +0.037 C 
ATOM     30  C19 UNL     1      17.429   3.512  21.342  0.00  0.00    +0.035 C 
ATOM     31  C20 UNL     1      18.453   4.282  22.155  0.00  0.00    +0.160 C 
ATOM     32  O2  UNL     1      17.985   5.590  22.387  0.00  0.00    -0.379 OA
ATOM     33  C21 UNL     1      16.690   5.686  21.839  0.00  0.00    +0.165 C 
ENDBRANCH  28  29
ENDBRANCH  17  28
TORSDOF 5
ENDMDL
MODEL 4
REMARK VINA RESULT:    -6.150      3.749      4.691
REMARK INTER + INTRA:          -9.212
REMARK INTER:                  -7.993
REMARK INTRA:                  -1.219
REMARK UNBOUND:                -1.264
REMARK  Name = /home/qwerty/github/datacon2025hack/step_04_hit_selection/docking/ligands/lig_702.pdb
REMARK  7 active torsions:
REMARK  status: ('A' for Active; 'I' for Inactive)
REMARK    1  A    between atoms: C1_1  and  O1_2
REMARK    2  A    between atoms: O1_2  and  C2_3
REMARK    3  A    between atoms: C6_7  and  C7_8
REMARK    4  A    between atoms: N7_24  and  C17_25
REMARK    5  A    between atoms: C17_25  and  C18_26
REMARK    6  A    between atoms: C22_31  and  O3_32
REMARK    7  A    between atoms: O3_32  and  C23_33
REMARK                            x       y       z     vdW  Elec       q    Type
REMARK                         _______ _______ _______ _____ _____    ______ ____
ROOT
ATOM      1  C7  UNL     1      19.440   8.810  21.683  0.00  0.00    +0.169 A 
ATOM      2  N1  UNL     1      18.465   8.297  22.461  0.00  0.00    -0.127 NA
ATOM      3  N2  UNL     1      18.885   7.121  22.895  0.00  0.00    -0.113 NA
ATOM      4  C8  UNL     1      20.117   6.938  22.384  0.00  0.00    +0.220 A 
ATOM      5  N3  UNL     1      20.920   5.787  22.670  0.00  0.00    -0.297 N 
ATOM      6  C9  UNL     1      20.354   4.449  22.509  0.00  0.00    +0.127 C 
ATOM      7  C10 UNL     1      20.008   3.873  23.883  0.00  0.00    +0.127 C 
ATOM      8  N4  UNL     1      21.147   4.020  24.807  0.00  0.00    -0.297 N 
ATOM      9  C11 UNL     1      21.381   3.023  25.828  0.00  0.00    +0.218 A 
ATOM     10  N5  UNL     1      22.348   3.213  26.769  0.00  0.00    -0.223 NA
ATOM     11  C12 UNL     1      22.586   2.286  27.734  0.00  0.00    +0.116 A 
ATOM     12  C13 UNL     1      21.834   1.116  27.773  0.00  0.00    +0.039 A 
ATOM     13  C14 UNL     1      20.846   0.930  26.809  0.00  0.00    +0.116 A 
ATOM     14  N6  UNL     1      20.640   1.879  25.860  0.00  0.00    -0.223 NA
ATOM     15  C15 UNL     1      21.788   5.343  24.911  0.00  0.00    +0.127 C 
ATOM     16  C16 UNL     1      22.101   5.908  23.523  0.00  0.00    +0.127 C 
ATOM     17  N7  UNL     1      20.502   7.971  21.602  0.00  0.00    -0.295 N 
ENDROOT
BRANCH   1  22
ATOM     18  C2  UNL     1      19.555  12.574  21.136  0.00  0.00    +0.162 A 
ATOM     19  C3  UNL     1      19.054  12.645  19.820  0.00  0.00    +0.049 A 
ATOM     20  C4  UNL     1      18.689  11.489  19.136  0.00  0.00    +0.004 A 
ATOM     21  C5  UNL     1      18.821  10.245  19.743  0.00  0.00    +0.015 A 
ATOM     22  C6  UNL     1      19.335  10.139  21.042  0.00  0.00    +0.065 A 
ATOM     23  C22 UNL     1      19.685  11.305  21.761  0.00  0.00    +0.172 A 
BRANCH  18  25
ATOM     24  C1  UNL     1      20.225  14.991  21.215  0.00  0.00    +0.277 C 
ATOM     25  O1  UNL     1      19.929  13.739  21.826  0.00  0.00    -0.491 OA
ENDBRANCH  18  25
BRANCH  23  26
ATOM     26  O3  UNL     1      20.164  11.135  23.075  0.00  0.00    -0.491 OA
ATOM     27  C23 UNL     1      19.444  11.380  24.279  0.00  0.00    +0.277 C 
ENDBRANCH  23  26
ENDBRANCH   1  22
BRANCH  17  28
ATOM     28  C17 UNL     1      21.796   8.185  20.939  0.00  0.00    +0.132 C 
BRANCH  28  29
ATOM     29  C18 UNL     1      21.728   7.924  19.414  0.00  0.00    +0.037 C 
ATOM     30  C19 UNL     1      20.993   6.646  19.113  0.00  0.00    +0.035 C 
ATOM     31  C20 UNL     1      22.103   5.616  19.025  0.00  0.00    +0.160 C 
ATOM     32  O2  UNL     1      23.330   6.265  18.786  0.00  0.00    -0.379 OA
ATOM     33  C21 UNL     1      23.090   7.653  18.789  0.00  0.00    +0.165 C 
ENDBRANCH  28  29
ENDBRANCH  17  28
TORSDOF 5
ENDMDL
MODEL 5
REMARK VINA RESULT:    -6.066     14.313     16.821
REMARK INTER + INTRA:          -9.104
REMARK INTER:                  -7.749
REMARK INTRA:                  -1.355
REMARK UNBOUND:                -1.264
REMARK  Name = /home/qwerty/github/datacon2025hack/step_04_hit_selection/docking/ligands/lig_702.pdb
REMARK  7 active torsions:
REMARK  status: ('A' for Active; 'I' for Inactive)
REMARK    1  A    between atoms: C1_1  and  O1_2
REMARK    2  A    between atoms: O1_2  and  C2_3
REMARK    3  A    between atoms: C6_7  and  C7_8
REMARK    4  A    between atoms: N7_24  and  C17_25
REMARK    5  A    between atoms: C17_25  and  C18_26
REMARK    6  A    between atoms: C22_31  and  O3_32
REMARK    7  A    between atoms: O3_32  and  C23_33
REMARK                            x       y       z     vdW  Elec       q    Type
REMARK                         _______ _______ _______ _____ _____    ______ ____
ROOT
ATOM      1  C7  UNL     1      19.746   9.197  35.925  0.00  0.00    +0.169 A 
ATOM      2  N1  UNL     1      19.684  10.525  36.151  0.00  0.00    -0.127 NA
ATOM      3  N2  UNL     1      18.482  10.933  35.778  0.00  0.00    -0.113 NA
ATOM      4  C8  UNL     1      17.824   9.843  35.339  0.00  0.00    +0.220 A 
ATOM      5  N3  UNL     1      16.465   9.879  34.888  0.00  0.00    -0.297 N 
ATOM      6  C9  UNL     1      16.056  10.867  33.893  0.00  0.00    +0.127 C 
ATOM      7  C10 UNL     1      15.285  11.995  34.579  0.00  0.00    +0.127 C 
ATOM      8  N4  UNL     1      14.236  11.444  35.458  0.00  0.00    -0.297 N 
ATOM      9  C11 UNL     1      12.997  12.166  35.641  0.00  0.00    +0.218 A 
ATOM     10  N5  UNL     1      12.076  11.735  36.549  0.00  0.00    -0.223 NA
ATOM     11  C12 UNL     1      10.904  12.397  36.734  0.00  0.00    +0.116 A 
ATOM     12  C13 UNL     1      10.626  13.538  35.988  0.00  0.00    +0.039 A 
ATOM     13  C14 UNL     1      11.572  13.973  35.063  0.00  0.00    +0.116 A 
ATOM     14  N6  UNL     1      12.732  13.283  34.907  0.00  0.00    -0.223 NA
ATOM     15  C15 UNL     1      14.615  10.379  36.404  0.00  0.00    +0.127 C 
ATOM     16  C16 UNL     1      15.406   9.276  35.696  0.00  0.00    +0.127 C 
ATOM     17  N7  UNL     1      18.587   8.730  35.399  0.00  0.00    -0.295 N 
ENDROOT
BRANCH   1  22
ATOM     18  C2  UNL     1      23.057   7.350  35.600  0.00  0.00    +0.162 A 
ATOM     19  C3  UNL     1      23.150   6.787  36.889  0.00  0.00    +0.049 A 
ATOM     20  C4  UNL     1      22.152   7.007  37.834  0.00  0.00    +0.004 A 
ATOM     21  C5  UNL     1      21.051   7.796  37.518  0.00  0.00    +0.015 A 
ATOM     22  C6  UNL     1      20.939   8.386  36.252  0.00  0.00    +0.065 A 
ATOM     23  C22 UNL     1      21.930   8.151  35.273  0.00  0.00    +0.172 A 
BRANCH  18  25
ATOM     24  C1  UNL     1      24.164   5.987  33.808  0.00  0.00    +0.277 C 
ATOM     25  O1  UNL     1      24.066   7.133  34.648  0.00  0.00    -0.491 OA
ENDBRANCH  18  25
BRANCH  23  26
ATOM     26  O3  UNL     1      21.744   8.745  34.009  0.00  0.00    -0.491 OA
ATOM     27  C23 UNL     1      21.263   8.104  32.832  0.00  0.00    +0.277 C 
ENDBRANCH  23  26
ENDBRANCH   1  22
BRANCH  17  28
ATOM     28  C17 UNL     1      18.208   7.342  35.094  0.00  0.00    +0.132 C 
BRANCH  28  29
ATOM     29  C18 UNL     1      17.766   6.560  36.354  0.00  0.00    +0.037 C 
ATOM     30  C19 UNL     1      18.676   5.390  36.615  0.00  0.00    +0.035 C 
ATOM     31  C20 UNL     1      17.975   4.239  35.915  0.00  0.00    +0.160 C 
ATOM     32  O2  UNL     1      16.616   4.560  35.727  0.00  0.00    -0.379 OA
ATOM     33  C21 UNL     1      16.416   5.874  36.194  0.00  0.00    +0.165 C 
ENDBRANCH  28  29
ENDBRANCH  17  28
TORSDOF 5
ENDMDL
MODEL 6
REMARK VINA RESULT:    -6.017      9.657     11.371
REMARK INTER + INTRA:          -9.040
REMARK INTER:                  -7.951
REMARK INTRA:                  -1.089
REMARK UNBOUND:                -1.264
REMARK  Name = /home/qwerty/github/datacon2025hack/step_04_hit_selection/docking/ligands/lig_702.pdb
REMARK  7 active torsions:
REMARK  status: ('A' for Active; 'I' for Inactive)
REMARK    1  A    between atoms: C1_1  and  O1_2
REMARK    2  A    between atoms: O1_2  and  C2_3
REMARK    3  A    between atoms: C6_7  and  C7_8
REMARK    4  A    between atoms: N7_24  and  C17_25
REMARK    5  A    between atoms: C17_25  and  C18_26
REMARK    6  A    between atoms: C22_31  and  O3_32
REMARK    7  A    between atoms: O3_32  and  C23_33
REMARK                            x       y       z     vdW  Elec       q    Type
REMARK                         _______ _______ _______ _____ _____    ______ ____
ROOT
ATOM      1  C7  UNL     1      10.155   9.297  26.419  0.00  0.00    +0.169 A 
ATOM      2  N1  UNL     1      10.471   8.239  27.194  0.00  0.00    -0.127 NA
ATOM      3  N2  UNL     1      10.440   7.164  26.424  0.00  0.00    -0.113 NA
ATOM      4  C8  UNL     1      10.117   7.585  25.187  0.00  0.00    +0.220 A 
ATOM      5  N3  UNL     1      10.030   6.705  24.059  0.00  0.00    -0.297 N 
ATOM      6  C9  UNL     1       9.233   5.484  24.152  0.00  0.00    +0.127 C 
ATOM      7  C10 UNL     1      10.161   4.281  24.328  0.00  0.00    +0.127 C 
ATOM      8  N4  UNL     1      11.242   4.310  23.325  0.00  0.00    -0.297 N 
ATOM      9  C11 UNL     1      11.778   3.072  22.806  0.00  0.00    +0.218 A 
ATOM     10  N5  UNL     1      12.863   3.083  21.980  0.00  0.00    -0.223 NA
ATOM     11  C12 UNL     1      13.379   1.931  21.479  0.00  0.00    +0.116 A 
ATOM     12  C13 UNL     1      12.799   0.709  21.807  0.00  0.00    +0.039 A 
ATOM     13  C14 UNL     1      11.692   0.706  22.653  0.00  0.00    +0.116 A 
ATOM     14  N6  UNL     1      11.205   1.879  23.133  0.00  0.00    -0.223 NA
ATOM     15  C15 UNL     1      11.994   5.567  23.155  0.00  0.00    +0.127 C 
ATOM     16  C16 UNL     1      11.043   6.757  23.006  0.00  0.00    +0.127 C 
ATOM     17  N7  UNL     1       9.914   8.919  25.140  0.00  0.00    -0.295 N 
ENDROOT
BRANCH   1  22
ATOM     18  C2  UNL     1       8.895  12.560  27.919  0.00  0.00    +0.162 A 
ATOM     19  C3  UNL     1      10.071  13.334  27.842  0.00  0.00    +0.049 A 
ATOM     20  C4  UNL     1      11.241  12.798  27.311  0.00  0.00    +0.004 A 
ATOM     21  C5  UNL     1      11.265  11.484  26.855  0.00  0.00    +0.015 A 
ATOM     22  C6  UNL     1      10.118  10.682  26.937  0.00  0.00    +0.065 A 
ATOM     23  C22 UNL     1       8.916  11.219  27.448  0.00  0.00    +0.172 A 
BRANCH  18  25
ATOM     24  C1  UNL     1       7.632  13.816  29.686  0.00  0.00    +0.277 C 
ATOM     25  O1  UNL     1       7.716  13.098  28.459  0.00  0.00    -0.491 OA
ENDBRANCH  18  25
BRANCH  23  26
ATOM     26  O3  UNL     1       7.789  10.374  27.473  0.00  0.00    -0.491 OA
ATOM     27  C23 UNL     1       7.266   9.689  28.607  0.00  0.00    +0.277 C 
ENDBRANCH  23  26
ENDBRANCH   1  22
BRANCH  17  28
ATOM     28  C17 UNL     1       9.631   9.763  23.969  0.00  0.00    +0.132 C 
BRANCH  28  29
ATOM     29  C18 UNL     1       8.256   9.446  23.333  0.00  0.00    +0.037 C 
ATOM     30  C19 UNL     1       8.329   9.488  21.830  0.00  0.00    +0.035 C 
ATOM     31  C20 UNL     1       7.916  10.911  21.500  0.00  0.00    +0.160 C 
ATOM     32  O2  UNL     1       7.205  11.459  22.585  0.00  0.00    -0.379 OA
ATOM     33  C21 UNL     1       7.201  10.504  23.622  0.00  0.00    +0.165 C 
ENDBRANCH  28  29
ENDBRANCH  17  28
TORSDOF 5
ENDMDL
MODEL 7
REMARK VINA RESULT:    -6.006     12.575     14.555
REMARK INTER + INTRA:          -9.025
REMARK INTER:                  -8.028
REMARK INTRA:                  -0.997
REMARK UNBOUND:                -1.264
REMARK  Name = /home/qwerty/github/datacon2025hack/step_04_hit_selection/docking/ligands/lig_702.pdb
REMARK  7 active torsions:
REMARK  status: ('A' for Active; 'I' for Inactive)
REMARK    1  A    between atoms: C1_1  and  O1_2
REMARK    2  A    between atoms: O1_2  and  C2_3
REMARK    3  A    between atoms: C6_7  and  C7_8
REMARK    4  A    between atoms: N7_24  and  C17_25
REMARK    5  A    between atoms: C17_25  and  C18_26
REMARK    6  A    between atoms: C22_31  and  O3_32
REMARK    7  A    between atoms: O3_32  and  C23_33
REMARK                            x       y       z     vdW  Elec       q    Type
REMARK                         _______ _______ _______ _____ _____    ______ ____
ROOT
ATOM      1  C7  UNL     1      18.682   7.843  34.680  0.00  0.00    +0.169 A 
ATOM      2  N1  UNL     1      18.361   7.890  33.370  0.00  0.00    -0.127 NA
ATOM      3  N2  UNL     1      19.162   7.049  32.738  0.00  0.00    -0.113 NA
ATOM      4  C8  UNL     1      19.953   6.492  33.674  0.00  0.00    +0.220 A 
ATOM      5  N3  UNL     1      20.931   5.488  33.376  0.00  0.00    -0.297 N 
ATOM      6  C9  UNL     1      21.892   5.709  32.298  0.00  0.00    +0.127 C 
ATOM      7  C10 UNL     1      21.480   4.896  31.071  0.00  0.00    +0.127 C 
ATOM      8  N4  UNL     1      21.193   3.499  31.447  0.00  0.00    -0.297 N 
ATOM      9  C11 UNL     1      21.475   2.429  30.517  0.00  0.00    +0.218 A 
ATOM     10  N5  UNL     1      21.095   1.151  30.800  0.00  0.00    -0.223 NA
ATOM     11  C12 UNL     1      21.354   0.131  29.941  0.00  0.00    +0.116 A 
ATOM     12  C13 UNL     1      22.020   0.383  28.745  0.00  0.00    +0.039 A 
ATOM     13  C14 UNL     1      22.404   1.691  28.463  0.00  0.00    +0.116 A 
ATOM     14  N6  UNL     1      22.127   2.683  29.347  0.00  0.00    -0.223 NA
ATOM     15  C15 UNL     1      20.296   3.262  32.593  0.00  0.00    +0.127 C 
ATOM     16  C16 UNL     1      20.717   4.105  33.799  0.00  0.00    +0.127 C 
ATOM     17  N7  UNL     1      19.696   6.973  34.910  0.00  0.00    -0.295 N 
ENDROOT
BRANCH   1  22
ATOM     18  C2  UNL     1      17.481  10.776  36.787  0.00  0.00    +0.162 A 
ATOM     19  C3  UNL     1      16.657  10.095  37.706  0.00  0.00    +0.049 A 
ATOM     20  C4  UNL     1      16.504   8.713  37.635  0.00  0.00    +0.004 A 
ATOM     21  C5  UNL     1      17.160   7.986  36.646  0.00  0.00    +0.015 A 
ATOM     22  C6  UNL     1      17.969   8.636  35.705  0.00  0.00    +0.065 A 
ATOM     23  C22 UNL     1      18.156  10.035  35.780  0.00  0.00    +0.172 A 
BRANCH  18  25
ATOM     24  C1  UNL     1      16.560  13.108  36.888  0.00  0.00    +0.277 C 
ATOM     25  O1  UNL     1      17.631  12.170  36.854  0.00  0.00    -0.491 OA
ENDBRANCH  18  25
BRANCH  23  26
ATOM     26  O3  UNL     1      19.009  10.625  34.825  0.00  0.00    -0.491 OA
ATOM     27  C23 UNL     1      20.368  11.002  35.019  0.00  0.00    +0.277 C 
ENDBRANCH  23  26
ENDBRANCH   1  22
BRANCH  17  28
ATOM     28  C17 UNL     1      20.281   6.561  36.194  0.00  0.00    +0.132 C 
BRANCH  28  29
ATOM     29  C18 UNL     1      21.326   7.575  36.720  0.00  0.00    +0.037 C 
ATOM     30  C19 UNL     1      22.402   7.825  35.698  0.00  0.00    +0.035 C 
ATOM     31  C20 UNL     1      23.485   6.834  36.080  0.00  0.00    +0.160 C 
ATOM     32  O2  UNL     1      23.307   6.435  37.420  0.00  0.00    -0.379 OA
ATOM     33  C21 UNL     1      22.134   7.049  37.899  0.00  0.00    +0.165 C 
ENDBRANCH  28  29
ENDBRANCH  17  28
TORSDOF 5
ENDMDL
MODEL 8
REMARK VINA RESULT:    -5.942      4.891     10.984
REMARK INTER + INTRA:          -8.943
REMARK INTER:                  -7.669
REMARK INTRA:                  -1.275
REMARK UNBOUND:                -1.264
REMARK  Name = /home/qwerty/github/datacon2025hack/step_04_hit_selection/docking/ligands/lig_702.pdb
REMARK  7 active torsions:
REMARK  status: ('A' for Active; 'I' for Inactive)
REMARK    1  A    between atoms: C1_1  and  O1_2
REMARK    2  A    between atoms: O1_2  and  C2_3
REMARK    3  A    between atoms: C6_7  and  C7_8
REMARK    4  A    between atoms: N7_24  and  C17_25
REMARK    5  A    between atoms: C17_25  and  C18_26
REMARK    6  A    between atoms: C22_31  and  O3_32
REMARK    7  A    between atoms: O3_32  and  C23_33
REMARK                            x       y       z     vdW  Elec       q    Type
REMARK                         _______ _______ _______ _____ _____    ______ ____
ROOT
ATOM      1  C7  UNL     1      16.638   1.160  22.782  0.00  0.00    +0.169 A 
ATOM      2  N1  UNL     1      16.155   1.542  21.581  0.00  0.00    -0.127 NA
ATOM      3  N2  UNL     1      16.573   2.778  21.364  0.00  0.00    -0.113 NA
ATOM      4  C8  UNL     1      17.315   3.128  22.432  0.00  0.00    +0.220 A 
ATOM      5  N3  UNL     1      17.980   4.392  22.542  0.00  0.00    -0.297 N 
ATOM      6  C9  UNL     1      17.235   5.627  22.308  0.00  0.00    +0.127 C 
ATOM      7  C10 UNL     1      17.584   6.180  20.926  0.00  0.00    +0.127 C 
ATOM      8  N4  UNL     1      19.046   6.226  20.741  0.00  0.00    -0.297 N 
ATOM      9  C11 UNL     1      19.640   7.271  19.938  0.00  0.00    +0.218 A 
ATOM     10  N5  UNL     1      20.973   7.249  19.652  0.00  0.00    -0.223 NA
ATOM     11  C12 UNL     1      21.549   8.224  18.903  0.00  0.00    +0.116 A 
ATOM     12  C13 UNL     1      20.776   9.271  18.411  0.00  0.00    +0.039 A 
ATOM     13  C14 UNL     1      19.415   9.286  18.706  0.00  0.00    +0.116 A 
ATOM     14  N6  UNL     1      18.876   8.293  19.459  0.00  0.00    -0.223 NA
ATOM     15  C15 UNL     1      19.823   5.014  21.063  0.00  0.00    +0.127 C 
ATOM     16  C16 UNL     1      19.437   4.468  22.440  0.00  0.00    +0.127 C 
ATOM     17  N7  UNL     1      17.371   2.145  23.357  0.00  0.00    -0.295 N 
ENDROOT
BRANCH   1  22
ATOM     18  C2  UNL     1      15.099  -1.705  24.757  0.00  0.00    +0.162 A 
ATOM     19  C3  UNL     1      16.016  -2.732  24.454  0.00  0.00    +0.049 A 
ATOM     20  C4  UNL     1      17.109  -2.486  23.627  0.00  0.00    +0.004 A 
ATOM     21  C5  UNL     1      17.304  -1.222  23.081  0.00  0.00    +0.015 A 
ATOM     22  C6  UNL     1      16.398  -0.186  23.347  0.00  0.00    +0.065 A 
ATOM     23  C22 UNL     1      15.299  -0.411  24.206  0.00  0.00    +0.172 A 
BRANCH  18  25
ATOM     24  C1  UNL     1      13.976  -1.776  27.000  0.00  0.00    +0.277 C 
ATOM     25  O1  UNL     1      13.993  -1.953  25.587  0.00  0.00    -0.491 OA
ENDBRANCH  18  25
BRANCH  23  26
ATOM     26  O3  UNL     1      14.443   0.679  24.460  0.00  0.00    -0.491 OA
ATOM     27  C23 UNL     1      13.162   0.906  23.882  0.00  0.00    +0.277 C 
ENDBRANCH  23  26
ENDBRANCH   1  22
BRANCH  17  28
ATOM     28  C17 UNL     1      18.141   2.107  24.609  0.00  0.00    +0.132 C 
BRANCH  28  29
ATOM     29  C18 UNL     1      19.489   1.363  24.451  0.00  0.00    +0.037 C 
ATOM     30  C19 UNL     1      19.638   0.283  25.489  0.00  0.00    +0.035 C 
ATOM     31  C20 UNL     1      20.395   0.975  26.607  0.00  0.00    +0.160 C 
ATOM     32  O2  UNL     1      21.049   2.115  26.099  0.00  0.00    -0.379 OA
ATOM     33  C21 UNL     1      20.699   2.241  24.740  0.00  0.00    +0.165 C 
ENDBRANCH  28  29
ENDBRANCH  17  28
TORSDOF 5
ENDMDL
MODEL 9
REMARK VINA RESULT:    -5.895     13.135     16.005
REMARK INTER + INTRA:          -8.883
REMARK INTER:                  -7.717
REMARK INTRA:                  -1.166
REMARK UNBOUND:                -1.264
REMARK  Name = /home/qwerty/github/datacon2025hack/step_04_hit_selection/docking/ligands/lig_702.pdb
REMARK  7 active torsions:
REMARK  status: ('A' for Active; 'I' for Inactive)
REMARK    1  A    between atoms: C1_1  and  O1_2
REMARK    2  A    between atoms: O1_2  and  C2_3
REMARK    3  A    between atoms: C6_7  and  C7_8
REMARK    4  A    between atoms: N7_24  and  C17_25
REMARK    5  A    between atoms: C17_25  and  C18_26
REMARK    6  A    between atoms: C22_31  and  O3_32
REMARK    7  A    between atoms: O3_32  and  C23_33
REMARK                            x       y       z     vdW  Elec       q    Type
REMARK                         _______ _______ _______ _____ _____    ______ ____
ROOT
ATOM      1  C7  UNL     1      15.580  10.688  35.149  0.00  0.00    +0.169 A 
ATOM      2  N1  UNL     1      14.712   9.795  34.628  0.00  0.00    -0.127 NA
ATOM      3  N2  UNL     1      13.805  10.478  33.949  0.00  0.00    -0.113 NA
ATOM      4  C8  UNL     1      14.140  11.777  34.057  0.00  0.00    +0.220 A 
ATOM      5  N3  UNL     1      13.411  12.829  33.412  0.00  0.00    -0.297 N 
ATOM      6  C9  UNL     1      11.960  12.904  33.563  0.00  0.00    +0.127 C 
ATOM      7  C10 UNL     1      11.286  12.396  32.288  0.00  0.00    +0.127 C 
ATOM      8  N4  UNL     1      11.878  13.038  31.099  0.00  0.00    -0.297 N 
ATOM      9  C11 UNL     1      11.057  13.305  29.940  0.00  0.00    +0.218 A 
ATOM     10  N5  UNL     1      11.618  13.776  28.790  0.00  0.00    -0.223 NA
ATOM     11  C12 UNL     1      10.864  14.037  27.692  0.00  0.00    +0.116 A 
ATOM     12  C13 UNL     1       9.489  13.824  27.727  0.00  0.00    +0.039 A 
ATOM     13  C14 UNL     1       8.922  13.342  28.905  0.00  0.00    +0.116 A 
ATOM     14  N6  UNL     1       9.711  13.094  29.982  0.00  0.00    -0.223 NA
ATOM     15  C15 UNL     1      13.348  13.051  30.979  0.00  0.00    +0.127 C 
ATOM     16  C16 UNL     1      13.996  13.540  32.277  0.00  0.00    +0.127 C 
ATOM     17  N7  UNL     1      15.243  11.958  34.816  0.00  0.00    -0.295 N 
ENDROOT
BRANCH   1  22
ATOM     18  C2  UNL     1      19.097   9.591  36.103  0.00  0.00    +0.162 A 
ATOM     19  C3  UNL     1      18.940   9.453  37.497  0.00  0.00    +0.049 A 
ATOM     20  C4  UNL     1      17.713   9.711  38.102  0.00  0.00    +0.004 A 
ATOM     21  C5  UNL     1      16.626  10.117  37.337  0.00  0.00    +0.015 A 
ATOM     22  C6  UNL     1      16.755  10.284  35.951  0.00  0.00    +0.065 A 
ATOM     23  C22 UNL     1      17.986  10.001  35.317  0.00  0.00    +0.172 A 
BRANCH  18  25
ATOM     24  C1  UNL     1      21.494   8.851  36.162  0.00  0.00    +0.277 C 
ATOM     25  O1  UNL     1      20.335   9.337  35.491  0.00  0.00    -0.491 OA
ENDBRANCH  18  25
BRANCH  23  26
ATOM     26  O3  UNL     1      18.043  10.155  33.917  0.00  0.00    -0.491 OA
ATOM     27  C23 UNL     1      18.606  11.253  33.207  0.00  0.00    +0.277 C 
ENDBRANCH  23  26
ENDBRANCH   1  22
BRANCH  17  28
ATOM     28  C17 UNL     1      15.966  13.206  35.099  0.00  0.00    +0.132 C 
BRANCH  28  29
ATOM     29  C18 UNL     1      15.601  13.799  36.481  0.00  0.00    +0.037 C 
ATOM     30  C19 UNL     1      14.154  13.552  36.814  0.00  0.00    +0.035 C 
ATOM     31  C20 UNL     1      13.463  14.812  36.328  0.00  0.00    +0.160 C 
ATOM     32  O2  UNL     1      14.406  15.852  36.212  0.00  0.00    -0.379 OA
ATOM     33  C21 UNL     1      15.673  15.320  36.522  0.00  0.00    +0.165 C 
ENDBRANCH  28  29
ENDBRANCH  17  28
TORSDOF 5
ENDMDL
