MODEL 1
REMARK VINA RESULT:    -6.564      0.000      0.000
REMARK INTER + INTRA:          -9.201
REMARK INTER:                  -8.291
REMARK INTRA:                  -0.910
REMARK UNBOUND:                -0.910
REMARK  Name = /home/qwerty/github/datacon2025hack/step_04_hit_selection/docking/ligands/lig_656.pdb
REMARK  6 active torsions:
REMARK  status: ('A' for Active; 'I' for Inactive)
REMARK    1  A    between atoms: C1_1  and  O1_2
REMARK    2  A    between atoms: O1_2  and  C2_3
REMARK    3  A    between atoms: C2_3  and  C3_5
REMARK    4  A    between atoms: C11_15  and  C12_17
REMARK    5  A    between atoms: C15_20  and  N2_21
REMARK    6  A    between atoms: C18_24  and  O5_25
REMARK                            x       y       z     vdW  Elec       q    Type
REMARK                         _______ _______ _______ _____ _____    ______ ____
ROOT
ATOM      1  C3  UNL     1      19.409  10.749  21.475  0.00  0.00    +0.062 A 
ATOM      2  C4  UNL     1      20.645  10.116  21.285  0.00  0.00    +0.015 A 
ATOM      3  C5  UNL     1      21.795  10.866  21.044  0.00  0.00    +0.009 A 
ATOM      4  C6  UNL     1      21.741  12.267  20.986  0.00  0.00    +0.012 A 
ATOM      5  C7  UNL     1      20.486  12.917  21.134  0.00  0.00    +0.126 A 
ATOM      6  C8  UNL     1      19.344  12.149  21.393  0.00  0.00    +0.061 A 
ATOM      7  O3  UNL     1      20.307  14.312  21.062  0.00  0.00    -0.490 OA
ATOM      8  C9  UNL     1      21.218  15.247  20.491  0.00  0.00    +0.248 C 
ATOM      9  C10 UNL     1      22.455  15.436  21.374  0.00  0.00    +0.149 C 
ATOM     10  N1  UNL     1      23.093  14.158  21.711  0.00  0.00    -0.290 N 
ATOM     11  C11 UNL     1      23.902  14.055  22.896  0.00  0.00    +0.247 C 
ATOM     12  O4  UNL     1      25.113  13.711  22.787  0.00  0.00    -0.270 OA
ATOM     13  C23 UNL     1      23.028  13.026  20.783  0.00  0.00    +0.147 C 
ENDROOT
BRANCH  11  14
ATOM     14  C12 UNL     1      23.335  14.305  24.244  0.00  0.00    +0.037 A 
ATOM     15  C13 UNL     1      23.741  15.426  24.986  0.00  0.00    +0.015 A 
ATOM     16  C14 UNL     1      23.236  15.651  26.270  0.00  0.00    +0.024 A 
ATOM     17  C15 UNL     1      22.313  14.760  26.840  0.00  0.00    +0.030 A 
ATOM     18  C21 UNL     1      21.913  13.633  26.103  0.00  0.00    +0.024 A 
ATOM     19  C22 UNL     1      22.423  13.405  24.822  0.00  0.00    +0.015 A 
BRANCH  17  20
ATOM     20  N2  UNL     1      21.793  14.992  28.165  0.00  0.00    -0.330 N 
ATOM     21  C16 UNL     1      20.901  16.133  28.423  0.00  0.00    +0.107 C 
ATOM     22  C17 UNL     1      21.212  16.755  29.791  0.00  0.00    +0.050 C 
ATOM     23  C18 UNL     1      21.280  15.719  30.946  0.00  0.00    +0.118 C 
ATOM     24  C19 UNL     1      21.174  14.263  30.457  0.00  0.00    +0.050 C 
ATOM     25  C20 UNL     1      22.060  14.015  29.232  0.00  0.00    +0.107 C 
BRANCH  23  26
ATOM     26  O5  UNL     1      22.480  15.875  31.662  0.00  0.00    -0.392 OA
ATOM     27  H18 UNL     1      23.212  15.556  31.070  0.00  0.00    +0.210 HD
ENDBRANCH  23  26
ENDBRANCH  17  20
ENDBRANCH  11  14
BRANCH   1  28
ATOM     28  C2  UNL     1      18.190   9.959  21.760  0.00  0.00    +0.339 C 
ATOM     29  O2  UNL     1      17.969   9.538  22.929  0.00  0.00    -0.245 OA
BRANCH  28  31
ATOM     30  C1  UNL     1      17.628   8.948  19.570  0.00  0.00    +0.280 C 
ATOM     31  O1  UNL     1      17.278   9.688  20.733  0.00  0.00    -0.464 OA
ENDBRANCH  28  31
ENDBRANCH   1  28
TORSDOF 5
ENDMDL
MODEL 2
REMARK VINA RESULT:    -6.468      9.502     13.393
REMARK INTER + INTRA:          -9.080
REMARK INTER:                  -8.197
REMARK INTRA:                  -0.883
REMARK UNBOUND:                -0.910
REMARK  Name = /home/qwerty/github/datacon2025hack/step_04_hit_selection/docking/ligands/lig_656.pdb
REMARK  6 active torsions:
REMARK  status: ('A' for Active; 'I' for Inactive)
REMARK    1  A    between atoms: C1_1  and  O1_2
REMARK    2  A    between atoms: O1_2  and  C2_3
REMARK    3  A    between atoms: C2_3  and  C3_5
REMARK    4  A    between atoms: C11_15  and  C12_17
REMARK    5  A    between atoms: C15_20  and  N2_21
REMARK    6  A    between atoms: C18_24  and  O5_25
REMARK                            x       y       z     vdW  Elec       q    Type
REMARK                         _______ _______ _______ _____ _____    ______ ____
ROOT
ATOM      1  C3  UNL     1      21.555   5.505  32.189  0.00  0.00    +0.062 A 
ATOM      2  C4  UNL     1      22.638   4.648  32.426  0.00  0.00    +0.015 A 
ATOM      3  C5  UNL     1      22.553   3.294  32.104  0.00  0.00    +0.009 A 
ATOM      4  C6  UNL     1      21.385   2.761  31.537  0.00  0.00    +0.012 A 
ATOM      5  C7  UNL     1      20.266   3.614  31.332  0.00  0.00    +0.126 A 
ATOM      6  C8  UNL     1      20.375   4.974  31.645  0.00  0.00    +0.061 A 
ATOM      7  O3  UNL     1      19.035   3.183  30.802  0.00  0.00    -0.490 OA
ATOM      8  C9  UNL     1      18.577   1.835  30.727  0.00  0.00    +0.248 C 
ATOM      9  C10 UNL     1      19.333   1.045  29.654  0.00  0.00    +0.149 C 
ATOM     10  N1  UNL     1      20.787   1.141  29.820  0.00  0.00    -0.290 N 
ATOM     11  C11 UNL     1      21.651   0.937  28.687  0.00  0.00    +0.247 C 
ATOM     12  O4  UNL     1      22.514   0.016  28.729  0.00  0.00    -0.270 OA
ATOM     13  C23 UNL     1      21.375   1.303  31.153  0.00  0.00    +0.147 C 
ENDROOT
BRANCH  11  14
ATOM     14  C12 UNL     1      21.574   1.811  27.491  0.00  0.00    +0.037 A 
ATOM     15  C13 UNL     1      22.198   3.069  27.493  0.00  0.00    +0.015 A 
ATOM     16  C14 UNL     1      22.103   3.913  26.382  0.00  0.00    +0.024 A 
ATOM     17  C15 UNL     1      21.383   3.516  25.244  0.00  0.00    +0.030 A 
ATOM     18  C21 UNL     1      20.751   2.261  25.244  0.00  0.00    +0.024 A 
ATOM     19  C22 UNL     1      20.841   1.421  26.357  0.00  0.00    +0.015 A 
BRANCH  17  20
ATOM     20  N2  UNL     1      21.285   4.386  24.098  0.00  0.00    -0.330 N 
ATOM     21  C16 UNL     1      20.220   4.189  23.104  0.00  0.00    +0.107 C 
ATOM     22  C17 UNL     1      20.754   4.449  21.689  0.00  0.00    +0.050 C 
ATOM     23  C18 UNL     1      21.522   5.792  21.550  0.00  0.00    +0.118 C 
ATOM     24  C19 UNL     1      21.723   6.514  22.894  0.00  0.00    +0.050 C 
ATOM     25  C20 UNL     1      22.183   5.547  23.990  0.00  0.00    +0.107 C 
BRANCH  23  26
ATOM     26  O5  UNL     1      22.778   5.568  20.959  0.00  0.00    -0.392 OA
ATOM     27  H18 UNL     1      22.667   4.814  20.322  0.00  0.00    +0.210 HD
ENDBRANCH  23  26
ENDBRANCH  17  20
ENDBRANCH  11  14
BRANCH   1  28
ATOM     28  C2  UNL     1      21.650   6.949  32.503  0.00  0.00    +0.339 C 
ATOM     29  O2  UNL     1      21.149   7.399  33.570  0.00  0.00    -0.245 OA
BRANCH  28  31
ATOM     30  C1  UNL     1      23.657   8.219  31.797  0.00  0.00    +0.280 C 
ATOM     31  O1  UNL     1      22.305   7.813  31.618  0.00  0.00    -0.464 OA
ENDBRANCH  28  31
ENDBRANCH   1  28
TORSDOF 5
ENDMDL
MODEL 3
REMARK VINA RESULT:    -6.393      1.760      2.296
REMARK INTER + INTRA:          -8.985
REMARK INTER:                  -8.047
REMARK INTRA:                  -0.938
REMARK UNBOUND:                -0.910
REMARK  Name = /home/qwerty/github/datacon2025hack/step_04_hit_selection/docking/ligands/lig_656.pdb
REMARK  6 active torsions:
REMARK  status: ('A' for Active; 'I' for Inactive)
REMARK    1  A    between atoms: C1_1  and  O1_2
REMARK    2  A    between atoms: O1_2  and  C2_3
REMARK    3  A    between atoms: C2_3  and  C3_5
REMARK    4  A    between atoms: C11_15  and  C12_17
REMARK    5  A    between atoms: C15_20  and  N2_21
REMARK    6  A    between atoms: C18_24  and  O5_25
REMARK                            x       y       z     vdW  Elec       q    Type
REMARK                         _______ _______ _______ _____ _____    ______ ____
ROOT
ATOM      1  C3  UNL     1      22.169  10.047  20.646  0.00  0.00    +0.062 A 
ATOM      2  C4  UNL     1      23.514  10.306  20.348  0.00  0.00    +0.015 A 
ATOM      3  C5  UNL     1      23.951  11.611  20.128  0.00  0.00    +0.009 A 
ATOM      4  C6  UNL     1      23.057  12.691  20.199  0.00  0.00    +0.012 A 
ATOM      5  C7  UNL     1      21.684  12.435  20.459  0.00  0.00    +0.126 A 
ATOM      6  C8  UNL     1      21.265  11.120  20.695  0.00  0.00    +0.061 A 
ATOM      7  O3  UNL     1      20.694  13.434  20.520  0.00  0.00    -0.490 OA
ATOM      8  C9  UNL     1      20.801  14.756  19.998  0.00  0.00    +0.248 C 
ATOM      9  C10 UNL     1      21.745  15.618  20.842  0.00  0.00    +0.149 C 
ATOM     10  N1  UNL     1      23.051  14.978  21.035  0.00  0.00    -0.290 N 
ATOM     11  C11 UNL     1      23.860  15.334  22.170  0.00  0.00    +0.247 C 
ATOM     12  O4  UNL     1      25.017  15.803  21.979  0.00  0.00    -0.270 OA
ATOM     13  C23 UNL     1      23.601  14.085  20.011  0.00  0.00    +0.147 C 
ENDROOT
BRANCH  11  14
ATOM     14  C12 UNL     1      23.379  15.125  23.558  0.00  0.00    +0.037 A 
ATOM     15  C13 UNL     1      23.588  16.110  24.536  0.00  0.00    +0.015 A 
ATOM     16  C14 UNL     1      23.168  15.907  25.854  0.00  0.00    +0.024 A 
ATOM     17  C15 UNL     1      22.527  14.713  26.222  0.00  0.00    +0.030 A 
ATOM     18  C21 UNL     1      22.325  13.723  25.246  0.00  0.00    +0.024 A 
ATOM     19  C22 UNL     1      22.751  13.923  23.931  0.00  0.00    +0.015 A 
BRANCH  17  20
ATOM     20  N2  UNL     1      22.093  14.504  27.581  0.00  0.00    -0.330 N 
ATOM     21  C16 UNL     1      20.734  14.884  27.994  0.00  0.00    +0.107 C 
ATOM     22  C17 UNL     1      20.751  15.473  29.411  0.00  0.00    +0.050 C 
ATOM     23  C18 UNL     1      21.514  14.596  30.442  0.00  0.00    +0.118 C 
ATOM     24  C19 UNL     1      22.228  13.394  29.799  0.00  0.00    +0.050 C 
ATOM     25  C20 UNL     1      22.975  13.798  28.524  0.00  0.00    +0.107 C 
BRANCH  23  26
ATOM     26  O5  UNL     1      22.461  15.376  31.128  0.00  0.00    -0.392 OA
ATOM     27  H18 UNL     1      22.020  16.240  31.345  0.00  0.00    +0.210 HD
ENDBRANCH  23  26
ENDBRANCH  17  20
ENDBRANCH  11  14
BRANCH   1  28
ATOM     28  C2  UNL     1      21.705   8.666  20.911  0.00  0.00    +0.339 C 
ATOM     29  O2  UNL     1      20.531   8.322  20.600  0.00  0.00    -0.245 OA
BRANCH  28  31
ATOM     30  C1  UNL     1      22.927   6.511  20.872  0.00  0.00    +0.280 C 
ATOM     31  O1  UNL     1      22.575   7.739  21.497  0.00  0.00    -0.464 OA
ENDBRANCH  28  31
ENDBRANCH   1  28
TORSDOF 5
ENDMDL
MODEL 4
REMARK VINA RESULT:    -6.376     12.966     14.257
REMARK INTER + INTRA:          -8.964
REMARK INTER:                  -7.988
REMARK INTRA:                  -0.975
REMARK UNBOUND:                -0.910
REMARK  Name = /home/qwerty/github/datacon2025hack/step_04_hit_selection/docking/ligands/lig_656.pdb
REMARK  6 active torsions:
REMARK  status: ('A' for Active; 'I' for Inactive)
REMARK    1  A    between atoms: C1_1  and  O1_2
REMARK    2  A    between atoms: O1_2  and  C2_3
REMARK    3  A    between atoms: C2_3  and  C3_5
REMARK    4  A    between atoms: C11_15  and  C12_17
REMARK    5  A    between atoms: C15_20  and  N2_21
REMARK    6  A    between atoms: C18_24  and  O5_25
REMARK                            x       y       z     vdW  Elec       q    Type
REMARK                         _______ _______ _______ _____ _____    ______ ____
ROOT
ATOM      1  C3  UNL     1      12.169   4.289  21.889  0.00  0.00    +0.062 A 
ATOM      2  C4  UNL     1      12.644   5.383  21.152  0.00  0.00    +0.015 A 
ATOM      3  C5  UNL     1      11.753   6.266  20.544  0.00  0.00    +0.009 A 
ATOM      4  C6  UNL     1      10.366   6.081  20.656  0.00  0.00    +0.012 A 
ATOM      5  C7  UNL     1       9.876   4.952  21.366  0.00  0.00    +0.126 A 
ATOM      6  C8  UNL     1      10.784   4.084  21.985  0.00  0.00    +0.061 A 
ATOM      7  O3  UNL     1       8.509   4.648  21.515  0.00  0.00    -0.490 OA
ATOM      8  C9  UNL     1       7.442   5.164  20.723  0.00  0.00    +0.248 C 
ATOM      9  C10 UNL     1       7.166   6.636  21.044  0.00  0.00    +0.149 C 
ATOM     10  N1  UNL     1       8.380   7.456  20.962  0.00  0.00    -0.290 N 
ATOM     11  C11 UNL     1       8.461   8.688  21.700  0.00  0.00    +0.247 C 
ATOM     12  O4  UNL     1       8.656   9.768  21.075  0.00  0.00    -0.270 OA
ATOM     13  C23 UNL     1       9.454   7.104  20.028  0.00  0.00    +0.147 C 
ENDROOT
BRANCH  11  14
ATOM     14  C12 UNL     1       8.360   8.710  23.180  0.00  0.00    +0.037 A 
ATOM     15  C13 UNL     1       7.674   9.751  23.827  0.00  0.00    +0.015 A 
ATOM     16  C14 UNL     1       7.602   9.798  25.222  0.00  0.00    +0.024 A 
ATOM     17  C15 UNL     1       8.214   8.802  26.002  0.00  0.00    +0.030 A 
ATOM     18  C21 UNL     1       8.908   7.765  25.356  0.00  0.00    +0.024 A 
ATOM     19  C22 UNL     1       8.985   7.723  23.961  0.00  0.00    +0.015 A 
BRANCH  17  20
ATOM     20  N2  UNL     1       8.140   8.850  27.441  0.00  0.00    -0.330 N 
ATOM     21  C16 UNL     1       8.448   7.655  28.241  0.00  0.00    +0.107 C 
ATOM     22  C17 UNL     1       7.498   7.558  29.443  0.00  0.00    +0.050 C 
ATOM     23  C18 UNL     1       7.395   8.872  30.264  0.00  0.00    +0.118 C 
ATOM     24  C19 UNL     1       8.147  10.048  29.617  0.00  0.00    +0.050 C 
ATOM     25  C20 UNL     1       7.873  10.132  28.112  0.00  0.00    +0.107 C 
BRANCH  23  26
ATOM     26  O5  UNL     1       6.046   9.229  30.433  0.00  0.00    -0.392 OA
ATOM     27  H18 UNL     1       5.540   8.801  29.692  0.00  0.00    +0.210 HD
ENDBRANCH  23  26
ENDBRANCH  17  20
ENDBRANCH  11  14
BRANCH   1  28
ATOM     28  C2  UNL     1      13.110   3.365  22.561  0.00  0.00    +0.339 C 
ATOM     29  O2  UNL     1      13.078   3.230  23.816  0.00  0.00    -0.245 OA
BRANCH  28  31
ATOM     30  C1  UNL     1      13.665   1.480  21.052  0.00  0.00    +0.280 C 
ATOM     31  O1  UNL     1      14.030   2.633  21.801  0.00  0.00    -0.464 OA
ENDBRANCH  28  31
ENDBRANCH   1  28
TORSDOF 5
ENDMDL
MODEL 5
REMARK VINA RESULT:    -6.372     13.426     14.723
REMARK INTER + INTRA:          -8.959
REMARK INTER:                  -7.958
REMARK INTRA:                  -1.000
REMARK UNBOUND:                -0.910
REMARK  Name = /home/qwerty/github/datacon2025hack/step_04_hit_selection/docking/ligands/lig_656.pdb
REMARK  6 active torsions:
REMARK  status: ('A' for Active; 'I' for Inactive)
REMARK    1  A    between atoms: C1_1  and  O1_2
REMARK    2  A    between atoms: O1_2  and  C2_3
REMARK    3  A    between atoms: C2_3  and  C3_5
REMARK    4  A    between atoms: C11_15  and  C12_17
REMARK    5  A    between atoms: C15_20  and  N2_21
REMARK    6  A    between atoms: C18_24  and  O5_25
REMARK                            x       y       z     vdW  Elec       q    Type
REMARK                         _______ _______ _______ _____ _____    ______ ____
ROOT
ATOM      1  C3  UNL     1       9.762   2.593  22.582  0.00  0.00    +0.062 A 
ATOM      2  C4  UNL     1      10.884   3.115  21.924  0.00  0.00    +0.015 A 
ATOM      3  C5  UNL     1      10.790   4.302  21.198  0.00  0.00    +0.009 A 
ATOM      4  C6  UNL     1       9.574   4.997  21.109  0.00  0.00    +0.012 A 
ATOM      5  C7  UNL     1       8.421   4.454  21.738  0.00  0.00    +0.126 A 
ATOM      6  C8  UNL     1       8.537   3.271  22.478  0.00  0.00    +0.061 A 
ATOM      7  O3  UNL     1       7.145   5.046  21.689  0.00  0.00    -0.490 OA
ATOM      8  C9  UNL     1       6.710   6.031  20.755  0.00  0.00    +0.248 C 
ATOM      9  C10 UNL     1       7.349   7.394  21.038  0.00  0.00    +0.149 C 
ATOM     10  N1  UNL     1       8.810   7.309  21.133  0.00  0.00    -0.290 N 
ATOM     11  C11 UNL     1       9.536   8.302  21.879  0.00  0.00    +0.247 C 
ATOM     12  O4  UNL     1      10.417   8.991  21.292  0.00  0.00    -0.270 OA
ATOM     13  C23 UNL     1       9.550   6.306  20.361  0.00  0.00    +0.147 C 
ENDROOT
BRANCH  11  14
ATOM     14  C12 UNL     1       9.299   8.505  23.330  0.00  0.00    +0.037 A 
ATOM     15  C13 UNL     1       9.568   7.471  24.242  0.00  0.00    +0.015 A 
ATOM     16  C14 UNL     1       9.316   7.642  25.606  0.00  0.00    +0.024 A 
ATOM     17  C15 UNL     1       8.790   8.851  26.089  0.00  0.00    +0.030 A 
ATOM     18  C21 UNL     1       8.513   9.883  25.176  0.00  0.00    +0.024 A 
ATOM     19  C22 UNL     1       8.758   9.710  23.812  0.00  0.00    +0.015 A 
BRANCH  17  20
ATOM     20  N2  UNL     1       8.531   9.027  27.496  0.00  0.00    -0.330 N 
ATOM     21  C16 UNL     1       8.939   7.996  28.462  0.00  0.00    +0.107 C 
ATOM     22  C17 UNL     1       7.879   7.842  29.560  0.00  0.00    +0.050 C 
ATOM     23  C18 UNL     1       7.448   9.189  30.203  0.00  0.00    +0.118 C 
ATOM     24  C19 UNL     1       8.059  10.415  29.501  0.00  0.00    +0.050 C 
ATOM     25  C20 UNL     1       7.964  10.297  27.977  0.00  0.00    +0.107 C 
BRANCH  23  26
ATOM     26  O5  UNL     1       6.047   9.304  30.186  0.00  0.00    -0.392 OA
ATOM     27  H18 UNL     1       5.758   9.171  29.244  0.00  0.00    +0.210 HD
ENDBRANCH  23  26
ENDBRANCH  17  20
ENDBRANCH  11  14
BRANCH   1  28
ATOM     28  C2  UNL     1       9.864   1.349  23.379  0.00  0.00    +0.339 C 
ATOM     29  O2  UNL     1       9.901   0.228  22.799  0.00  0.00    -0.245 OA
BRANCH  28  31
ATOM     30  C1  UNL     1       8.815   1.131  25.612  0.00  0.00    +0.280 C 
ATOM     31  O1  UNL     1       9.928   1.419  24.775  0.00  0.00    -0.464 OA
ENDBRANCH  28  31
ENDBRANCH   1  28
TORSDOF 5
ENDMDL
MODEL 6
REMARK VINA RESULT:    -6.189      9.878     11.855
REMARK INTER + INTRA:          -8.727
REMARK INTER:                  -7.772
REMARK INTRA:                  -0.954
REMARK UNBOUND:                -0.910
REMARK  Name = /home/qwerty/github/datacon2025hack/step_04_hit_selection/docking/ligands/lig_656.pdb
REMARK  6 active torsions:
REMARK  status: ('A' for Active; 'I' for Inactive)
REMARK    1  A    between atoms: C1_1  and  O1_2
REMARK    2  A    between atoms: O1_2  and  C2_3
REMARK    3  A    between atoms: C2_3  and  C3_5
REMARK    4  A    between atoms: C11_15  and  C12_17
REMARK    5  A    between atoms: C15_20  and  N2_21
REMARK    6  A    between atoms: C18_24  and  O5_25
REMARK                            x       y       z     vdW  Elec       q    Type
REMARK                         _______ _______ _______ _____ _____    ______ ____
ROOT
ATOM      1  C3  UNL     1      21.075   4.303  25.889  0.00  0.00    +0.062 A 
ATOM      2  C4  UNL     1      19.879   3.579  25.979  0.00  0.00    +0.015 A 
ATOM      3  C5  UNL     1      19.810   2.419  26.750  0.00  0.00    +0.009 A 
ATOM      4  C6  UNL     1      20.934   1.952  27.450  0.00  0.00    +0.012 A 
ATOM      5  C7  UNL     1      22.163   2.656  27.331  0.00  0.00    +0.126 A 
ATOM      6  C8  UNL     1      22.209   3.829  26.567  0.00  0.00    +0.061 A 
ATOM      7  O3  UNL     1      23.359   2.263  27.960  0.00  0.00    -0.490 OA
ATOM      8  C9  UNL     1      23.645   0.971  28.491  0.00  0.00    +0.248 C 
ATOM      9  C10 UNL     1      22.863   0.710  29.782  0.00  0.00    +0.149 C 
ATOM     10  N1  UNL     1      21.425   0.947  29.613  0.00  0.00    -0.290 N 
ATOM     11  C11 UNL     1      20.615   1.266  30.758  0.00  0.00    +0.247 C 
ATOM     12  O4  UNL     1      19.640   0.518  31.050  0.00  0.00    -0.270 OA
ATOM     13  C23 UNL     1      20.781   0.726  28.315  0.00  0.00    +0.147 C 
ENDROOT
BRANCH  11  14
ATOM     14  C12 UNL     1      20.876   2.476  31.577  0.00  0.00    +0.037 A 
ATOM     15  C13 UNL     1      20.954   3.739  30.967  0.00  0.00    +0.015 A 
ATOM     16  C14 UNL     1      21.233   4.879  31.726  0.00  0.00    +0.024 A 
ATOM     17  C15 UNL     1      21.438   4.782  33.112  0.00  0.00    +0.030 A 
ATOM     18  C21 UNL     1      21.368   3.518  33.721  0.00  0.00    +0.024 A 
ATOM     19  C22 UNL     1      21.097   2.377  32.961  0.00  0.00    +0.015 A 
BRANCH  17  20
ATOM     20  N2  UNL     1      21.725   5.958  33.894  0.00  0.00    -0.330 N 
ATOM     21  C16 UNL     1      22.491   7.070  33.310  0.00  0.00    +0.107 C 
ATOM     22  C17 UNL     1      23.444   7.669  34.354  0.00  0.00    +0.050 C 
ATOM     23  C18 UNL     1      22.756   8.003  35.706  0.00  0.00    +0.118 C 
ATOM     24  C19 UNL     1      21.296   7.522  35.776  0.00  0.00    +0.050 C 
ATOM     25  C20 UNL     1      21.147   6.094  35.240  0.00  0.00    +0.107 C 
BRANCH  23  26
ATOM     26  O5  UNL     1      23.478   7.427  36.767  0.00  0.00    -0.392 OA
ATOM     27  H18 UNL     1      22.921   6.687  37.127  0.00  0.00    +0.210 HD
ENDBRANCH  23  26
ENDBRANCH  17  20
ENDBRANCH  11  14
BRANCH   1  28
ATOM     28  C2  UNL     1      21.146   5.552  25.096  0.00  0.00    +0.339 C 
ATOM     29  O2  UNL     1      20.344   6.497  25.333  0.00  0.00    -0.245 OA
BRANCH  28  31
ATOM     30  C1  UNL     1      21.778   5.721  22.707  0.00  0.00    +0.280 C 
ATOM     31  O1  UNL     1      22.109   5.685  24.090  0.00  0.00    -0.464 OA
ENDBRANCH  28  31
ENDBRANCH   1  28
TORSDOF 5
ENDMDL
MODEL 7
REMARK VINA RESULT:    -6.185     11.810     13.457
REMARK INTER + INTRA:          -8.722
REMARK INTER:                  -7.814
REMARK INTRA:                  -0.908
REMARK UNBOUND:                -0.910
REMARK  Name = /home/qwerty/github/datacon2025hack/step_04_hit_selection/docking/ligands/lig_656.pdb
REMARK  6 active torsions:
REMARK  status: ('A' for Active; 'I' for Inactive)
REMARK    1  A    between atoms: C1_1  and  O1_2
REMARK    2  A    between atoms: O1_2  and  C2_3
REMARK    3  A    between atoms: C2_3  and  C3_5
REMARK    4  A    between atoms: C11_15  and  C12_17
REMARK    5  A    between atoms: C15_20  and  N2_21
REMARK    6  A    between atoms: C18_24  and  O5_25
REMARK                            x       y       z     vdW  Elec       q    Type
REMARK                         _______ _______ _______ _____ _____    ______ ____
ROOT
ATOM      1  C3  UNL     1      17.568   0.893  25.686  0.00  0.00    +0.062 A 
ATOM      2  C4  UNL     1      18.603  -0.027  25.468  0.00  0.00    +0.015 A 
ATOM      3  C5  UNL     1      19.920   0.300  25.787  0.00  0.00    +0.009 A 
ATOM      4  C6  UNL     1      20.239   1.554  26.332  0.00  0.00    +0.012 A 
ATOM      5  C7  UNL     1      19.203   2.509  26.517  0.00  0.00    +0.126 A 
ATOM      6  C8  UNL     1      17.883   2.157  26.208  0.00  0.00    +0.061 A 
ATOM      7  O3  UNL     1      19.410   3.806  27.024  0.00  0.00    -0.490 OA
ATOM      8  C9  UNL     1      20.656   4.495  27.089  0.00  0.00    +0.248 C 
ATOM      9  C10 UNL     1      21.564   3.909  28.174  0.00  0.00    +0.149 C 
ATOM     10  N1  UNL     1      21.726   2.458  28.034  0.00  0.00    -0.290 N 
ATOM     11  C11 UNL     1      22.076   1.665  29.183  0.00  0.00    +0.247 C 
ATOM     12  O4  UNL     1      23.135   0.976  29.155  0.00  0.00    -0.270 OA
ATOM     13  C23 UNL     1      21.672   1.826  26.713  0.00  0.00    +0.147 C 
ENDROOT
BRANCH  11  14
ATOM     14  C12 UNL     1      21.201   1.608  30.379  0.00  0.00    +0.037 A 
ATOM     15  C13 UNL     1      19.923   1.031  30.294  0.00  0.00    +0.015 A 
ATOM     16  C14 UNL     1      19.079   1.003  31.407  0.00  0.00    +0.024 A 
ATOM     17  C15 UNL     1      19.494   1.552  32.632  0.00  0.00    +0.030 A 
ATOM     18  C21 UNL     1      20.768   2.137  32.715  0.00  0.00    +0.024 A 
ATOM     19  C22 UNL     1      21.609   2.171  31.600  0.00  0.00    +0.015 A 
BRANCH  17  20
ATOM     20  N2  UNL     1      18.622   1.523  33.780  0.00  0.00    -0.330 N 
ATOM     21  C16 UNL     1      18.628   2.633  34.745  0.00  0.00    +0.107 C 
ATOM     22  C17 UNL     1      18.471   2.099  36.175  0.00  0.00    +0.050 C 
ATOM     23  C18 UNL     1      17.287   1.107  36.344  0.00  0.00    +0.118 C 
ATOM     24  C19 UNL     1      16.610   0.745  35.010  0.00  0.00    +0.050 C 
ATOM     25  C20 UNL     1      17.641   0.436  33.920  0.00  0.00    +0.107 C 
BRANCH  23  26
ATOM     26  O5  UNL     1      17.733  -0.073  36.965  0.00  0.00    -0.392 OA
ATOM     27  H18 UNL     1      16.937  -0.498  37.382  0.00  0.00    +0.210 HD
ENDBRANCH  23  26
ENDBRANCH  17  20
ENDBRANCH  11  14
BRANCH   1  28
ATOM     28  C2  UNL     1      16.164   0.540  25.377  0.00  0.00    +0.339 C 
ATOM     29  O2  UNL     1      15.452  -0.040  26.243  0.00  0.00    -0.245 OA
BRANCH  28  31
ATOM     30  C1  UNL     1      14.318   0.462  23.726  0.00  0.00    +0.280 C 
ATOM     31  O1  UNL     1      15.625   0.858  24.125  0.00  0.00    -0.464 OA
ENDBRANCH  28  31
ENDBRANCH   1  28
TORSDOF 5
ENDMDL
MODEL 8
REMARK VINA RESULT:    -6.058     10.872     13.350
REMARK INTER + INTRA:          -8.562
REMARK INTER:                  -7.698
REMARK INTRA:                  -0.864
REMARK UNBOUND:                -0.910
REMARK  Name = /home/qwerty/github/datacon2025hack/step_04_hit_selection/docking/ligands/lig_656.pdb
REMARK  6 active torsions:
REMARK  status: ('A' for Active; 'I' for Inactive)
REMARK    1  A    between atoms: C1_1  and  O1_2
REMARK    2  A    between atoms: O1_2  and  C2_3
REMARK    3  A    between atoms: C2_3  and  C3_5
REMARK    4  A    between atoms: C11_15  and  C12_17
REMARK    5  A    between atoms: C15_20  and  N2_21
REMARK    6  A    between atoms: C18_24  and  O5_25
REMARK                            x       y       z     vdW  Elec       q    Type
REMARK                         _______ _______ _______ _____ _____    ______ ____
ROOT
ATOM      1  C3  UNL     1      12.254  13.215  31.043  0.00  0.00    +0.062 A 
ATOM      2  C4  UNL     1      12.407  14.555  31.421  0.00  0.00    +0.015 A 
ATOM      3  C5  UNL     1      12.310  14.928  32.761  0.00  0.00    +0.009 A 
ATOM      4  C6  UNL     1      12.056  13.971  33.758  0.00  0.00    +0.012 A 
ATOM      5  C7  UNL     1      11.857  12.616  33.379  0.00  0.00    +0.126 A 
ATOM      6  C8  UNL     1      11.976  12.257  32.031  0.00  0.00    +0.061 A 
ATOM      7  O3  UNL     1      11.566  11.580  34.286  0.00  0.00    -0.490 OA
ATOM      8  C9  UNL     1      11.075  11.739  35.615  0.00  0.00    +0.248 C 
ATOM      9  C10 UNL     1      12.160  12.275  36.553  0.00  0.00    +0.149 C 
ATOM     10  N1  UNL     1      12.787  13.495  36.031  0.00  0.00    -0.290 N 
ATOM     11  C11 UNL     1      14.116  13.851  36.452  0.00  0.00    +0.247 C 
ATOM     12  O4  UNL     1      14.303  14.962  37.023  0.00  0.00    -0.270 OA
ATOM     13  C23 UNL     1      12.023  14.426  35.195  0.00  0.00    +0.147 C 
ENDROOT
BRANCH  11  14
ATOM     14  C12 UNL     1      15.274  12.960  36.194  0.00  0.00    +0.037 A 
ATOM     15  C13 UNL     1      15.832  12.205  37.239  0.00  0.00    +0.015 A 
ATOM     16  C14 UNL     1      16.943  11.388  37.012  0.00  0.00    +0.024 A 
ATOM     17  C15 UNL     1      17.520  11.307  35.734  0.00  0.00    +0.030 A 
ATOM     18  C21 UNL     1      16.968  12.069  34.691  0.00  0.00    +0.024 A 
ATOM     19  C22 UNL     1      15.862  12.891  34.919  0.00  0.00    +0.015 A 
BRANCH  17  20
ATOM     20  N2  UNL     1      18.667  10.465  35.500  0.00  0.00    -0.330 N 
ATOM     21  C16 UNL     1      18.498   9.016  35.311  0.00  0.00    +0.107 C 
ATOM     22  C17 UNL     1      19.640   8.251  35.993  0.00  0.00    +0.050 C 
ATOM     23  C18 UNL     1      21.052   8.786  35.629  0.00  0.00    +0.118 C 
ATOM     24  C19 UNL     1      21.011  10.070  34.781  0.00  0.00    +0.050 C 
ATOM     25  C20 UNL     1      19.994  11.075  35.331  0.00  0.00    +0.107 C 
BRANCH  23  26
ATOM     26  O5  UNL     1      21.788   9.035  36.801  0.00  0.00    -0.392 OA
ATOM     27  H18 UNL     1      21.323   9.769  37.283  0.00  0.00    +0.210 HD
ENDBRANCH  23  26
ENDBRANCH  17  20
ENDBRANCH  11  14
BRANCH   1  28
ATOM     28  C2  UNL     1      12.385  12.810  29.624  0.00  0.00    +0.339 C 
ATOM     29  O2  UNL     1      13.488  12.377  29.190  0.00  0.00    -0.245 OA
BRANCH  28  31
ATOM     30  C1  UNL     1      11.009  14.051  27.981  0.00  0.00    +0.280 C 
ATOM     31  O1  UNL     1      11.281  12.898  28.769  0.00  0.00    -0.464 OA
ENDBRANCH  28  31
ENDBRANCH   1  28
TORSDOF 5
ENDMDL
MODEL 9
REMARK VINA RESULT:    -6.038     11.611     15.363
REMARK INTER + INTRA:          -8.536
REMARK INTER:                  -7.574
REMARK INTRA:                  -0.962
REMARK UNBOUND:                -0.910
REMARK  Name = /home/qwerty/github/datacon2025hack/step_04_hit_selection/docking/ligands/lig_656.pdb
REMARK  6 active torsions:
REMARK  status: ('A' for Active; 'I' for Inactive)
REMARK    1  A    between atoms: C1_1  and  O1_2
REMARK    2  A    between atoms: O1_2  and  C2_3
REMARK    3  A    between atoms: C2_3  and  C3_5
REMARK    4  A    between atoms: C11_15  and  C12_17
REMARK    5  A    between atoms: C15_20  and  N2_21
REMARK    6  A    between atoms: C18_24  and  O5_25
REMARK                            x       y       z     vdW  Elec       q    Type
REMARK                         _______ _______ _______ _____ _____    ______ ____
ROOT
ATOM      1  C3  UNL     1      18.928   1.303  32.370  0.00  0.00    +0.062 A 
ATOM      2  C4  UNL     1      19.220   2.673  32.311  0.00  0.00    +0.015 A 
ATOM      3  C5  UNL     1      20.230   3.146  31.474  0.00  0.00    +0.009 A 
ATOM      4  C6  UNL     1      20.975   2.263  30.676  0.00  0.00    +0.012 A 
ATOM      5  C7  UNL     1      20.715   0.869  30.760  0.00  0.00    +0.126 A 
ATOM      6  C8  UNL     1      19.685   0.413  31.593  0.00  0.00    +0.061 A 
ATOM      7  O3  UNL     1      21.420  -0.109  30.033  0.00  0.00    -0.490 OA
ATOM      8  C9  UNL     1      22.687   0.062  29.404  0.00  0.00    +0.248 C 
ATOM      9  C10 UNL     1      22.579   0.937  28.152  0.00  0.00    +0.149 C 
ATOM     10  N1  UNL     1      21.907   2.212  28.427  0.00  0.00    -0.290 N 
ATOM     11  C11 UNL     1      21.253   2.919  27.358  0.00  0.00    +0.247 C 
ATOM     12  O4  UNL     1      21.623   4.095  27.082  0.00  0.00    -0.270 OA
ATOM     13  C23 UNL     1      22.013   2.840  29.747  0.00  0.00    +0.147 C 
ENDROOT
BRANCH  11  14
ATOM     14  C12 UNL     1      20.129   2.312  26.603  0.00  0.00    +0.037 A 
ATOM     15  C13 UNL     1      20.125   2.337  25.199  0.00  0.00    +0.015 A 
ATOM     16  C14 UNL     1      19.055   1.797  24.480  0.00  0.00    +0.024 A 
ATOM     17  C15 UNL     1      17.965   1.218  25.150  0.00  0.00    +0.030 A 
ATOM     18  C21 UNL     1      17.964   1.201  26.555  0.00  0.00    +0.024 A 
ATOM     19  C22 UNL     1      19.031   1.747  27.273  0.00  0.00    +0.015 A 
BRANCH  17  20
ATOM     20  N2  UNL     1      16.861   0.661  24.408  0.00  0.00    -0.330 N 
ATOM     21  C16 UNL     1      15.867  -0.189  25.081  0.00  0.00    +0.107 C 
ATOM     22  C17 UNL     1      15.441  -1.342  24.163  0.00  0.00    +0.050 C 
ATOM     23  C18 UNL     1      15.033  -0.884  22.735  0.00  0.00    +0.118 C 
ATOM     24  C19 UNL     1      15.287   0.614  22.487  0.00  0.00    +0.050 C 
ATOM     25  C20 UNL     1      16.665   1.044  23.001  0.00  0.00    +0.107 C 
BRANCH  23  26
ATOM     26  O5  UNL     1      15.732  -1.632  21.772  0.00  0.00    -0.392 OA
ATOM     27  H18 UNL     1      16.266  -0.987  21.237  0.00  0.00    +0.210 HD
ENDBRANCH  23  26
ENDBRANCH  17  20
ENDBRANCH  11  14
BRANCH   1  28
ATOM     28  C2  UNL     1      17.837   0.800  33.235  0.00  0.00    +0.339 C 
ATOM     29  O2  UNL     1      17.652  -0.443  33.361  0.00  0.00    -0.245 OA
BRANCH  28  31
ATOM     30  C1  UNL     1      16.557   1.475  35.246  0.00  0.00    +0.280 C 
ATOM     31  O1  UNL     1      17.016   1.704  33.919  0.00  0.00    -0.464 OA
ENDBRANCH  28  31
ENDBRANCH   1  28
TORSDOF 5
ENDMDL
