MODEL 1
REMARK VINA RESULT:    -6.670      0.000      0.000
REMARK INTER + INTRA:          -8.723
REMARK INTER:                  -8.230
REMARK INTRA:                  -0.493
REMARK UNBOUND:                -0.493
REMARK  Name = /home/qwerty/github/datacon2025hack/step_04_hit_selection/docking/ligands/lig_276.pdb
REMARK  4 active torsions:
REMARK  status: ('A' for Active; 'I' for Inactive)
REMARK    1  A    between atoms: C1_2  and  C13_20
REMARK    2  A    between atoms: N1_3  and  C2_4
REMARK    3  A    between atoms: C2_4  and  C3_5
REMARK    4  A    between atoms: C6_9  and  C7_11
REMARK                            x       y       z     vdW  Elec       q    Type
REMARK                         _______ _______ _______ _____ _____    ______ ____
ROOT
ATOM      1  C3  UNL     1      20.576   2.558  32.238  0.00  0.00    +0.095 C 
ATOM      2  C4  UNL     1      20.583   2.204  33.695  0.00  0.00    +0.043 C 
ATOM      3  C5  UNL     1      21.518   3.365  33.789  0.00  0.00    +0.110 C 
ATOM      4  N2  UNL     1      21.500   3.703  32.351  0.00  0.00    -0.293 N 
ATOM      5  C6  UNL     1      21.950   4.752  31.487  0.00  0.00    +0.248 C 
ATOM      6  O2  UNL     1      21.500   4.808  30.311  0.00  0.00    -0.270 OA
ENDROOT
BRANCH   5   7
ATOM      7  C7  UNL     1      22.890   5.791  31.954  0.00  0.00    +0.056 A 
ATOM      8  C8  UNL     1      23.791   5.506  33.019  0.00  0.00    +0.126 A 
ATOM      9  N3  UNL     1      24.665   6.455  33.473  0.00  0.00    -0.235 NA
ATOM     10  C9  UNL     1      24.654   7.679  32.893  0.00  0.00    +0.156 A 
ATOM     11  N4  UNL     1      25.418   8.732  33.210  0.00  0.00    -0.260 N 
ATOM     12  N5  UNL     1      25.072   9.741  32.416  0.00  0.00    -0.180 NA
ATOM     13  C10 UNL     1      24.079   9.321  31.591  0.00  0.00    +0.144 A 
ATOM     14  C11 UNL     1      23.804   8.003  31.887  0.00  0.00    +0.039 A 
ATOM     15  C12 UNL     1      22.892   7.085  31.383  0.00  0.00    +0.027 A 
ATOM     16  H10 UNL     1      26.157   8.777  33.947  0.00  0.00    +0.191 HD
ENDBRANCH   5   7
BRANCH   1  17
ATOM     17  C2  UNL     1      21.156   1.470  31.322  0.00  0.00    +0.127 C 
BRANCH  17  20
ATOM     18  O1  UNL     1      23.164   1.038  29.319  0.00  0.00    -0.268 OA
ATOM     19  C1  UNL     1      22.096   1.601  28.958  0.00  0.00    +0.266 C 
ATOM     20  N1  UNL     1      21.071   1.889  29.924  0.00  0.00    -0.308 N 
ATOM     21  H1  UNL     1      20.185   2.348  29.617  0.00  0.00    +0.149 HD
BRANCH  19  22
ATOM     22  C13 UNL     1      21.927   1.958  27.538  0.00  0.00    +0.168 A 
ATOM     23  C14 UNL     1      22.596   2.943  26.837  0.00  0.00    +0.077 A 
ATOM     24  C15 UNL     1      22.068   2.862  25.568  0.00  0.00    +0.231 A 
ATOM     25  O3  UNL     1      21.170   1.905  25.550  0.00  0.00    -0.362 OA
ATOM     26  N6  UNL     1      21.057   1.340  26.717  0.00  0.00    -0.074 NA
ENDBRANCH  19  22
ENDBRANCH  17  20
ENDBRANCH   1  17
TORSDOF 4
ENDMDL
MODEL 2
REMARK VINA RESULT:    -6.305      2.875      3.961
REMARK INTER + INTRA:          -8.273
REMARK INTER:                  -7.600
REMARK INTRA:                  -0.673
REMARK UNBOUND:                -0.493
REMARK  Name = /home/qwerty/github/datacon2025hack/step_04_hit_selection/docking/ligands/lig_276.pdb
REMARK  4 active torsions:
REMARK  status: ('A' for Active; 'I' for Inactive)
REMARK    1  A    between atoms: C1_2  and  C13_20
REMARK    2  A    between atoms: N1_3  and  C2_4
REMARK    3  A    between atoms: C2_4  and  C3_5
REMARK    4  A    between atoms: C6_9  and  C7_11
REMARK                            x       y       z     vdW  Elec       q    Type
REMARK                         _______ _______ _______ _____ _____    ______ ____
ROOT
ATOM      1  C3  UNL     1      21.424   4.615  30.009  0.00  0.00    +0.095 C 
ATOM      2  C4  UNL     1      20.499   5.704  29.558  0.00  0.00    +0.043 C 
ATOM      3  C5  UNL     1      20.717   6.219  30.942  0.00  0.00    +0.110 C 
ATOM      4  N2  UNL     1      21.629   5.140  31.373  0.00  0.00    -0.293 N 
ATOM      5  C6  UNL     1      22.494   4.836  32.473  0.00  0.00    +0.248 C 
ATOM      6  O2  UNL     1      23.335   3.906  32.349  0.00  0.00    -0.270 OA
ENDROOT
BRANCH   5   7
ATOM      7  C7  UNL     1      22.452   5.615  33.728  0.00  0.00    +0.056 A 
ATOM      8  C8  UNL     1      23.638   6.230  34.221  0.00  0.00    +0.126 A 
ATOM      9  N3  UNL     1      23.625   6.950  35.384  0.00  0.00    -0.235 NA
ATOM     10  C9  UNL     1      22.459   7.062  36.065  0.00  0.00    +0.156 A 
ATOM     11  N4  UNL     1      22.255   7.708  37.221  0.00  0.00    -0.260 N 
ATOM     12  N5  UNL     1      20.978   7.552  37.555  0.00  0.00    -0.180 NA
ATOM     13  C10 UNL     1      20.370   6.800  36.602  0.00  0.00    +0.144 A 
ATOM     14  C11 UNL     1      21.307   6.482  35.643  0.00  0.00    +0.039 A 
ATOM     15  C12 UNL     1      21.256   5.738  34.473  0.00  0.00    +0.027 A 
ATOM     16  H10 UNL     1      22.959   8.241  37.779  0.00  0.00    +0.191 HD
ENDBRANCH   5   7
BRANCH   1  17
ATOM     17  C2  UNL     1      20.784   3.219  30.046  0.00  0.00    +0.127 C 
BRANCH  17  20
ATOM     18  O1  UNL     1      20.996   1.073  28.154  0.00  0.00    -0.268 OA
ATOM     19  C1  UNL     1      21.895   1.163  29.032  0.00  0.00    +0.266 C 
ATOM     20  N1  UNL     1      21.820   2.188  30.038  0.00  0.00    -0.308 N 
ATOM     21  H1  UNL     1      22.573   2.263  30.757  0.00  0.00    +0.149 HD
BRANCH  19  22
ATOM     22  C13 UNL     1      23.011   0.200  29.006  0.00  0.00    +0.168 A 
ATOM     23  C14 UNL     1      22.933  -1.167  28.825  0.00  0.00    +0.077 A 
ATOM     24  C15 UNL     1      24.244  -1.584  28.889  0.00  0.00    +0.231 A 
ATOM     25  O3  UNL     1      25.006  -0.534  29.089  0.00  0.00    -0.362 OA
ATOM     26  N6  UNL     1      24.301   0.556  29.166  0.00  0.00    -0.074 NA
ENDBRANCH  19  22
ENDBRANCH  17  20
ENDBRANCH   1  17
TORSDOF 4
ENDMDL
MODEL 3
REMARK VINA RESULT:    -6.196      2.708      8.216
REMARK INTER + INTRA:          -8.139
REMARK INTER:                  -7.659
REMARK INTRA:                  -0.479
REMARK UNBOUND:                -0.493
REMARK  Name = /home/qwerty/github/datacon2025hack/step_04_hit_selection/docking/ligands/lig_276.pdb
REMARK  4 active torsions:
REMARK  status: ('A' for Active; 'I' for Inactive)
REMARK    1  A    between atoms: C1_2  and  C13_20
REMARK    2  A    between atoms: N1_3  and  C2_4
REMARK    3  A    between atoms: C2_4  and  C3_5
REMARK    4  A    between atoms: C6_9  and  C7_11
REMARK                            x       y       z     vdW  Elec       q    Type
REMARK                         _______ _______ _______ _____ _____    ______ ____
ROOT
ATOM      1  C3  UNL     1      21.701   2.548  31.955  0.00  0.00    +0.095 C 
ATOM      2  C4  UNL     1      20.325   3.107  32.164  0.00  0.00    +0.043 C 
ATOM      3  C5  UNL     1      20.239   2.971  30.679  0.00  0.00    +0.110 C 
ATOM      4  N2  UNL     1      21.597   2.420  30.489  0.00  0.00    -0.293 N 
ATOM      5  C6  UNL     1      22.380   1.822  29.450  0.00  0.00    +0.248 C 
ATOM      6  O2  UNL     1      23.445   1.224  29.758  0.00  0.00    -0.270 OA
ENDROOT
BRANCH   5   7
ATOM      7  C7  UNL     1      21.946   1.852  28.038  0.00  0.00    +0.056 A 
ATOM      8  C8  UNL     1      22.532   2.784  27.136  0.00  0.00    +0.126 A 
ATOM      9  N3  UNL     1      22.141   2.835  25.826  0.00  0.00    -0.235 NA
ATOM     10  C9  UNL     1      21.177   1.983  25.403  0.00  0.00    +0.156 A 
ATOM     11  N4  UNL     1      20.656   1.897  24.172  0.00  0.00    -0.260 N 
ATOM     12  N5  UNL     1      19.722   0.951  24.189  0.00  0.00    -0.180 NA
ATOM     13  C10 UNL     1      19.651   0.436  25.444  0.00  0.00    +0.144 A 
ATOM     14  C11 UNL     1      20.578   1.088  26.228  0.00  0.00    +0.039 A 
ATOM     15  C12 UNL     1      20.929   0.990  27.568  0.00  0.00    +0.027 A 
ATOM     16  H10 UNL     1      20.918   2.463  23.334  0.00  0.00    +0.191 HD
ENDBRANCH   5   7
BRANCH   1  17
ATOM     17  C2  UNL     1      22.836   3.508  32.346  0.00  0.00    +0.127 C 
BRANCH  17  20
ATOM     18  O1  UNL     1      23.642   6.142  33.148  0.00  0.00    -0.268 OA
ATOM     19  C1  UNL     1      22.943   5.477  33.959  0.00  0.00    +0.266 C 
ATOM     20  N1  UNL     1      22.547   4.133  33.635  0.00  0.00    -0.308 N 
ATOM     21  H1  UNL     1      21.960   3.590  34.308  0.00  0.00    +0.149 HD
BRANCH  19  22
ATOM     22  C13 UNL     1      22.549   6.102  35.234  0.00  0.00    +0.168 A 
ATOM     23  C14 UNL     1      21.301   6.585  35.579  0.00  0.00    +0.077 A 
ATOM     24  C15 UNL     1      21.474   7.061  36.860  0.00  0.00    +0.231 A 
ATOM     25  O3  UNL     1      22.723   6.861  37.214  0.00  0.00    -0.362 OA
ATOM     26  N6  UNL     1      23.399   6.288  36.262  0.00  0.00    -0.074 NA
ENDBRANCH  19  22
ENDBRANCH  17  20
ENDBRANCH   1  17
TORSDOF 4
ENDMDL
MODEL 4
REMARK VINA RESULT:    -6.195      1.975      2.524
REMARK INTER + INTRA:          -8.137
REMARK INTER:                  -7.473
REMARK INTRA:                  -0.663
REMARK UNBOUND:                -0.493
REMARK  Name = /home/qwerty/github/datacon2025hack/step_04_hit_selection/docking/ligands/lig_276.pdb
REMARK  4 active torsions:
REMARK  status: ('A' for Active; 'I' for Inactive)
REMARK    1  A    between atoms: C1_2  and  C13_20
REMARK    2  A    between atoms: N1_3  and  C2_4
REMARK    3  A    between atoms: C2_4  and  C3_5
REMARK    4  A    between atoms: C6_9  and  C7_11
REMARK                            x       y       z     vdW  Elec       q    Type
REMARK                         _______ _______ _______ _____ _____    ______ ____
ROOT
ATOM      1  C3  UNL     1      20.835   1.988  31.317  0.00  0.00    +0.095 C 
ATOM      2  C4  UNL     1      20.391   1.071  32.416  0.00  0.00    +0.043 C 
ATOM      3  C5  UNL     1      20.937   2.148  33.294  0.00  0.00    +0.110 C 
ATOM      4  N2  UNL     1      21.368   3.044  32.201  0.00  0.00    -0.293 N 
ATOM      5  C6  UNL     1      21.851   4.381  32.031  0.00  0.00    +0.248 C 
ATOM      6  O2  UNL     1      21.860   4.883  30.875  0.00  0.00    -0.270 OA
ENDROOT
BRANCH   5   7
ATOM      7  C7  UNL     1      22.292   5.196  33.181  0.00  0.00    +0.056 A 
ATOM      8  C8  UNL     1      23.659   5.577  33.298  0.00  0.00    +0.126 A 
ATOM      9  N3  UNL     1      24.092   6.325  34.358  0.00  0.00    -0.235 NA
ATOM     10  C9  UNL     1      23.194   6.693  35.303  0.00  0.00    +0.156 A 
ATOM     11  N4  UNL     1      23.431   7.407  36.411  0.00  0.00    -0.260 N 
ATOM     12  N5  UNL     1      22.285   7.522  37.075  0.00  0.00    -0.180 NA
ATOM     13  C10 UNL     1      21.315   6.875  36.380  0.00  0.00    +0.144 A 
ATOM     14  C11 UNL     1      21.885   6.342  35.244  0.00  0.00    +0.039 A 
ATOM     15  C12 UNL     1      21.385   5.582  34.195  0.00  0.00    +0.027 A 
ATOM     16  H10 UNL     1      24.345   7.807  36.721  0.00  0.00    +0.191 HD
ENDBRANCH   5   7
BRANCH   1  17
ATOM     17  C2  UNL     1      21.941   1.409  30.421  0.00  0.00    +0.127 C 
BRANCH  17  20
ATOM     18  O1  UNL     1      21.692   0.313  27.781  0.00  0.00    -0.268 OA
ATOM     19  C1  UNL     1      21.848   1.560  27.879  0.00  0.00    +0.266 C 
ATOM     20  N1  UNL     1      22.025   2.165  29.172  0.00  0.00    -0.308 N 
ATOM     21  H1  UNL     1      22.144   3.199  29.247  0.00  0.00    +0.149 HD
BRANCH  19  22
ATOM     22  C13 UNL     1      21.846   2.375  26.651  0.00  0.00    +0.168 A 
ATOM     23  C14 UNL     1      22.581   3.518  26.403  0.00  0.00    +0.077 A 
ATOM     24  C15 UNL     1      22.210   3.880  25.127  0.00  0.00    +0.231 A 
ATOM     25  O3  UNL     1      21.333   3.008  24.685  0.00  0.00    -0.362 OA
ATOM     26  N6  UNL     1      21.089   2.089  25.573  0.00  0.00    -0.074 NA
ENDBRANCH  19  22
ENDBRANCH  17  20
ENDBRANCH   1  17
TORSDOF 4
ENDMDL
MODEL 5
REMARK VINA RESULT:    -6.153      4.900      8.021
REMARK INTER + INTRA:          -8.085
REMARK INTER:                  -7.644
REMARK INTRA:                  -0.441
REMARK UNBOUND:                -0.493
REMARK  Name = /home/qwerty/github/datacon2025hack/step_04_hit_selection/docking/ligands/lig_276.pdb
REMARK  4 active torsions:
REMARK  status: ('A' for Active; 'I' for Inactive)
REMARK    1  A    between atoms: C1_2  and  C13_20
REMARK    2  A    between atoms: N1_3  and  C2_4
REMARK    3  A    between atoms: C2_4  and  C3_5
REMARK    4  A    between atoms: C6_9  and  C7_11
REMARK                            x       y       z     vdW  Elec       q    Type
REMARK                         _______ _______ _______ _____ _____    ______ ____
ROOT
ATOM      1  C3  UNL     1      19.804   0.361  31.407  0.00  0.00    +0.095 C 
ATOM      2  C4  UNL     1      18.405   0.891  31.318  0.00  0.00    +0.043 C 
ATOM      3  C5  UNL     1      18.870   1.391  29.990  0.00  0.00    +0.110 C 
ATOM      4  N2  UNL     1      20.245   0.861  30.090  0.00  0.00    -0.293 N 
ATOM      5  C6  UNL     1      21.396   0.687  29.256  0.00  0.00    +0.248 C 
ATOM      6  O2  UNL     1      22.324  -0.069  29.648  0.00  0.00    -0.270 OA
ENDROOT
BRANCH   5   7
ATOM      7  C7  UNL     1      21.497   1.336  27.932  0.00  0.00    +0.056 A 
ATOM      8  C8  UNL     1      22.494   2.326  27.702  0.00  0.00    +0.126 A 
ATOM      9  N3  UNL     1      22.602   2.944  26.486  0.00  0.00    -0.235 NA
ATOM     10  C9  UNL     1      21.735   2.602  25.504  0.00  0.00    +0.156 A 
ATOM     11  N4  UNL     1      21.676   3.106  24.265  0.00  0.00    -0.260 N 
ATOM     12  N5  UNL     1      20.667   2.514  23.631  0.00  0.00    -0.180 NA
ATOM     13  C10 UNL     1      20.083   1.630  24.480  0.00  0.00    +0.144 A 
ATOM     14  C11 UNL     1      20.759   1.676  25.681  0.00  0.00    +0.039 A 
ATOM     15  C12 UNL     1      20.597   1.015  26.890  0.00  0.00    +0.027 A 
ATOM     16  H10 UNL     1      22.297   3.836  23.849  0.00  0.00    +0.191 HD
ENDBRANCH   5   7
BRANCH   1  17
ATOM     17  C2  UNL     1      20.641   0.976  32.539  0.00  0.00    +0.127 C 
BRANCH  17  20
ATOM     18  O1  UNL     1      20.178   3.537  33.748  0.00  0.00    -0.268 OA
ATOM     19  C1  UNL     1      19.573   2.546  34.239  0.00  0.00    +0.266 C 
ATOM     20  N1  UNL     1      19.800   1.228  33.708  0.00  0.00    -0.308 N 
ATOM     21  H1  UNL     1      19.289   0.413  34.113  0.00  0.00    +0.149 HD
BRANCH  19  22
ATOM     22  C13 UNL     1      18.643   2.766  35.360  0.00  0.00    +0.168 A 
ATOM     23  C14 UNL     1      18.069   3.962  35.749  0.00  0.00    +0.077 A 
ATOM     24  C15 UNL     1      17.296   3.619  36.836  0.00  0.00    +0.231 A 
ATOM     25  O3  UNL     1      17.421   2.329  37.047  0.00  0.00    -0.362 OA
ATOM     26  N6  UNL     1      18.224   1.783  36.180  0.00  0.00    -0.074 NA
ENDBRANCH  19  22
ENDBRANCH  17  20
ENDBRANCH   1  17
TORSDOF 4
ENDMDL
MODEL 6
REMARK VINA RESULT:    -6.127      6.359      9.921
REMARK INTER + INTRA:          -8.053
REMARK INTER:                  -7.275
REMARK INTRA:                  -0.778
REMARK UNBOUND:                -0.493
REMARK  Name = /home/qwerty/github/datacon2025hack/step_04_hit_selection/docking/ligands/lig_276.pdb
REMARK  4 active torsions:
REMARK  status: ('A' for Active; 'I' for Inactive)
REMARK    1  A    between atoms: C1_2  and  C13_20
REMARK    2  A    between atoms: N1_3  and  C2_4
REMARK    3  A    between atoms: C2_4  and  C3_5
REMARK    4  A    between atoms: C6_9  and  C7_11
REMARK                            x       y       z     vdW  Elec       q    Type
REMARK                         _______ _______ _______ _____ _____    ______ ____
ROOT
ATOM      1  C3  UNL     1      16.350  -1.585  23.980  0.00  0.00    +0.095 C 
ATOM      2  C4  UNL     1      16.960  -2.873  24.444  0.00  0.00    +0.043 C 
ATOM      3  C5  UNL     1      18.092  -1.986  24.845  0.00  0.00    +0.110 C 
ATOM      4  N2  UNL     1      17.478  -0.724  24.385  0.00  0.00    -0.293 N 
ATOM      5  C6  UNL     1      17.715   0.685  24.477  0.00  0.00    +0.248 C 
ATOM      6  O2  UNL     1      16.790   1.481  24.162  0.00  0.00    -0.270 OA
ENDROOT
BRANCH   5   7
ATOM      7  C7  UNL     1      18.998   1.223  24.974  0.00  0.00    +0.056 A 
ATOM      8  C8  UNL     1      19.789   2.060  24.137  0.00  0.00    +0.126 A 
ATOM      9  N3  UNL     1      20.984   2.563  24.573  0.00  0.00    -0.235 NA
ATOM     10  C9  UNL     1      21.405   2.245  25.820  0.00  0.00    +0.156 A 
ATOM     11  N4  UNL     1      22.545   2.627  26.411  0.00  0.00    -0.260 N 
ATOM     12  N5  UNL     1      22.582   2.075  27.621  0.00  0.00    -0.180 NA
ATOM     13  C10 UNL     1      21.455   1.338  27.794  0.00  0.00    +0.144 A 
ATOM     14  C11 UNL     1      20.695   1.440  26.649  0.00  0.00    +0.039 A 
ATOM     15  C12 UNL     1      19.477   0.896  26.264  0.00  0.00    +0.027 A 
ATOM     16  H10 UNL     1      23.288   3.242  26.012  0.00  0.00    +0.191 HD
ENDBRANCH   5   7
BRANCH   1  17
ATOM     17  C2  UNL     1      16.116  -1.510  22.463  0.00  0.00    +0.127 C 
BRANCH  17  20
ATOM     18  O1  UNL     1      16.545   0.477  20.438  0.00  0.00    -0.268 OA
ATOM     19  C1  UNL     1      15.466   0.534  21.087  0.00  0.00    +0.266 C 
ATOM     20  N1  UNL     1      15.212  -0.404  22.147  0.00  0.00    -0.308 N 
ATOM     21  H1  UNL     1      14.313  -0.357  22.675  0.00  0.00    +0.149 HD
BRANCH  19  22
ATOM     22  C13 UNL     1      14.483   1.576  20.740  0.00  0.00    +0.168 A 
ATOM     23  C14 UNL     1      14.709   2.734  20.020  0.00  0.00    +0.077 A 
ATOM     24  C15 UNL     1      13.478   3.347  19.986  0.00  0.00    +0.231 A 
ATOM     25  O3  UNL     1      12.619   2.596  20.635  0.00  0.00    -0.362 OA
ATOM     26  N6  UNL     1      13.187   1.523  21.103  0.00  0.00    -0.074 NA
ENDBRANCH  19  22
ENDBRANCH  17  20
ENDBRANCH   1  17
TORSDOF 4
ENDMDL
MODEL 7
REMARK VINA RESULT:    -6.076      2.516      6.911
REMARK INTER + INTRA:          -7.990
REMARK INTER:                  -7.331
REMARK INTRA:                  -0.659
REMARK UNBOUND:                -0.493
REMARK  Name = /home/qwerty/github/datacon2025hack/step_04_hit_selection/docking/ligands/lig_276.pdb
REMARK  4 active torsions:
REMARK  status: ('A' for Active; 'I' for Inactive)
REMARK    1  A    between atoms: C1_2  and  C13_20
REMARK    2  A    between atoms: N1_3  and  C2_4
REMARK    3  A    between atoms: C2_4  and  C3_5
REMARK    4  A    between atoms: C6_9  and  C7_11
REMARK                            x       y       z     vdW  Elec       q    Type
REMARK                         _______ _______ _______ _____ _____    ______ ____
ROOT
ATOM      1  C3  UNL     1      20.309   1.199  32.822  0.00  0.00    +0.095 C 
ATOM      2  C4  UNL     1      19.071   0.382  32.603  0.00  0.00    +0.043 C 
ATOM      3  C5  UNL     1      19.361   0.655  31.164  0.00  0.00    +0.110 C 
ATOM      4  N2  UNL     1      20.579   1.457  31.394  0.00  0.00    -0.293 N 
ATOM      5  C6  UNL     1      21.654   2.025  30.637  0.00  0.00    +0.248 C 
ATOM      6  O2  UNL     1      22.679   2.433  31.246  0.00  0.00    -0.270 OA
ENDROOT
BRANCH   5   7
ATOM      7  C7  UNL     1      21.607   2.100  29.162  0.00  0.00    +0.056 A 
ATOM      8  C8  UNL     1      21.293   0.937  28.402  0.00  0.00    +0.126 A 
ATOM      9  N3  UNL     1      21.250   0.982  27.036  0.00  0.00    -0.235 NA
ATOM     10  C9  UNL     1      21.519   2.155  26.416  0.00  0.00    +0.156 A 
ATOM     11  N4  UNL     1      21.542   2.387  25.097  0.00  0.00    -0.260 N 
ATOM     12  N5  UNL     1      21.873   3.662  24.912  0.00  0.00    -0.180 NA
ATOM     13  C10 UNL     1      22.063   4.239  26.126  0.00  0.00    +0.144 A 
ATOM     14  C11 UNL     1      21.838   3.285  27.095  0.00  0.00    +0.039 A 
ATOM     15  C12 UNL     1      21.900   3.304  28.482  0.00  0.00    +0.027 A 
ATOM     16  H10 UNL     1      21.342   1.704  24.332  0.00  0.00    +0.191 HD
ENDBRANCH   5   7
BRANCH   1  17
ATOM     17  C2  UNL     1      20.070   2.512  33.584  0.00  0.00    +0.127 C 
BRANCH  17  20
ATOM     18  O1  UNL     1      20.425   5.351  33.370  0.00  0.00    -0.268 OA
ATOM     19  C1  UNL     1      21.433   4.661  33.683  0.00  0.00    +0.266 C 
ATOM     20  N1  UNL     1      21.331   3.229  33.760  0.00  0.00    -0.308 N 
ATOM     21  H1  UNL     1      22.168   2.665  34.029  0.00  0.00    +0.149 HD
BRANCH  19  22
ATOM     22  C13 UNL     1      22.706   5.351  33.962  0.00  0.00    +0.168 A 
ATOM     23  C14 UNL     1      23.741   5.587  33.078  0.00  0.00    +0.077 A 
ATOM     24  C15 UNL     1      24.678   6.253  33.836  0.00  0.00    +0.231 A 
ATOM     25  O3  UNL     1      24.210   6.385  35.056  0.00  0.00    -0.362 OA
ATOM     26  N6  UNL     1      23.027   5.854  35.170  0.00  0.00    -0.074 NA
ENDBRANCH  19  22
ENDBRANCH  17  20
ENDBRANCH   1  17
TORSDOF 4
ENDMDL
MODEL 8
REMARK VINA RESULT:    -6.061     15.219     16.261
REMARK INTER + INTRA:          -7.972
REMARK INTER:                  -7.235
REMARK INTRA:                  -0.737
REMARK UNBOUND:                -0.493
REMARK  Name = /home/qwerty/github/datacon2025hack/step_04_hit_selection/docking/ligands/lig_276.pdb
REMARK  4 active torsions:
REMARK  status: ('A' for Active; 'I' for Inactive)
REMARK    1  A    between atoms: C1_2  and  C13_20
REMARK    2  A    between atoms: N1_3  and  C2_4
REMARK    3  A    between atoms: C2_4  and  C3_5
REMARK    4  A    between atoms: C6_9  and  C7_11
REMARK                            x       y       z     vdW  Elec       q    Type
REMARK                         _______ _______ _______ _____ _____    ______ ____
ROOT
ATOM      1  C3  UNL     1       8.670   8.915  21.964  0.00  0.00    +0.095 C 
ATOM      2  C4  UNL     1       8.080  10.220  21.520  0.00  0.00    +0.043 C 
ATOM      3  C5  UNL     1       7.806  10.388  22.978  0.00  0.00    +0.110 C 
ATOM      4  N2  UNL     1       8.392   9.100  23.402  0.00  0.00    -0.293 N 
ATOM      5  C6  UNL     1       8.750   8.427  24.614  0.00  0.00    +0.248 C 
ATOM      6  O2  UNL     1       9.492   7.410  24.549  0.00  0.00    -0.270 OA
ENDROOT
BRANCH   5   7
ATOM      7  C7  UNL     1       8.308   8.922  25.933  0.00  0.00    +0.056 A 
ATOM      8  C8  UNL     1       7.484   8.104  26.758  0.00  0.00    +0.126 A 
ATOM      9  N3  UNL     1       7.057   8.545  27.981  0.00  0.00    -0.235 NA
ATOM     10  C9  UNL     1       7.428   9.781  28.392  0.00  0.00    +0.156 A 
ATOM     11  N4  UNL     1       7.098  10.385  29.540  0.00  0.00    -0.260 N 
ATOM     12  N5  UNL     1       7.649  11.596  29.538  0.00  0.00    -0.180 NA
ATOM     13  C10 UNL     1       8.332  11.757  28.376  0.00  0.00    +0.144 A 
ATOM     14  C11 UNL     1       8.199  10.602  27.635  0.00  0.00    +0.039 A 
ATOM     15  C12 UNL     1       8.662  10.214  26.386  0.00  0.00    +0.027 A 
ATOM     16  H10 UNL     1       6.511   9.997  30.312  0.00  0.00    +0.191 HD
ENDBRANCH   5   7
BRANCH   1  17
ATOM     17  C2  UNL     1       7.944   7.677  21.417  0.00  0.00    +0.127 C 
BRANCH  17  20
ATOM     18  O1  UNL     1       7.117   5.046  22.208  0.00  0.00    -0.268 OA
ATOM     19  C1  UNL     1       8.322   5.199  21.871  0.00  0.00    +0.266 C 
ATOM     20  N1  UNL     1       8.810   6.502  21.510  0.00  0.00    -0.308 N 
ATOM     21  H1  UNL     1       9.807   6.621  21.223  0.00  0.00    +0.149 HD
BRANCH  19  22
ATOM     22  C13 UNL     1       9.211   4.023  21.860  0.00  0.00    +0.168 A 
ATOM     23  C14 UNL     1       9.194   2.952  22.734  0.00  0.00    +0.077 A 
ATOM     24  C15 UNL     1      10.217   2.146  22.290  0.00  0.00    +0.231 A 
ATOM     25  O3  UNL     1      10.772   2.715  21.244  0.00  0.00    -0.362 OA
ATOM     26  N6  UNL     1      10.195   3.845  20.957  0.00  0.00    -0.074 NA
ENDBRANCH  19  22
ENDBRANCH  17  20
ENDBRANCH   1  17
TORSDOF 4
ENDMDL
MODEL 9
REMARK VINA RESULT:    -5.995      4.248      8.644
REMARK INTER + INTRA:          -7.890
REMARK INTER:                  -7.178
REMARK INTRA:                  -0.713
REMARK UNBOUND:                -0.493
REMARK  Name = /home/qwerty/github/datacon2025hack/step_04_hit_selection/docking/ligands/lig_276.pdb
REMARK  4 active torsions:
REMARK  status: ('A' for Active; 'I' for Inactive)
REMARK    1  A    between atoms: C1_2  and  C13_20
REMARK    2  A    between atoms: N1_3  and  C2_4
REMARK    3  A    between atoms: C2_4  and  C3_5
REMARK    4  A    between atoms: C6_9  and  C7_11
REMARK                            x       y       z     vdW  Elec       q    Type
REMARK                         _______ _______ _______ _____ _____    ______ ____
ROOT
ATOM      1  C3  UNL     1      23.453   7.143  33.881  0.00  0.00    +0.095 C 
ATOM      2  C4  UNL     1      24.848   6.812  33.441  0.00  0.00    +0.043 C 
ATOM      3  C5  UNL     1      24.225   5.512  33.051  0.00  0.00    +0.110 C 
ATOM      4  N2  UNL     1      22.855   5.852  33.487  0.00  0.00    -0.293 N 
ATOM      5  C6  UNL     1      21.530   5.321  33.384  0.00  0.00    +0.248 C 
ATOM      6  O2  UNL     1      20.552   6.062  33.675  0.00  0.00    -0.270 OA
ENDROOT
BRANCH   5   7
ATOM      7  C7  UNL     1      21.282   3.946  32.905  0.00  0.00    +0.056 A 
ATOM      8  C8  UNL     1      20.605   3.013  33.741  0.00  0.00    +0.126 A 
ATOM      9  N3  UNL     1      20.371   1.733  33.321  0.00  0.00    -0.235 NA
ATOM     10  C9  UNL     1      20.802   1.365  32.091  0.00  0.00    +0.156 A 
ATOM     11  N4  UNL     1      20.680   0.160  31.518  0.00  0.00    -0.260 N 
ATOM     12  N5  UNL     1      21.259   0.217  30.322  0.00  0.00    -0.180 NA
ATOM     13  C10 UNL     1      21.752   1.469  30.139  0.00  0.00    +0.144 A 
ATOM     14  C11 UNL     1      21.465   2.212  31.264  0.00  0.00    +0.039 A 
ATOM     15  C12 UNL     1      21.735   3.522  31.634  0.00  0.00    +0.027 A 
ATOM     16  H10 UNL     1      20.221  -0.687  31.921  0.00  0.00    +0.191 HD
ENDBRANCH   5   7
BRANCH   1  17
ATOM     17  C2  UNL     1      23.309   7.379  35.392  0.00  0.00    +0.127 C 
BRANCH  17  20
ATOM     18  O1  UNL     1      21.747   6.980  37.765  0.00  0.00    -0.268 OA
ATOM     19  C1  UNL     1      21.310   7.801  36.914  0.00  0.00    +0.266 C 
ATOM     20  N1  UNL     1      22.022   8.010  35.683  0.00  0.00    -0.308 N 
ATOM     21  H1  UNL     1      21.660   8.698  34.986  0.00  0.00    +0.149 HD
BRANCH  19  22
ATOM     22  C13 UNL     1      20.063   8.530  37.207  0.00  0.00    +0.168 A 
ATOM     23  C14 UNL     1      18.968   8.067  37.911  0.00  0.00    +0.077 A 
ATOM     24  C15 UNL     1      18.090   9.128  37.891  0.00  0.00    +0.231 A 
ATOM     25  O3  UNL     1      18.644  10.116  37.228  0.00  0.00    -0.362 OA
ATOM     26  N6  UNL     1      19.830   9.794  36.800  0.00  0.00    -0.074 NA
ENDBRANCH  19  22
ENDBRANCH  17  20
ENDBRANCH   1  17
TORSDOF 4
ENDMDL
