REMARK  Name = /home/qwerty/github/datacon2025hack/step_04_hit_selection/docking/ligands/lig_472.pdb
REMARK  10 active torsions:
REMARK  status: ('A' for Active; 'I' for Inactive)
REMARK    1  A    between atoms: C1_1  and  C2_2
REMARK    2  A    between atoms: C2_2  and  C3_3
REMARK    3  A    between atoms: C2_2  and  O1_4
REMARK    4  A    between atoms: O1_4  and  C4_5
REMARK    5  A    between atoms: C6_7  and  N1_8
REMARK    6  A    between atoms: C7_9  and  C8_11
REMARK    7  A    between atoms: N2_13  and  C9_14
REMARK    8  A    between atoms: C9_14  and  C10_15
REMARK    9  A    between atoms: C20_26  and  C21_27
REMARK   10  A    between atoms: N3_29  and  C22_30
REMARK                            x       y       z     vdW  Elec       q    Type
REMARK                         _______ _______ _______ _____ _____    ______ ____
ROOT
ATOM      1  C4  UNL     1      -2.516   1.066   0.264  0.00  0.00    +0.135 A 
ATOM      2  C5  UNL     1      -1.109   1.146   0.311  0.00  0.00    +0.069 A 
ATOM      3  C6  UNL     1      -0.458   2.389   0.243  0.00  0.00    +0.037 A 
ATOM      4  C18 UNL     1      -1.222   3.560   0.187  0.00  0.00    +0.024 A 
ATOM      5  C19 UNL     1      -2.614   3.494   0.137  0.00  0.00    +0.018 A 
ATOM      6  C20 UNL     1      -3.271   2.253   0.147  0.00  0.00    +0.079 A 
ENDROOT
BRANCH   3   7
ATOM      7  N1  UNL     1       0.977   2.483   0.284  0.00  0.00    -0.278 N 
ATOM      8  C7  UNL     1       1.855   1.560  -0.384  0.00  0.00    +0.303 C 
ATOM      9  O2  UNL     1       1.388   0.702  -1.179  0.00  0.00    -0.265 OA
ATOM     10  H9  UNL     1       1.394   3.345   0.701  0.00  0.00    +0.155 HD
BRANCH   8  11
ATOM     11  C8  UNL     1       3.313   1.632  -0.168  0.00  0.00    +0.299 C 
ATOM     12  O3  UNL     1       3.775   2.410   0.709  0.00  0.00    -0.265 OA
ATOM     13  N2  UNL     1       4.206   0.828  -0.956  0.00  0.00    -0.304 N 
ATOM     14  H10 UNL     1       3.827   0.265  -1.749  0.00  0.00    +0.149 HD
BRANCH  13  15
ATOM     15  C9  UNL     1       5.653   0.826  -0.745  0.00  0.00    +0.149 C 
BRANCH  15  16
ATOM     16  C10 UNL     1       6.022   0.003   0.497  0.00  0.00    +0.195 C 
ATOM     17  C11 UNL     1       5.699  -1.512   0.327  0.00  0.00    +0.085 C 
ATOM     18  C12 UNL     1       7.032  -2.148   0.489  0.00  0.00    -0.002 A 
ATOM     19  C13 UNL     1       7.368  -3.502   0.430  0.00  0.00    +0.007 A 
ATOM     20  C14 UNL     1       8.716  -3.864   0.604  0.00  0.00    +0.000 A 
ATOM     21  C15 UNL     1       9.692  -2.873   0.835  0.00  0.00    +0.004 A 
ATOM     22  C16 UNL     1       9.324  -1.518   0.891  0.00  0.00    +0.046 A 
ATOM     23  C17 UNL     1       7.981  -1.191   0.710  0.00  0.00    +0.124 A 
ATOM     24  O4  UNL     1       7.432   0.072   0.719  0.00  0.00    -0.487 OA
ENDBRANCH  15  16
ENDBRANCH  13  15
ENDBRANCH   8  11
ENDBRANCH   3   7
BRANCH   6  25
ATOM     25  C21 UNL     1      -4.747   2.214   0.042  0.00  0.00    +0.252 C 
ATOM     26  O5  UNL     1      -5.432   3.137   0.560  0.00  0.00    -0.270 OA
ATOM     27  N3  UNL     1      -5.400   1.164  -0.689  0.00  0.00    -0.280 N 
ATOM     28  H22 UNL     1      -4.856   0.674  -1.436  0.00  0.00    +0.155 HD
BRANCH  27  29
ATOM     29  C22 UNL     1      -6.819   0.955  -0.645  0.00  0.00    +0.054 A 
ATOM     30  C23 UNL     1      -7.539   0.922  -1.848  0.00  0.00    +0.044 A 
ATOM     31  C24 UNL     1      -8.922   0.711  -1.841  0.00  0.00    +0.043 A 
ATOM     32 CL1  UNL     1      -9.814   0.686  -3.351  0.00  0.00    -0.083 Cl
ATOM     33  C25 UNL     1      -9.591   0.517  -0.630  0.00  0.00    +0.021 A 
ATOM     34  C26 UNL     1      -8.878   0.520   0.572  0.00  0.00    +0.023 A 
ATOM     35  C27 UNL     1      -7.494   0.729   0.573  0.00  0.00    +0.062 A 
ATOM     36 CL2  UNL     1      -6.628   0.612   2.100  0.00  0.00    -0.082 Cl
ENDBRANCH  27  29
ENDBRANCH   6  25
BRANCH   1  37
ATOM     37  O1  UNL     1      -3.196  -0.161   0.367  0.00  0.00    -0.489 OA
BRANCH  37  39
ATOM     38  C1  UNL     1      -2.151  -1.790  -1.098  0.00  0.00    +0.051 C 
ATOM     39  C2  UNL     1      -2.610  -1.462   0.325  0.00  0.00    +0.167 C 
ATOM     40  C3  UNL     1      -3.653  -2.475   0.790  0.00  0.00    +0.051 C 
ENDBRANCH  37  39
ENDBRANCH   1  37
TORSDOF 8
