MODEL 1
REMARK VINA RESULT:    -6.200      0.000      0.000
REMARK INTER + INTRA:          -7.208
REMARK INTER:                  -6.925
REMARK INTRA:                  -0.284
REMARK UNBOUND:                -0.284
REMARK  Name = /home/qwerty/github/datacon2025hack/step_04_hit_selection/docking/ligands/lig_620.pdb
REMARK  4 active torsions:
REMARK  status: ('A' for Active; 'I' for Inactive)
REMARK    1  A    between atoms: C1_1  and  C2_2
REMARK    2  A    between atoms: C4_4  and  N1_5
REMARK    3  A    between atoms: C5_6  and  C6_8
REMARK    4  A    between atoms: C14_20  and  C15_21
REMARK                            x       y       z     vdW  Elec       q    Type
REMARK                         _______ _______ _______ _____ _____    ______ ____
ROOT
ATOM      1  N1  UNL     1      23.598  12.270  30.086  0.00  0.00    -0.281 N 
ATOM      2  C5  UNL     1      22.796  11.107  30.364  0.00  0.00    +0.250 C 
ATOM      3  O1  UNL     1      21.608  11.047  29.945  0.00  0.00    -0.270 OA
ATOM      4  H5  UNL     1      24.528  12.373  30.548  0.00  0.00    +0.155 HD
ENDROOT
BRANCH   2   5
ATOM      5  C6  UNL     1      23.338   9.968  31.145  0.00  0.00    +0.057 A 
ATOM      6  C7  UNL     1      24.632   9.996  31.693  0.00  0.00    +0.125 A 
ATOM      7  N2  UNL     1      25.102   8.934  32.400  0.00  0.00    -0.246 NA
ATOM      8  C8  UNL     1      24.349   7.825  32.617  0.00  0.00    +0.119 A 
ATOM      9  C9  UNL     1      23.030   7.769  32.140  0.00  0.00    +0.066 A 
ATOM     10  C10 UNL     1      22.536   8.841  31.391  0.00  0.00    +0.040 A 
ATOM     11  N3  UNL     1      22.170   6.673  32.491  0.00  0.00    -0.283 N 
ATOM     12  C11 UNL     1      22.433   5.853  33.638  0.00  0.00    +0.228 C 
ATOM     13  O2  UNL     1      21.638   4.921  33.936  0.00  0.00    -0.275 OA
ATOM     14  C12 UNL     1      23.618   6.131  34.513  0.00  0.00    +0.172 C 
ATOM     15  S1  UNL     1      25.077   6.419  33.466  0.00  0.00    -0.095 S 
ATOM     16  H8  UNL     1      21.276   6.534  31.968  0.00  0.00    +0.155 HD
ENDBRANCH   2   5
BRANCH   1  20
ATOM     17  C1  UNL     1      23.823  14.595  25.712  0.00  0.00    +0.045 C 
ATOM     18  C2  UNL     1      23.251  14.502  27.100  0.00  0.00    -0.034 A 
ATOM     19  C3  UNL     1      23.667  13.465  27.950  0.00  0.00    +0.027 A 
ATOM     20  C4  UNL     1      23.165  13.359  29.251  0.00  0.00    +0.034 A 
ATOM     21  C13 UNL     1      22.200  14.277  29.693  0.00  0.00    +0.027 A 
ATOM     22  C14 UNL     1      21.770  15.322  28.861  0.00  0.00    -0.034 A 
ATOM     23  C15 UNL     1      20.738  16.294  29.365  0.00  0.00    +0.045 C 
ATOM     24  C16 UNL     1      22.300  15.440  27.557  0.00  0.00    +0.024 A 
ATOM     25 BR1  UNL     1      21.716  16.869  26.401  0.00  0.00    -0.050 Br
ENDBRANCH   1  20
TORSDOF 2
ENDMDL
MODEL 2
REMARK VINA RESULT:    -6.151      8.726      9.969
REMARK INTER + INTRA:          -7.154
REMARK INTER:                  -6.801
REMARK INTRA:                  -0.353
REMARK UNBOUND:                -0.284
REMARK  Name = /home/qwerty/github/datacon2025hack/step_04_hit_selection/docking/ligands/lig_620.pdb
REMARK  4 active torsions:
REMARK  status: ('A' for Active; 'I' for Inactive)
REMARK    1  A    between atoms: C1_1  and  C2_2
REMARK    2  A    between atoms: C4_4  and  N1_5
REMARK    3  A    between atoms: C5_6  and  C6_8
REMARK    4  A    between atoms: C14_20  and  C15_21
REMARK                            x       y       z     vdW  Elec       q    Type
REMARK                         _______ _______ _______ _____ _____    ______ ____
ROOT
ATOM      1  N1  UNL     1      15.409  10.704  36.022  0.00  0.00    -0.281 N 
ATOM      2  C5  UNL     1      16.503  11.028  36.902  0.00  0.00    +0.250 C 
ATOM      3  O1  UNL     1      16.466  12.087  37.586  0.00  0.00    -0.270 OA
ATOM      4  H5  UNL     1      15.506   9.903  35.360  0.00  0.00    +0.155 HD
ENDROOT
BRANCH   2   5
ATOM      5  C6  UNL     1      17.686  10.142  37.018  0.00  0.00    +0.057 A 
ATOM      6  C7  UNL     1      17.708   9.050  37.903  0.00  0.00    +0.125 A 
ATOM      7  N2  UNL     1      18.810   8.258  37.990  0.00  0.00    -0.246 NA
ATOM      8  C8  UNL     1      19.913   8.475  37.228  0.00  0.00    +0.119 A 
ATOM      9  C9  UNL     1      19.922   9.516  36.288  0.00  0.00    +0.066 A 
ATOM     10  C10 UNL     1      18.807  10.357  36.199  0.00  0.00    +0.040 A 
ATOM     11  N3  UNL     1      21.015   9.665  35.368  0.00  0.00    -0.283 N 
ATOM     12  C11 UNL     1      21.892   8.571  35.065  0.00  0.00    +0.228 C 
ATOM     13  O2  UNL     1      22.819   8.726  34.227  0.00  0.00    -0.275 OA
ATOM     14  C12 UNL     1      21.677   7.229  35.699  0.00  0.00    +0.172 C 
ATOM     15  S1  UNL     1      21.370   7.454  37.477  0.00  0.00    -0.095 S 
ATOM     16  H8  UNL     1      21.112  10.552  34.824  0.00  0.00    +0.155 HD
ENDBRANCH   2   5
BRANCH   1  20
ATOM     17  C1  UNL     1      10.828  11.554  37.716  0.00  0.00    +0.045 C 
ATOM     18  C2  UNL     1      11.947  11.911  36.776  0.00  0.00    -0.034 A 
ATOM     19  C3  UNL     1      13.140  11.172  36.812  0.00  0.00    +0.027 A 
ATOM     20  C4  UNL     1      14.194  11.469  35.942  0.00  0.00    +0.034 A 
ATOM     21  C13 UNL     1      14.069  12.548  35.053  0.00  0.00    +0.027 A 
ATOM     22  C14 UNL     1      12.885  13.300  35.000  0.00  0.00    -0.034 A 
ATOM     23  C15 UNL     1      12.779  14.448  34.034  0.00  0.00    +0.045 C 
ATOM     24  C16 UNL     1      11.814  12.979  35.863  0.00  0.00    +0.024 A 
ATOM     25 BR1  UNL     1      10.182  14.005  35.803  0.00  0.00    -0.050 Br
ENDBRANCH   1  20
TORSDOF 2
ENDMDL
MODEL 3
REMARK VINA RESULT:    -6.123      9.767     12.596
REMARK INTER + INTRA:          -7.123
REMARK INTER:                  -6.765
REMARK INTRA:                  -0.358
REMARK UNBOUND:                -0.284
REMARK  Name = /home/qwerty/github/datacon2025hack/step_04_hit_selection/docking/ligands/lig_620.pdb
REMARK  4 active torsions:
REMARK  status: ('A' for Active; 'I' for Inactive)
REMARK    1  A    between atoms: C1_1  and  C2_2
REMARK    2  A    between atoms: C4_4  and  N1_5
REMARK    3  A    between atoms: C5_6  and  C6_8
REMARK    4  A    between atoms: C14_20  and  C15_21
REMARK                            x       y       z     vdW  Elec       q    Type
REMARK                         _______ _______ _______ _____ _____    ______ ____
ROOT
ATOM      1  N1  UNL     1      21.133   2.910  25.224  0.00  0.00    -0.281 N 
ATOM      2  C5  UNL     1      21.229   4.319  24.941  0.00  0.00    +0.250 C 
ATOM      3  O1  UNL     1      21.138   5.156  25.880  0.00  0.00    -0.270 OA
ATOM      4  H5  UNL     1      21.072   2.233  24.433  0.00  0.00    +0.155 HD
ENDROOT
BRANCH   2   5
ATOM      5  C6  UNL     1      21.428   4.814  23.558  0.00  0.00    +0.057 A 
ATOM      6  C7  UNL     1      20.664   4.330  22.482  0.00  0.00    +0.125 A 
ATOM      7  N2  UNL     1      20.872   4.801  21.223  0.00  0.00    -0.246 NA
ATOM      8  C8  UNL     1      21.803   5.753  20.957  0.00  0.00    +0.119 A 
ATOM      9  C9  UNL     1      22.553   6.312  22.004  0.00  0.00    +0.066 A 
ATOM     10  C10 UNL     1      22.370   5.825  23.302  0.00  0.00    +0.040 A 
ATOM     11  N3  UNL     1      23.429   7.425  21.765  0.00  0.00    -0.283 N 
ATOM     12  C11 UNL     1      23.265   8.273  20.620  0.00  0.00    +0.228 C 
ATOM     13  O2  UNL     1      24.029   9.262  20.460  0.00  0.00    -0.275 OA
ATOM     14  C12 UNL     1      22.157   8.022  19.642  0.00  0.00    +0.172 C 
ATOM     15  S1  UNL     1      22.098   6.245  19.255  0.00  0.00    -0.095 S 
ATOM     16  H8  UNL     1      24.131   7.692  22.492  0.00  0.00    +0.155 HD
ENDBRANCH   2   5
BRANCH   1  20
ATOM     17  C1  UNL     1      18.284   1.411  28.995  0.00  0.00    +0.045 C 
ATOM     18  C2  UNL     1      19.654   1.608  28.407  0.00  0.00    -0.034 A 
ATOM     19  C3  UNL     1      19.782   2.157  27.121  0.00  0.00    +0.027 A 
ATOM     20  C4  UNL     1      21.043   2.366  26.552  0.00  0.00    +0.034 A 
ATOM     21  C13 UNL     1      22.190   1.980  27.262  0.00  0.00    +0.027 A 
ATOM     22  C14 UNL     1      22.086   1.430  28.549  0.00  0.00    -0.034 A 
ATOM     23  C15 UNL     1      23.335   1.030  29.286  0.00  0.00    +0.045 C 
ATOM     24  C16 UNL     1      20.812   1.245  29.129  0.00  0.00    +0.024 A 
ATOM     25 BR1  UNL     1      20.653   0.487  30.896  0.00  0.00    -0.050 Br
ENDBRANCH   1  20
TORSDOF 2
ENDMDL
MODEL 4
REMARK VINA RESULT:    -6.066      8.713      9.242
REMARK INTER + INTRA:          -7.059
REMARK INTER:                  -6.695
REMARK INTRA:                  -0.364
REMARK UNBOUND:                -0.284
REMARK  Name = /home/qwerty/github/datacon2025hack/step_04_hit_selection/docking/ligands/lig_620.pdb
REMARK  4 active torsions:
REMARK  status: ('A' for Active; 'I' for Inactive)
REMARK    1  A    between atoms: C1_1  and  C2_2
REMARK    2  A    between atoms: C4_4  and  N1_5
REMARK    3  A    between atoms: C5_6  and  C6_8
REMARK    4  A    between atoms: C14_20  and  C15_21
REMARK                            x       y       z     vdW  Elec       q    Type
REMARK                         _______ _______ _______ _____ _____    ______ ____
ROOT
ATOM      1  N1  UNL     1      21.809   4.572  23.944  0.00  0.00    -0.281 N 
ATOM      2  C5  UNL     1      21.187   4.863  25.210  0.00  0.00    +0.250 C 
ATOM      3  O1  UNL     1      20.649   5.987  25.403  0.00  0.00    -0.270 OA
ATOM      4  H5  UNL     1      22.368   3.697  23.838  0.00  0.00    +0.155 HD
ENDROOT
BRANCH   2   5
ATOM      5  C6  UNL     1      21.169   3.864  26.306  0.00  0.00    +0.057 A 
ATOM      6  C7  UNL     1      19.965   3.366  26.833  0.00  0.00    +0.125 A 
ATOM      7  N2  UNL     1      19.981   2.454  27.842  0.00  0.00    -0.246 NA
ATOM      8  C8  UNL     1      21.141   1.982  28.365  0.00  0.00    +0.119 A 
ATOM      9  C9  UNL     1      22.372   2.404  27.837  0.00  0.00    +0.066 A 
ATOM     10  C10 UNL     1      22.377   3.359  26.815  0.00  0.00    +0.040 A 
ATOM     11  N3  UNL     1      23.601   1.802  28.272  0.00  0.00    -0.283 N 
ATOM     12  C11 UNL     1      23.623   0.510  28.894  0.00  0.00    +0.228 C 
ATOM     13  O2  UNL     1      24.723  -0.004  29.231  0.00  0.00    -0.275 OA
ATOM     14  C12 UNL     1      22.350  -0.256  29.096  0.00  0.00    +0.172 C 
ATOM     15  S1  UNL     1      21.084   0.863  29.769  0.00  0.00    -0.095 S 
ATOM     16  H8  UNL     1      24.510   2.261  28.035  0.00  0.00    +0.155 HD
ENDBRANCH   2   5
BRANCH   1  20
ATOM     17  C1  UNL     1      24.062   8.041  21.210  0.00  0.00    +0.045 C 
ATOM     18  C2  UNL     1      22.873   7.150  21.448  0.00  0.00    -0.034 A 
ATOM     19  C3  UNL     1      22.866   6.288  22.555  0.00  0.00    +0.027 A 
ATOM     20  C4  UNL     1      21.771   5.458  22.812  0.00  0.00    +0.034 A 
ATOM     21  C13 UNL     1      20.684   5.459  21.924  0.00  0.00    +0.027 A 
ATOM     22  C14 UNL     1      20.669   6.314  20.810  0.00  0.00    -0.034 A 
ATOM     23  C15 UNL     1      19.488   6.295  19.879  0.00  0.00    +0.045 C 
ATOM     24  C16 UNL     1      21.767   7.168  20.571  0.00  0.00    +0.024 A 
ATOM     25 BR1  UNL     1      21.762   8.346  19.043  0.00  0.00    -0.050 Br
ENDBRANCH   1  20
TORSDOF 2
ENDMDL
MODEL 5
REMARK VINA RESULT:    -6.057     16.400     18.280
REMARK INTER + INTRA:          -7.049
REMARK INTER:                  -6.714
REMARK INTRA:                  -0.335
REMARK UNBOUND:                -0.284
REMARK  Name = /home/qwerty/github/datacon2025hack/step_04_hit_selection/docking/ligands/lig_620.pdb
REMARK  4 active torsions:
REMARK  status: ('A' for Active; 'I' for Inactive)
REMARK    1  A    between atoms: C1_1  and  C2_2
REMARK    2  A    between atoms: C4_4  and  N1_5
REMARK    3  A    between atoms: C5_6  and  C6_8
REMARK    4  A    between atoms: C14_20  and  C15_21
REMARK                            x       y       z     vdW  Elec       q    Type
REMARK                         _______ _______ _______ _____ _____    ______ ____
ROOT
ATOM      1  N1  UNL     1      12.552   1.666  22.981  0.00  0.00    -0.281 N 
ATOM      2  C5  UNL     1      11.174   1.518  22.590  0.00  0.00    +0.250 C 
ATOM      3  O1  UNL     1      10.666   0.368  22.499  0.00  0.00    -0.270 OA
ATOM      4  H5  UNL     1      13.003   2.605  22.923  0.00  0.00    +0.155 HD
ENDROOT
BRANCH   2   5
ATOM      5  C6  UNL     1      10.332   2.699  22.281  0.00  0.00    +0.057 A 
ATOM      6  C7  UNL     1       9.046   2.854  22.828  0.00  0.00    +0.125 A 
ATOM      7  N2  UNL     1       8.296   3.945  22.521  0.00  0.00    -0.246 NA
ATOM      8  C8  UNL     1       8.753   4.924  21.699  0.00  0.00    +0.119 A 
ATOM      9  C9  UNL     1      10.051   4.847  21.171  0.00  0.00    +0.066 A 
ATOM     10  C10 UNL     1      10.831   3.721  21.455  0.00  0.00    +0.040 A 
ATOM     11  N3  UNL     1      10.607   5.943  20.428  0.00  0.00    -0.283 N 
ATOM     12  C11 UNL     1      10.084   7.273  20.552  0.00  0.00    +0.228 C 
ATOM     13  O2  UNL     1      10.618   8.217  19.911  0.00  0.00    -0.275 OA
ATOM     14  C12 UNL     1       8.942   7.555  21.480  0.00  0.00    +0.172 C 
ATOM     15  S1  UNL     1       7.663   6.281  21.253  0.00  0.00    -0.095 S 
ATOM     16  H8  UNL     1      11.477   5.795  19.867  0.00  0.00    +0.155 HD
ENDBRANCH   2   5
BRANCH   1  20
ATOM     17  C1  UNL     1      16.331  -1.379  21.964  0.00  0.00    +0.045 C 
ATOM     18  C2  UNL     1      15.256  -0.922  22.912  0.00  0.00    -0.034 A 
ATOM     19  C3  UNL     1      14.407   0.131  22.538  0.00  0.00    +0.027 A 
ATOM     20  C4  UNL     1      13.389   0.570  23.390  0.00  0.00    +0.034 A 
ATOM     21  C13 UNL     1      13.246  -0.025  24.654  0.00  0.00    +0.027 A 
ATOM     22  C14 UNL     1      14.084  -1.079  25.049  0.00  0.00    -0.034 A 
ATOM     23  C15 UNL     1      13.903  -1.699  26.408  0.00  0.00    +0.045 C 
ATOM     24  C16 UNL     1      15.093  -1.535  24.173  0.00  0.00    +0.024 A 
ATOM     25 BR1  UNL     1      16.254  -2.982  24.704  0.00  0.00    -0.050 Br
ENDBRANCH   1  20
TORSDOF 2
ENDMDL
MODEL 6
REMARK VINA RESULT:    -6.040      7.747      9.674
REMARK INTER + INTRA:          -7.030
REMARK INTER:                  -6.680
REMARK INTRA:                  -0.350
REMARK UNBOUND:                -0.284
REMARK  Name = /home/qwerty/github/datacon2025hack/step_04_hit_selection/docking/ligands/lig_620.pdb
REMARK  4 active torsions:
REMARK  status: ('A' for Active; 'I' for Inactive)
REMARK    1  A    between atoms: C1_1  and  C2_2
REMARK    2  A    between atoms: C4_4  and  N1_5
REMARK    3  A    between atoms: C5_6  and  C6_8
REMARK    4  A    between atoms: C14_20  and  C15_21
REMARK                            x       y       z     vdW  Elec       q    Type
REMARK                         _______ _______ _______ _____ _____    ______ ____
ROOT
ATOM      1  N1  UNL     1      20.017  10.389  35.011  0.00  0.00    -0.281 N 
ATOM      2  C5  UNL     1      18.637   9.978  35.029  0.00  0.00    +0.250 C 
ATOM      3  O1  UNL     1      18.327   8.803  34.692  0.00  0.00    -0.270 OA
ATOM      4  H5  UNL     1      20.253  11.395  35.158  0.00  0.00    +0.155 HD
ENDROOT
BRANCH   2   5
ATOM      5  C6  UNL     1      17.560  10.914  35.432  0.00  0.00    +0.057 A 
ATOM      6  C7  UNL     1      17.605  12.280  35.100  0.00  0.00    +0.125 A 
ATOM      7  N2  UNL     1      16.604  13.114  35.488  0.00  0.00    -0.246 NA
ATOM      8  C8  UNL     1      15.529  12.671  36.188  0.00  0.00    +0.119 A 
ATOM      9  C9  UNL     1      15.407  11.307  36.496  0.00  0.00    +0.066 A 
ATOM     10  C10 UNL     1      16.436  10.435  36.127  0.00  0.00    +0.040 A 
ATOM     11  N3  UNL     1      14.207  10.796  37.098  0.00  0.00    -0.283 N 
ATOM     12  C11 UNL     1      12.965  11.509  37.015  0.00  0.00    +0.228 C 
ATOM     13  O2  UNL     1      11.925  11.015  37.525  0.00  0.00    -0.275 OA
ATOM     14  C12 UNL     1      12.888  12.813  36.279  0.00  0.00    +0.172 C 
ATOM     15  S1  UNL     1      14.302  13.852  36.760  0.00  0.00    -0.095 S 
ATOM     16  H8  UNL     1      14.208   9.835  37.511  0.00  0.00    +0.155 HD
ENDBRANCH   2   5
BRANCH   1  20
ATOM     17  C1  UNL     1      23.419   8.759  31.793  0.00  0.00    +0.045 C 
ATOM     18  C2  UNL     1      22.802   8.702  33.164  0.00  0.00    -0.034 A 
ATOM     19  C3  UNL     1      21.717   9.539  33.469  0.00  0.00    +0.027 A 
ATOM     20  C4  UNL     1      21.112   9.501  34.729  0.00  0.00    +0.034 A 
ATOM     21  C13 UNL     1      21.628   8.643  35.713  0.00  0.00    +0.027 A 
ATOM     22  C14 UNL     1      22.712   7.797  35.431  0.00  0.00    -0.034 A 
ATOM     23  C15 UNL     1      23.239   6.886  36.505  0.00  0.00    +0.045 C 
ATOM     24  C16 UNL     1      23.302   7.822  34.148  0.00  0.00    +0.024 A 
ATOM     25 BR1  UNL     1      24.794   6.667  33.746  0.00  0.00    -0.050 Br
ENDBRANCH   1  20
TORSDOF 2
ENDMDL
MODEL 7
REMARK VINA RESULT:    -5.915      8.977     11.053
REMARK INTER + INTRA:          -6.890
REMARK INTER:                  -6.540
REMARK INTRA:                  -0.351
REMARK UNBOUND:                -0.284
REMARK  Name = /home/qwerty/github/datacon2025hack/step_04_hit_selection/docking/ligands/lig_620.pdb
REMARK  4 active torsions:
REMARK  status: ('A' for Active; 'I' for Inactive)
REMARK    1  A    between atoms: C1_1  and  C2_2
REMARK    2  A    between atoms: C4_4  and  N1_5
REMARK    3  A    between atoms: C5_6  and  C6_8
REMARK    4  A    between atoms: C14_20  and  C15_21
REMARK                            x       y       z     vdW  Elec       q    Type
REMARK                         _______ _______ _______ _____ _____    ______ ____
ROOT
ATOM      1  N1  UNL     1      17.793   9.953  35.659  0.00  0.00    -0.281 N 
ATOM      2  C5  UNL     1      17.567  11.327  36.026  0.00  0.00    +0.250 C 
ATOM      3  O1  UNL     1      18.524  12.027  36.456  0.00  0.00    -0.270 OA
ATOM      4  H5  UNL     1      16.976   9.343  35.435  0.00  0.00    +0.155 HD
ENDROOT
BRANCH   2   5
ATOM      5  C6  UNL     1      16.223  11.942  35.917  0.00  0.00    +0.057 A 
ATOM      6  C7  UNL     1      15.924  12.896  34.928  0.00  0.00    +0.125 A 
ATOM      7  N2  UNL     1      14.682  13.445  34.856  0.00  0.00    -0.246 NA
ATOM      8  C8  UNL     1      13.690  13.093  35.712  0.00  0.00    +0.119 A 
ATOM      9  C9  UNL     1      13.918  12.104  36.682  0.00  0.00    +0.066 A 
ATOM     10  C10 UNL     1      15.195  11.543  36.788  0.00  0.00    +0.040 A 
ATOM     11  N3  UNL     1      12.841  11.609  37.492  0.00  0.00    -0.283 N 
ATOM     12  C11 UNL     1      11.472  11.750  37.086  0.00  0.00    +0.228 C 
ATOM     13  O2  UNL     1      10.554  11.273  37.805  0.00  0.00    -0.275 OA
ATOM     14  C12 UNL     1      11.133  12.415  35.786  0.00  0.00    +0.172 C 
ATOM     15  S1  UNL     1      12.109  13.942  35.627  0.00  0.00    -0.095 S 
ATOM     16  H8  UNL     1      13.056  11.037  38.341  0.00  0.00    +0.155 HD
ENDBRANCH   2   5
BRANCH   1  20
ATOM     17  C1  UNL     1      21.073   6.970  37.879  0.00  0.00    +0.045 C 
ATOM     18  C2  UNL     1      20.705   7.852  36.717  0.00  0.00    -0.034 A 
ATOM     19  C3  UNL     1      19.456   8.493  36.705  0.00  0.00    +0.027 A 
ATOM     20  C4  UNL     1      19.089   9.331  35.647  0.00  0.00    +0.034 A 
ATOM     21  C13 UNL     1      19.967   9.495  34.564  0.00  0.00    +0.027 A 
ATOM     22  C14 UNL     1      21.221   8.865  34.555  0.00  0.00    -0.034 A 
ATOM     23  C15 UNL     1      22.142   9.064  33.383  0.00  0.00    +0.045 C 
ATOM     24  C16 UNL     1      21.596   8.040  35.639  0.00  0.00    +0.024 A 
ATOM     25 BR1  UNL     1      23.316   7.165  35.639  0.00  0.00    -0.050 Br
ENDBRANCH   1  20
TORSDOF 2
ENDMDL
MODEL 8
REMARK VINA RESULT:    -5.771      8.950     12.011
REMARK INTER + INTRA:          -6.730
REMARK INTER:                  -6.378
REMARK INTRA:                  -0.352
REMARK UNBOUND:                -0.284
REMARK  Name = /home/qwerty/github/datacon2025hack/step_04_hit_selection/docking/ligands/lig_620.pdb
REMARK  4 active torsions:
REMARK  status: ('A' for Active; 'I' for Inactive)
REMARK    1  A    between atoms: C1_1  and  C2_2
REMARK    2  A    between atoms: C4_4  and  N1_5
REMARK    3  A    between atoms: C5_6  and  C6_8
REMARK    4  A    between atoms: C14_20  and  C15_21
REMARK                            x       y       z     vdW  Elec       q    Type
REMARK                         _______ _______ _______ _____ _____    ______ ____
ROOT
ATOM      1  N1  UNL     1      21.291   4.314  25.618  0.00  0.00    -0.281 N 
ATOM      2  C5  UNL     1      22.263   5.085  24.886  0.00  0.00    +0.250 C 
ATOM      3  O1  UNL     1      23.302   5.500  25.468  0.00  0.00    -0.270 OA
ATOM      4  H5  UNL     1      20.374   4.091  25.171  0.00  0.00    +0.155 HD
ENDROOT
BRANCH   2   5
ATOM      5  C6  UNL     1      22.067   5.411  23.453  0.00  0.00    +0.057 A 
ATOM      6  C7  UNL     1      21.007   4.864  22.709  0.00  0.00    +0.125 A 
ATOM      7  N2  UNL     1      20.856   5.179  21.395  0.00  0.00    -0.246 NA
ATOM      8  C8  UNL     1      21.699   6.032  20.759  0.00  0.00    +0.119 A 
ATOM      9  C9  UNL     1      22.740   6.650  21.470  0.00  0.00    +0.066 A 
ATOM     10  C10 UNL     1      22.927   6.322  22.816  0.00  0.00    +0.040 A 
ATOM     11  N3  UNL     1      23.544   7.669  20.855  0.00  0.00    -0.283 N 
ATOM     12  C11 UNL     1      23.082   8.396  19.708  0.00  0.00    +0.228 C 
ATOM     13  O2  UNL     1      23.799   9.307  19.215  0.00  0.00    -0.275 OA
ATOM     14  C12 UNL     1      21.730   8.114  19.125  0.00  0.00    +0.172 C 
ATOM     15  S1  UNL     1      21.502   6.314  18.995  0.00  0.00    -0.095 S 
ATOM     16  H8  UNL     1      24.436   7.966  21.312  0.00  0.00    +0.155 HD
ENDBRANCH   2   5
BRANCH   1  20
ATOM     17  C1  UNL     1      20.808   5.265  30.460  0.00  0.00    +0.045 C 
ATOM     18  C2  UNL     1      21.224   4.326  29.360  0.00  0.00    -0.034 A 
ATOM     19  C3  UNL     1      21.082   4.724  28.022  0.00  0.00    +0.027 A 
ATOM     20  C4  UNL     1      21.472   3.881  26.977  0.00  0.00    +0.034 A 
ATOM     21  C13 UNL     1      21.972   2.603  27.275  0.00  0.00    +0.027 A 
ATOM     22  C14 UNL     1      22.124   2.185  28.606  0.00  0.00    -0.034 A 
ATOM     23  C15 UNL     1      22.666   0.812  28.893  0.00  0.00    +0.045 C 
ATOM     24  C16 UNL     1      21.752   3.051  29.657  0.00  0.00    +0.024 A 
ATOM     25 BR1  UNL     1      21.952   2.489  31.491  0.00  0.00    -0.050 Br
ENDBRANCH   1  20
TORSDOF 2
ENDMDL
MODEL 9
REMARK VINA RESULT:    -5.732     15.313     15.722
REMARK INTER + INTRA:          -6.686
REMARK INTER:                  -6.332
REMARK INTRA:                  -0.354
REMARK UNBOUND:                -0.284
REMARK  Name = /home/qwerty/github/datacon2025hack/step_04_hit_selection/docking/ligands/lig_620.pdb
REMARK  4 active torsions:
REMARK  status: ('A' for Active; 'I' for Inactive)
REMARK    1  A    between atoms: C1_1  and  C2_2
REMARK    2  A    between atoms: C4_4  and  N1_5
REMARK    3  A    between atoms: C5_6  and  C6_8
REMARK    4  A    between atoms: C14_20  and  C15_21
REMARK                            x       y       z     vdW  Elec       q    Type
REMARK                         _______ _______ _______ _____ _____    ______ ____
ROOT
ATOM      1  N1  UNL     1      12.383   5.486  21.625  0.00  0.00    -0.281 N 
ATOM      2  C5  UNL     1      12.178   4.319  20.806  0.00  0.00    +0.250 C 
ATOM      3  O1  UNL     1      11.109   4.193  20.148  0.00  0.00    -0.270 OA
ATOM      4  H5  UNL     1      13.203   5.521  22.270  0.00  0.00    +0.155 HD
ENDROOT
BRANCH   2   5
ATOM      5  C6  UNL     1      13.199   3.247  20.724  0.00  0.00    +0.057 A 
ATOM      6  C7  UNL     1      14.321   3.358  19.885  0.00  0.00    +0.125 A 
ATOM      7  N2  UNL     1      15.239   2.356  19.829  0.00  0.00    -0.246 NA
ATOM      8  C8  UNL     1      15.120   1.230  20.577  0.00  0.00    +0.119 A 
ATOM      9  C9  UNL     1      14.049   1.093  21.473  0.00  0.00    +0.066 A 
ATOM     10  C10 UNL     1      13.082   2.102  21.530  0.00  0.00    +0.040 A 
ATOM     11  N3  UNL     1      13.990  -0.017  22.383  0.00  0.00    -0.283 N 
ATOM     12  C11 UNL     1      15.165  -0.764  22.729  0.00  0.00    +0.228 C 
ATOM     13  O2  UNL     1      15.084  -1.710  23.557  0.00  0.00    -0.275 OA
ATOM     14  C12 UNL     1      16.498  -0.390  22.153  0.00  0.00    +0.172 C 
ATOM     15  S1  UNL     1      16.312  -0.098  20.367  0.00  0.00    -0.095 S 
ATOM     16  H8  UNL     1      13.098  -0.221  22.889  0.00  0.00    +0.155 HD
ENDBRANCH   2   5
BRANCH   1  20
ATOM     17  C1  UNL     1       8.680   7.844  23.929  0.00  0.00    +0.045 C 
ATOM     18  C2  UNL     1       9.670   7.783  22.798  0.00  0.00    -0.034 A 
ATOM     19  C3  UNL     1      10.555   6.697  22.713  0.00  0.00    +0.027 A 
ATOM     20  C4  UNL     1      11.478   6.603  21.666  0.00  0.00    +0.034 A 
ATOM     21  C13 UNL     1      11.545   7.632  20.715  0.00  0.00    +0.027 A 
ATOM     22  C14 UNL     1      10.670   8.728  20.780  0.00  0.00    -0.034 A 
ATOM     23  C15 UNL     1      10.764   9.813  19.743  0.00  0.00    +0.045 C 
ATOM     24  C16 UNL     1       9.723   8.804  21.825  0.00  0.00    +0.024 A 
ATOM     25 BR1  UNL     1       8.515  10.305  21.929  0.00  0.00    -0.050 Br
ENDBRANCH   1  20
TORSDOF 2
ENDMDL
