MODEL 1
REMARK VINA RESULT:    -7.236      0.000      0.000
REMARK INTER + INTRA:         -10.678
REMARK INTER:                  -9.774
REMARK INTRA:                  -0.905
REMARK UNBOUND:                -0.905
REMARK  Name = /home/qwerty/github/datacon2025hack/step_04_hit_selection/docking/ligands/lig_658.pdb
REMARK  7 active torsions:
REMARK  status: ('A' for Active; 'I' for Inactive)
REMARK    1  A    between atoms: C1_1  and  C2_2
REMARK    2  A    between atoms: C2_2  and  N1_3
REMARK    3  A    between atoms: N2_6  and  C5_7
REMARK    4  A    between atoms: C8_10  and  N3_11
REMARK    5  A    between atoms: C9_12  and  C10_14
REMARK    6  A    between atoms: C13_17  and  N4_18
REMARK    7  A    between atoms: C14_19  and  C15_21
REMARK                            x       y       z     vdW  Elec       q    Type
REMARK                         _______ _______ _______ _____ _____    ______ ____
ROOT
ATOM      1  N3  UNL     1      14.057  15.039  26.715  0.00  0.00    -0.281 N 
ATOM      2  C9  UNL     1      15.151  15.348  27.595  0.00  0.00    +0.248 C 
ATOM      3  O1  UNL     1      14.956  15.394  28.840  0.00  0.00    -0.270 OA
ATOM      4  H12 UNL     1      14.073  15.448  25.754  0.00  0.00    +0.155 HD
ENDROOT
BRANCH   1   8
ATOM      5  C5  UNL     1      10.589  12.922  27.983  0.00  0.00    +0.048 A 
ATOM      6  C6  UNL     1      10.593  14.323  27.984  0.00  0.00    +0.026 A 
ATOM      7  C7  UNL     1      11.726  15.028  27.572  0.00  0.00    +0.025 A 
ATOM      8  C8  UNL     1      12.869  14.339  27.126  0.00  0.00    +0.035 A 
ATOM      9  C23 UNL     1      12.865  12.936  27.135  0.00  0.00    +0.045 A 
ATOM     10  C24 UNL     1      11.734  12.226  27.554  0.00  0.00    +0.064 A 
ATOM     11 CL1  UNL     1      11.765  10.468  27.490  0.00  0.00    -0.082 Cl
BRANCH   5  15
ATOM     12  N1  UNL     1       7.767  10.032  29.090  0.00  0.00    -0.300 NA
ATOM     13  C3  UNL     1       8.073  10.328  27.673  0.00  0.00    +0.103 C 
ATOM     14  C4  UNL     1       8.375  11.818  27.491  0.00  0.00    +0.120 C 
ATOM     15  N2  UNL     1       9.420  12.219  28.432  0.00  0.00    -0.326 N 
ATOM     16  C25 UNL     1       9.262  11.852  29.840  0.00  0.00    +0.120 C 
ATOM     17  C26 UNL     1       8.934  10.362  29.940  0.00  0.00    +0.103 C 
BRANCH  12  19
ATOM     18  C1  UNL     1       7.137   8.284  30.718  0.00  0.00    +0.020 C 
ATOM     19  C2  UNL     1       7.385   8.613  29.248  0.00  0.00    +0.081 C 
ENDBRANCH  12  19
ENDBRANCH   5  15
ENDBRANCH   1   8
BRANCH   2  20
ATOM     20  C10 UNL     1      16.496  15.668  27.055  0.00  0.00    +0.037 A 
ATOM     21  C11 UNL     1      16.730  16.866  26.354  0.00  0.00    +0.015 A 
ATOM     22  C12 UNL     1      18.003  17.158  25.854  0.00  0.00    +0.024 A 
ATOM     23  C13 UNL     1      19.060  16.254  26.024  0.00  0.00    +0.033 A 
ATOM     24  C21 UNL     1      18.831  15.061  26.729  0.00  0.00    +0.024 A 
ATOM     25  C22 UNL     1      17.561  14.768  27.232  0.00  0.00    +0.015 A 
BRANCH  23  26
ATOM     26  N4  UNL     1      20.366  16.592  25.529  0.00  0.00    -0.285 N 
ATOM     27  C14 UNL     1      20.866  16.181  24.248  0.00  0.00    +0.220 C 
ATOM     28  O2  UNL     1      20.066  15.790  23.356  0.00  0.00    -0.275 OA
ATOM     29  H15 UNL     1      20.970  17.209  26.119  0.00  0.00    +0.155 HD
BRANCH  27  30
ATOM     30  C15 UNL     1      22.357  16.201  23.990  0.00  0.00    +0.075 C 
ATOM     31  C16 UNL     1      22.900  14.885  23.385  0.00  0.00    +0.013 C 
ATOM     32  C17 UNL     1      23.039  13.750  24.415  0.00  0.00    +0.001 C 
ATOM     33  C18 UNL     1      23.822  14.202  25.652  0.00  0.00    +0.000 C 
ATOM     34  C19 UNL     1      23.188  15.447  26.278  0.00  0.00    +0.001 C 
ATOM     35  C20 UNL     1      23.131  16.595  25.264  0.00  0.00    +0.013 C 
ENDBRANCH  27  30
ENDBRANCH  23  26
ENDBRANCH   2  20
TORSDOF 6
ENDMDL
MODEL 2
REMARK VINA RESULT:    -7.138      9.961     11.775
REMARK INTER + INTRA:         -10.547
REMARK INTER:                  -9.467
REMARK INTRA:                  -1.080
REMARK UNBOUND:                -0.905
REMARK  Name = /home/qwerty/github/datacon2025hack/step_04_hit_selection/docking/ligands/lig_658.pdb
REMARK  7 active torsions:
REMARK  status: ('A' for Active; 'I' for Inactive)
REMARK    1  A    between atoms: C1_1  and  C2_2
REMARK    2  A    between atoms: C2_2  and  N1_3
REMARK    3  A    between atoms: N2_6  and  C5_7
REMARK    4  A    between atoms: C8_10  and  N3_11
REMARK    5  A    between atoms: C9_12  and  C10_14
REMARK    6  A    between atoms: C13_17  and  N4_18
REMARK    7  A    between atoms: C14_19  and  C15_21
REMARK                            x       y       z     vdW  Elec       q    Type
REMARK                         _______ _______ _______ _____ _____    ______ ____
ROOT
ATOM      1  N3  UNL     1      22.582   5.854  24.317  0.00  0.00    -0.281 N 
ATOM      2  C9  UNL     1      21.891   5.872  23.056  0.00  0.00    +0.248 C 
ATOM      3  O1  UNL     1      21.234   4.859  22.690  0.00  0.00    -0.270 OA
ATOM      4  H12 UNL     1      23.453   6.423  24.404  0.00  0.00    +0.155 HD
ENDROOT
BRANCH   1   8
ATOM      5  C5  UNL     1      21.492   3.264  27.514  0.00  0.00    +0.048 A 
ATOM      6  C6  UNL     1      22.605   2.963  26.717  0.00  0.00    +0.026 A 
ATOM      7  C7  UNL     1      22.970   3.804  25.664  0.00  0.00    +0.025 A 
ATOM      8  C8  UNL     1      22.240   4.979  25.407  0.00  0.00    +0.035 A 
ATOM      9  C23 UNL     1      21.121   5.273  26.200  0.00  0.00    +0.045 A 
ATOM     10  C24 UNL     1      20.748   4.428  27.252  0.00  0.00    +0.064 A 
ATOM     11 CL1  UNL     1      19.370   4.876  28.250  0.00  0.00    -0.082 Cl
BRANCH   5  15
ATOM     12  N1  UNL     1      19.641   1.351  30.747  0.00  0.00    -0.300 NA
ATOM     13  C3  UNL     1      20.468   2.565  30.922  0.00  0.00    +0.103 C 
ATOM     14  C4  UNL     1      21.636   2.563  29.933  0.00  0.00    +0.120 C 
ATOM     15  N2  UNL     1      21.123   2.372  28.577  0.00  0.00    -0.326 N 
ATOM     16  C25 UNL     1      20.191   1.269  28.339  0.00  0.00    +0.120 C 
ATOM     17  C26 UNL     1      19.072   1.318  29.380  0.00  0.00    +0.103 C 
BRANCH  12  19
ATOM     18  C1  UNL     1      18.458  -0.090  32.368  0.00  0.00    +0.020 C 
ATOM     19  C2  UNL     1      18.569   1.308  31.764  0.00  0.00    +0.081 C 
ENDBRANCH  12  19
ENDBRANCH   5  15
ENDBRANCH   1   8
BRANCH   2  20
ATOM     20  C10 UNL     1      21.986   7.045  22.152  0.00  0.00    +0.037 A 
ATOM     21  C11 UNL     1      20.888   7.904  21.961  0.00  0.00    +0.015 A 
ATOM     22  C12 UNL     1      20.990   9.009  21.109  0.00  0.00    +0.024 A 
ATOM     23  C13 UNL     1      22.181   9.265  20.416  0.00  0.00    +0.033 A 
ATOM     24  C21 UNL     1      23.281   8.413  20.609  0.00  0.00    +0.024 A 
ATOM     25  C22 UNL     1      23.181   7.310  21.461  0.00  0.00    +0.015 A 
BRANCH  23  26
ATOM     26  N4  UNL     1      22.272  10.425  19.572  0.00  0.00    -0.285 N 
ATOM     27  C14 UNL     1      22.532  11.750  20.061  0.00  0.00    +0.220 C 
ATOM     28  O2  UNL     1      23.026  11.912  21.209  0.00  0.00    -0.275 OA
ATOM     29  H15 UNL     1      22.187  10.288  18.539  0.00  0.00    +0.155 HD
BRANCH  27  30
ATOM     30  C15 UNL     1      22.188  12.942  19.195  0.00  0.00    +0.075 C 
ATOM     31  C16 UNL     1      22.313  14.299  19.929  0.00  0.00    +0.013 C 
ATOM     32  C17 UNL     1      21.142  14.586  20.885  0.00  0.00    +0.001 C 
ATOM     33  C18 UNL     1      19.788  14.410  20.190  0.00  0.00    +0.000 C 
ATOM     34  C19 UNL     1      19.668  13.017  19.568  0.00  0.00    +0.001 C 
ATOM     35  C20 UNL     1      20.795  12.776  18.556  0.00  0.00    +0.013 C 
ENDBRANCH  27  30
ENDBRANCH  23  26
ENDBRANCH   2  20
TORSDOF 6
ENDMDL
MODEL 3
REMARK VINA RESULT:    -7.125     10.479     11.303
REMARK INTER + INTRA:         -10.529
REMARK INTER:                  -9.613
REMARK INTRA:                  -0.917
REMARK UNBOUND:                -0.905
REMARK  Name = /home/qwerty/github/datacon2025hack/step_04_hit_selection/docking/ligands/lig_658.pdb
REMARK  7 active torsions:
REMARK  status: ('A' for Active; 'I' for Inactive)
REMARK    1  A    between atoms: C1_1  and  C2_2
REMARK    2  A    between atoms: C2_2  and  N1_3
REMARK    3  A    between atoms: N2_6  and  C5_7
REMARK    4  A    between atoms: C8_10  and  N3_11
REMARK    5  A    between atoms: C9_12  and  C10_14
REMARK    6  A    between atoms: C13_17  and  N4_18
REMARK    7  A    between atoms: C14_19  and  C15_21
REMARK                            x       y       z     vdW  Elec       q    Type
REMARK                         _______ _______ _______ _____ _____    ______ ____
ROOT
ATOM      1  N3  UNL     1      17.053   5.693  19.629  0.00  0.00    -0.281 N 
ATOM      2  C9  UNL     1      16.675   6.925  20.267  0.00  0.00    +0.248 C 
ATOM      3  O1  UNL     1      15.685   6.944  21.049  0.00  0.00    -0.270 OA
ATOM      4  H12 UNL     1      17.505   5.750  18.688  0.00  0.00    +0.155 HD
ENDROOT
BRANCH   1   8
ATOM      5  C5  UNL     1      16.006   1.870  21.178  0.00  0.00    +0.048 A 
ATOM      6  C6  UNL     1      15.402   2.339  20.004  0.00  0.00    +0.026 A 
ATOM      7  C7  UNL     1      15.736   3.593  19.488  0.00  0.00    +0.025 A 
ATOM      8  C8  UNL     1      16.703   4.390  20.127  0.00  0.00    +0.035 A 
ATOM      9  C23 UNL     1      17.299   3.922  21.308  0.00  0.00    +0.045 A 
ATOM     10  C24 UNL     1      16.961   2.669  21.832  0.00  0.00    +0.064 A 
ATOM     11 CL1  UNL     1      17.782   2.108  23.284  0.00  0.00    -0.082 Cl
BRANCH   5  15
ATOM     12  N1  UNL     1      15.575  -1.610  23.466  0.00  0.00    -0.300 NA
ATOM     13  C3  UNL     1      16.766  -1.367  22.624  0.00  0.00    +0.103 C 
ATOM     14  C4  UNL     1      16.375  -0.619  21.347  0.00  0.00    +0.120 C 
ATOM     15  N2  UNL     1      15.628   0.588  21.702  0.00  0.00    -0.326 N 
ATOM     16  C25 UNL     1      14.510   0.460  22.637  0.00  0.00    +0.120 C 
ATOM     17  C26 UNL     1      14.967  -0.321  23.869  0.00  0.00    +0.103 C 
BRANCH  12  19
ATOM     18  C1  UNL     1      14.686  -2.910  25.371  0.00  0.00    +0.020 C 
ATOM     19  C2  UNL     1      15.939  -2.415  24.653  0.00  0.00    +0.081 C 
ENDBRANCH  12  19
ENDBRANCH   5  15
ENDBRANCH   1   8
BRANCH   2  20
ATOM     20  C10 UNL     1      17.399   8.187  19.977  0.00  0.00    +0.037 A 
ATOM     21  C11 UNL     1      16.703   9.394  19.779  0.00  0.00    +0.015 A 
ATOM     22  C12 UNL     1      17.396  10.578  19.510  0.00  0.00    +0.024 A 
ATOM     23  C13 UNL     1      18.794  10.578  19.413  0.00  0.00    +0.033 A 
ATOM     24  C21 UNL     1      19.493   9.377  19.617  0.00  0.00    +0.024 A 
ATOM     25  C22 UNL     1      18.802   8.193  19.888  0.00  0.00    +0.015 A 
BRANCH  23  26
ATOM     26  N4  UNL     1      19.486  11.814  19.168  0.00  0.00    -0.285 N 
ATOM     27  C14 UNL     1      19.492  12.920  20.083  0.00  0.00    +0.220 C 
ATOM     28  O2  UNL     1      19.173  12.743  21.289  0.00  0.00    -0.275 OA
ATOM     29  H15 UNL     1      20.053  11.894  18.294  0.00  0.00    +0.155 HD
BRANCH  27  30
ATOM     30  C15 UNL     1      19.862  14.299  19.580  0.00  0.00    +0.075 C 
ATOM     31  C16 UNL     1      20.967  14.288  18.497  0.00  0.00    +0.013 C 
ATOM     32  C17 UNL     1      22.378  14.057  19.066  0.00  0.00    +0.001 C 
ATOM     33  C18 UNL     1      22.687  15.017  20.220  0.00  0.00    +0.000 C 
ATOM     34  C19 UNL     1      21.623  14.918  21.316  0.00  0.00    +0.001 C 
ATOM     35  C20 UNL     1      20.232  15.231  20.751  0.00  0.00    +0.013 C 
ENDBRANCH  27  30
ENDBRANCH  23  26
ENDBRANCH   2  20
TORSDOF 6
ENDMDL
MODEL 4
REMARK VINA RESULT:    -7.020      2.423     12.165
REMARK INTER + INTRA:         -10.387
REMARK INTER:                  -9.314
REMARK INTRA:                  -1.073
REMARK UNBOUND:                -0.905
REMARK  Name = /home/qwerty/github/datacon2025hack/step_04_hit_selection/docking/ligands/lig_658.pdb
REMARK  7 active torsions:
REMARK  status: ('A' for Active; 'I' for Inactive)
REMARK    1  A    between atoms: C1_1  and  C2_2
REMARK    2  A    between atoms: C2_2  and  N1_3
REMARK    3  A    between atoms: N2_6  and  C5_7
REMARK    4  A    between atoms: C8_10  and  N3_11
REMARK    5  A    between atoms: C9_12  and  C10_14
REMARK    6  A    between atoms: C13_17  and  N4_18
REMARK    7  A    between atoms: C14_19  and  C15_21
REMARK                            x       y       z     vdW  Elec       q    Type
REMARK                         _______ _______ _______ _____ _____    ______ ____
ROOT
ATOM      1  N3  UNL     1      14.208  14.583  28.274  0.00  0.00    -0.281 N 
ATOM      2  C9  UNL     1      13.278  14.478  27.183  0.00  0.00    +0.248 C 
ATOM      3  O1  UNL     1      13.518  15.077  26.099  0.00  0.00    -0.270 OA
ATOM      4  H12 UNL     1      13.830  14.522  29.246  0.00  0.00    +0.155 HD
ENDROOT
BRANCH   1   8
ATOM      5  C5  UNL     1      18.311  15.577  27.726  0.00  0.00    +0.048 A 
ATOM      6  C6  UNL     1      17.436  16.507  28.304  0.00  0.00    +0.026 A 
ATOM      7  C7  UNL     1      16.088  16.192  28.486  0.00  0.00    +0.025 A 
ATOM      8  C8  UNL     1      15.597  14.927  28.116  0.00  0.00    +0.035 A 
ATOM      9  C23 UNL     1      16.472  14.002  27.529  0.00  0.00    +0.045 A 
ATOM     10  C24 UNL     1      17.823  14.316  27.338  0.00  0.00    +0.064 A 
ATOM     11 CL1  UNL     1      18.888  13.096  26.650  0.00  0.00    -0.082 Cl
BRANCH   5  15
ATOM     12  N1  UNL     1      22.384  15.644  26.756  0.00  0.00    -0.300 NA
ATOM     13  C3  UNL     1      21.869  14.911  27.933  0.00  0.00    +0.103 C 
ATOM     14  C4  UNL     1      20.690  15.661  28.558  0.00  0.00    +0.120 C 
ATOM     15  N2  UNL     1      19.688  15.932  27.527  0.00  0.00    -0.326 N 
ATOM     16  C25 UNL     1      20.131  16.539  26.272  0.00  0.00    +0.120 C 
ATOM     17  C26 UNL     1      21.326  15.756  25.726  0.00  0.00    +0.103 C 
BRANCH  12  19
ATOM     18  C1  UNL     1      24.000  15.602  24.887  0.00  0.00    +0.020 C 
ATOM     19  C2  UNL     1      23.580  14.967  26.211  0.00  0.00    +0.081 C 
ENDBRANCH  12  19
ENDBRANCH   5  15
ENDBRANCH   1   8
BRANCH   2  20
ATOM     20  C10 UNL     1      12.010  13.721  27.332  0.00  0.00    +0.037 A 
ATOM     21  C11 UNL     1      11.932  12.360  26.983  0.00  0.00    +0.015 A 
ATOM     22  C12 UNL     1      10.732  11.657  27.132  0.00  0.00    +0.024 A 
ATOM     23  C13 UNL     1       9.584  12.302  27.610  0.00  0.00    +0.033 A 
ATOM     24  C21 UNL     1       9.660  13.659  27.966  0.00  0.00    +0.024 A 
ATOM     25  C22 UNL     1      10.858  14.362  27.820  0.00  0.00    +0.015 A 
BRANCH  23  26
ATOM     26  N4  UNL     1       8.372  11.549  27.785  0.00  0.00    -0.285 N 
ATOM     27  C14 UNL     1       8.088  10.751  28.943  0.00  0.00    +0.220 C 
ATOM     28  O2  UNL     1       8.733  10.936  30.010  0.00  0.00    -0.275 OA
ATOM     29  H15 UNL     1       7.638  11.623  27.045  0.00  0.00    +0.155 HD
BRANCH  27  30
ATOM     30  C15 UNL     1       7.025   9.677  28.864  0.00  0.00    +0.075 C 
ATOM     31  C16 UNL     1       6.951   8.782  30.124  0.00  0.00    +0.013 C 
ATOM     32  C17 UNL     1       8.079   7.738  30.199  0.00  0.00    +0.001 C 
ATOM     33  C18 UNL     1       8.188   6.928  28.903  0.00  0.00    +0.000 C 
ATOM     34  C19 UNL     1       8.364   7.850  27.694  0.00  0.00    +0.001 C 
ATOM     35  C20 UNL     1       7.190   8.832  27.585  0.00  0.00    +0.013 C 
ENDBRANCH  27  30
ENDBRANCH  23  26
ENDBRANCH   2  20
TORSDOF 6
ENDMDL
MODEL 5
REMARK VINA RESULT:    -6.985     10.070     10.796
REMARK INTER + INTRA:         -10.339
REMARK INTER:                  -9.379
REMARK INTRA:                  -0.961
REMARK UNBOUND:                -0.905
REMARK  Name = /home/qwerty/github/datacon2025hack/step_04_hit_selection/docking/ligands/lig_658.pdb
REMARK  7 active torsions:
REMARK  status: ('A' for Active; 'I' for Inactive)
REMARK    1  A    between atoms: C1_1  and  C2_2
REMARK    2  A    between atoms: C2_2  and  N1_3
REMARK    3  A    between atoms: N2_6  and  C5_7
REMARK    4  A    between atoms: C8_10  and  N3_11
REMARK    5  A    between atoms: C9_12  and  C10_14
REMARK    6  A    between atoms: C13_17  and  N4_18
REMARK    7  A    between atoms: C14_19  and  C15_21
REMARK                            x       y       z     vdW  Elec       q    Type
REMARK                         _______ _______ _______ _____ _____    ______ ____
ROOT
ATOM      1  N3  UNL     1      16.324   6.960  20.086  0.00  0.00    -0.281 N 
ATOM      2  C9  UNL     1      16.400   8.059  21.010  0.00  0.00    +0.248 C 
ATOM      3  O1  UNL     1      15.892   7.944  22.159  0.00  0.00    -0.270 OA
ATOM      4  H12 UNL     1      16.292   7.183  19.066  0.00  0.00    +0.155 HD
ENDROOT
BRANCH   1   8
ATOM      5  C5  UNL     1      15.712   2.892  21.178  0.00  0.00    +0.048 A 
ATOM      6  C6  UNL     1      16.946   3.507  21.429  0.00  0.00    +0.026 A 
ATOM      7  C7  UNL     1      17.159   4.840  21.073  0.00  0.00    +0.025 A 
ATOM      8  C8  UNL     1      16.127   5.591  20.481  0.00  0.00    +0.035 A 
ATOM      9  C23 UNL     1      14.896   4.971  20.222  0.00  0.00    +0.045 A 
ATOM     10  C24 UNL     1      14.681   3.633  20.572  0.00  0.00    +0.064 A 
ATOM     11 CL1  UNL     1      13.099   2.923  20.276  0.00  0.00    -0.082 Cl
BRANCH   5  15
ATOM     12  N1  UNL     1      16.133  -1.026  22.595  0.00  0.00    -0.300 NA
ATOM     13  C3  UNL     1      16.803  -0.561  21.360  0.00  0.00    +0.103 C 
ATOM     14  C4  UNL     1      15.917   0.442  20.617  0.00  0.00    +0.120 C 
ATOM     15  N2  UNL     1      15.525   1.514  21.532  0.00  0.00    -0.326 N 
ATOM     16  C25 UNL     1      14.972   1.143  22.835  0.00  0.00    +0.120 C 
ATOM     17  C26 UNL     1      15.891   0.119  23.503  0.00  0.00    +0.103 C 
BRANCH  12  19
ATOM     18  C1  UNL     1      16.170  -2.699  24.413  0.00  0.00    +0.020 C 
ATOM     19  C2  UNL     1      16.947  -2.064  23.262  0.00  0.00    +0.081 C 
ENDBRANCH  12  19
ENDBRANCH   5  15
ENDBRANCH   1   8
BRANCH   2  20
ATOM     20  C10 UNL     1      17.019   9.348  20.613  0.00  0.00    +0.037 A 
ATOM     21  C11 UNL     1      18.135   9.860  21.301  0.00  0.00    +0.015 A 
ATOM     22  C12 UNL     1      18.712  11.074  20.915  0.00  0.00    +0.024 A 
ATOM     23  C13 UNL     1      18.175  11.810  19.851  0.00  0.00    +0.033 A 
ATOM     24  C21 UNL     1      17.065  11.300  19.158  0.00  0.00    +0.024 A 
ATOM     25  C22 UNL     1      16.489  10.086  19.541  0.00  0.00    +0.015 A 
BRANCH  23  26
ATOM     26  N4  UNL     1      18.805  13.039  19.452  0.00  0.00    -0.285 N 
ATOM     27  C14 UNL     1      20.132  13.116  18.909  0.00  0.00    +0.220 C 
ATOM     28  O2  UNL     1      20.683  12.083  18.442  0.00  0.00    -0.275 OA
ATOM     29  H15 UNL     1      18.249  13.921  19.521  0.00  0.00    +0.155 HD
BRANCH  27  30
ATOM     30  C15 UNL     1      20.866  14.439  18.924  0.00  0.00    +0.075 C 
ATOM     31  C16 UNL     1      22.402  14.299  18.805  0.00  0.00    +0.013 C 
ATOM     32  C17 UNL     1      23.077  13.847  20.112  0.00  0.00    +0.001 C 
ATOM     33  C18 UNL     1      22.652  14.718  21.299  0.00  0.00    +0.000 C 
ATOM     34  C19 UNL     1      21.128  14.744  21.441  0.00  0.00    +0.001 C 
ATOM     35  C20 UNL     1      20.473  15.273  20.160  0.00  0.00    +0.013 C 
ENDBRANCH  27  30
ENDBRANCH  23  26
ENDBRANCH   2  20
TORSDOF 6
ENDMDL
MODEL 6
REMARK VINA RESULT:    -6.858      8.259      9.238
REMARK INTER + INTRA:         -10.168
REMARK INTER:                  -9.102
REMARK INTRA:                  -1.066
REMARK UNBOUND:                -0.905
REMARK  Name = /home/qwerty/github/datacon2025hack/step_04_hit_selection/docking/ligands/lig_658.pdb
REMARK  7 active torsions:
REMARK  status: ('A' for Active; 'I' for Inactive)
REMARK    1  A    between atoms: C1_1  and  C2_2
REMARK    2  A    between atoms: C2_2  and  N1_3
REMARK    3  A    between atoms: N2_6  and  C5_7
REMARK    4  A    between atoms: C8_10  and  N3_11
REMARK    5  A    between atoms: C9_12  and  C10_14
REMARK    6  A    between atoms: C13_17  and  N4_18
REMARK    7  A    between atoms: C14_19  and  C15_21
REMARK                            x       y       z     vdW  Elec       q    Type
REMARK                         _______ _______ _______ _____ _____    ______ ____
ROOT
ATOM      1  N3  UNL     1      18.536   9.215  19.824  0.00  0.00    -0.281 N 
ATOM      2  C9  UNL     1      18.002  10.545  19.699  0.00  0.00    +0.248 C 
ATOM      3  O1  UNL     1      16.867  10.714  19.176  0.00  0.00    -0.270 OA
ATOM      4  H12 UNL     1      19.574   9.101  19.792  0.00  0.00    +0.155 HD
ENDROOT
BRANCH   1   8
ATOM      5  C5  UNL     1      16.086   5.735  19.845  0.00  0.00    +0.048 A 
ATOM      6  C6  UNL     1      16.965   5.966  18.779  0.00  0.00    +0.026 A 
ATOM      7  C7  UNL     1      17.772   7.105  18.760  0.00  0.00    +0.025 A 
ATOM      8  C8  UNL     1      17.730   8.023  19.825  0.00  0.00    +0.035 A 
ATOM      9  C23 UNL     1      16.842   7.795  20.887  0.00  0.00    +0.045 A 
ATOM     10  C24 UNL     1      16.027   6.658  20.906  0.00  0.00    +0.064 A 
ATOM     11 CL1  UNL     1      14.973   6.393  22.289  0.00  0.00    -0.082 Cl
BRANCH   5  15
ATOM     12  N1  UNL     1      13.353   2.691  20.740  0.00  0.00    -0.300 NA
ATOM     13  C3  UNL     1      14.691   2.755  21.368  0.00  0.00    +0.103 C 
ATOM     14  C4  UNL     1      15.722   3.297  20.376  0.00  0.00    +0.120 C 
ATOM     15  N2  UNL     1      15.249   4.569  19.831  0.00  0.00    -0.326 N 
ATOM     16  C25 UNL     1      13.885   4.631  19.304  0.00  0.00    +0.120 C 
ATOM     17  C26 UNL     1      12.918   4.047  20.334  0.00  0.00    +0.103 C 
BRANCH  12  19
ATOM     18  C1  UNL     1      12.820   0.673  22.063  0.00  0.00    +0.020 C 
ATOM     19  C2  UNL     1      12.377   2.080  21.668  0.00  0.00    +0.081 C 
ENDBRANCH  12  19
ENDBRANCH   5  15
ENDBRANCH   1   8
BRANCH   2  20
ATOM     20  C10 UNL     1      18.792  11.726  20.127  0.00  0.00    +0.037 A 
ATOM     21  C11 UNL     1      19.193  12.705  19.199  0.00  0.00    +0.015 A 
ATOM     22  C12 UNL     1      19.934  13.816  19.615  0.00  0.00    +0.024 A 
ATOM     23  C13 UNL     1      20.306  13.961  20.958  0.00  0.00    +0.033 A 
ATOM     24  C21 UNL     1      19.901  12.989  21.889  0.00  0.00    +0.024 A 
ATOM     25  C22 UNL     1      19.160  11.880  21.475  0.00  0.00    +0.015 A 
BRANCH  23  26
ATOM     26  N4  UNL     1      21.039  15.128  21.367  0.00  0.00    -0.285 N 
ATOM     27  C14 UNL     1      22.471  15.190  21.430  0.00  0.00    +0.220 C 
ATOM     28  O2  UNL     1      23.167  14.341  20.810  0.00  0.00    -0.275 OA
ATOM     29  H15 UNL     1      20.498  15.994  21.590  0.00  0.00    +0.155 HD
BRANCH  27  30
ATOM     30  C15 UNL     1      23.134  16.268  22.260  0.00  0.00    +0.075 C 
ATOM     31  C16 UNL     1      24.620  15.981  22.578  0.00  0.00    +0.013 C 
ATOM     32  C17 UNL     1      24.816  14.930  23.686  0.00  0.00    +0.001 C 
ATOM     33  C18 UNL     1      23.997  15.266  24.936  0.00  0.00    +0.000 C 
ATOM     34  C19 UNL     1      22.515  15.439  24.590  0.00  0.00    +0.001 C 
ATOM     35  C20 UNL     1      22.328  16.546  23.545  0.00  0.00    +0.013 C 
ENDBRANCH  27  30
ENDBRANCH  23  26
ENDBRANCH   2  20
TORSDOF 6
ENDMDL
MODEL 7
REMARK VINA RESULT:    -6.814      6.250      7.295
REMARK INTER + INTRA:         -10.109
REMARK INTER:                  -9.232
REMARK INTRA:                  -0.878
REMARK UNBOUND:                -0.905
REMARK  Name = /home/qwerty/github/datacon2025hack/step_04_hit_selection/docking/ligands/lig_658.pdb
REMARK  7 active torsions:
REMARK  status: ('A' for Active; 'I' for Inactive)
REMARK    1  A    between atoms: C1_1  and  C2_2
REMARK    2  A    between atoms: C2_2  and  N1_3
REMARK    3  A    between atoms: N2_6  and  C5_7
REMARK    4  A    between atoms: C8_10  and  N3_11
REMARK    5  A    between atoms: C9_12  and  C10_14
REMARK    6  A    between atoms: C13_17  and  N4_18
REMARK    7  A    between atoms: C14_19  and  C15_21
REMARK                            x       y       z     vdW  Elec       q    Type
REMARK                         _______ _______ _______ _____ _____    ______ ____
ROOT
ATOM      1  N3  UNL     1      20.532  13.807  31.222  0.00  0.00    -0.281 N 
ATOM      2  C9  UNL     1      20.934  12.826  30.251  0.00  0.00    +0.248 C 
ATOM      3  O1  UNL     1      20.625  11.615  30.424  0.00  0.00    -0.270 OA
ATOM      4  H12 UNL     1      21.142  14.646  31.349  0.00  0.00    +0.155 HD
ENDROOT
BRANCH   1   8
ATOM      5  C5  UNL     1      17.333  13.325  33.987  0.00  0.00    +0.048 A 
ATOM      6  C6  UNL     1      17.070  13.764  32.682  0.00  0.00    +0.026 A 
ATOM      7  C7  UNL     1      18.112  13.928  31.767  0.00  0.00    +0.025 A 
ATOM      8  C8  UNL     1      19.436  13.629  32.137  0.00  0.00    +0.035 A 
ATOM      9  C23 UNL     1      19.697  13.200  33.447  0.00  0.00    +0.045 A 
ATOM     10  C24 UNL     1      18.656  13.041  34.369  0.00  0.00    +0.064 A 
ATOM     11 CL1  UNL     1      19.035  12.445  35.980  0.00  0.00    -0.082 Cl
BRANCH   5  15
ATOM     12  N1  UNL     1      13.605  13.280  35.894  0.00  0.00    -0.300 NA
ATOM     13  C3  UNL     1      14.350  14.536  35.657  0.00  0.00    +0.103 C 
ATOM     14  C4  UNL     1      15.856  14.296  35.787  0.00  0.00    +0.120 C 
ATOM     15  N2  UNL     1      16.247  13.187  34.917  0.00  0.00    -0.326 N 
ATOM     16  C25 UNL     1      15.478  11.944  34.992  0.00  0.00    +0.120 C 
ATOM     17  C26 UNL     1      13.987  12.265  34.885  0.00  0.00    +0.103 C 
BRANCH  12  19
ATOM     18  C1  UNL     1      11.401  12.297  35.361  0.00  0.00    +0.020 C 
ATOM     19  C2  UNL     1      12.148  13.531  35.861  0.00  0.00    +0.081 C 
ENDBRANCH  12  19
ENDBRANCH   5  15
ENDBRANCH   1   8
BRANCH   2  20
ATOM     20  C10 UNL     1      21.755  13.208  29.075  0.00  0.00    +0.037 A 
ATOM     21  C11 UNL     1      23.149  13.364  29.183  0.00  0.00    +0.015 A 
ATOM     22  C12 UNL     1      23.912  13.721  28.067  0.00  0.00    +0.024 A 
ATOM     23  C13 UNL     1      23.298  13.949  26.828  0.00  0.00    +0.033 A 
ATOM     24  C21 UNL     1      21.907  13.788  26.715  0.00  0.00    +0.024 A 
ATOM     25  C22 UNL     1      21.143  13.430  27.828  0.00  0.00    +0.015 A 
BRANCH  23  26
ATOM     26  N4  UNL     1      24.107  14.283  25.689  0.00  0.00    -0.285 N 
ATOM     27  C14 UNL     1      23.929  15.471  24.903  0.00  0.00    +0.220 C 
ATOM     28  O2  UNL     1      23.278  16.443  25.369  0.00  0.00    -0.275 OA
ATOM     29  H15 UNL     1      24.899  13.645  25.445  0.00  0.00    +0.155 HD
BRANCH  27  30
ATOM     30  C15 UNL     1      24.511  15.533  23.507  0.00  0.00    +0.075 C 
ATOM     31  C16 UNL     1      23.638  16.327  22.506  0.00  0.00    +0.013 C 
ATOM     32  C17 UNL     1      22.406  15.546  22.016  0.00  0.00    +0.001 C 
ATOM     33  C18 UNL     1      22.786  14.155  21.498  0.00  0.00    +0.000 C 
ATOM     34  C19 UNL     1      23.559  13.367  22.560  0.00  0.00    +0.001 C 
ATOM     35  C20 UNL     1      24.827  14.120  22.978  0.00  0.00    +0.013 C 
ENDBRANCH  27  30
ENDBRANCH  23  26
ENDBRANCH   2  20
TORSDOF 6
ENDMDL
MODEL 8
REMARK VINA RESULT:    -6.739     10.351     14.772
REMARK INTER + INTRA:         -10.008
REMARK INTER:                  -9.019
REMARK INTRA:                  -0.989
REMARK UNBOUND:                -0.905
REMARK  Name = /home/qwerty/github/datacon2025hack/step_04_hit_selection/docking/ligands/lig_658.pdb
REMARK  7 active torsions:
REMARK  status: ('A' for Active; 'I' for Inactive)
REMARK    1  A    between atoms: C1_1  and  C2_2
REMARK    2  A    between atoms: C2_2  and  N1_3
REMARK    3  A    between atoms: N2_6  and  C5_7
REMARK    4  A    between atoms: C8_10  and  N3_11
REMARK    5  A    between atoms: C9_12  and  C10_14
REMARK    6  A    between atoms: C13_17  and  N4_18
REMARK    7  A    between atoms: C14_19  and  C15_21
REMARK                            x       y       z     vdW  Elec       q    Type
REMARK                         _______ _______ _______ _____ _____    ______ ____
ROOT
ATOM      1  N3  UNL     1      16.626   7.817  20.244  0.00  0.00    -0.281 N 
ATOM      2  C9  UNL     1      16.917   6.631  19.486  0.00  0.00    +0.248 C 
ATOM      3  O1  UNL     1      17.569   6.723  18.410  0.00  0.00    -0.270 OA
ATOM      4  H12 UNL     1      15.749   7.830  20.812  0.00  0.00    +0.155 HD
ENDROOT
BRANCH   1   8
ATOM      5  C5  UNL     1      18.913  11.391  19.915  0.00  0.00    +0.048 A 
ATOM      6  C6  UNL     1      17.626  11.330  19.365  0.00  0.00    +0.026 A 
ATOM      7  C7  UNL     1      16.867  10.162  19.465  0.00  0.00    +0.025 A 
ATOM      8  C8  UNL     1      17.377   9.040  20.142  0.00  0.00    +0.035 A 
ATOM      9  C23 UNL     1      18.669   9.100  20.684  0.00  0.00    +0.045 A 
ATOM     10  C24 UNL     1      19.435  10.267  20.580  0.00  0.00    +0.064 A 
ATOM     11 CL1  UNL     1      21.028  10.305  21.327  0.00  0.00    -0.082 Cl
BRANCH   5  15
ATOM     12  N1  UNL     1      21.830  14.387  20.130  0.00  0.00    -0.300 NA
ATOM     13  C3  UNL     1      20.915  14.101  21.256  0.00  0.00    +0.103 C 
ATOM     14  C4  UNL     1      19.535  13.694  20.733  0.00  0.00    +0.120 C 
ATOM     15  N2  UNL     1      19.683  12.596  19.779  0.00  0.00    -0.326 N 
ATOM     16  C25 UNL     1      20.664  12.740  18.703  0.00  0.00    +0.120 C 
ATOM     17  C26 UNL     1      22.005  13.175  19.296  0.00  0.00    +0.103 C 
BRANCH  12  19
ATOM     18  C1  UNL     1      23.775  13.827  21.547  0.00  0.00    +0.020 C 
ATOM     19  C2  UNL     1      23.133  14.870  20.636  0.00  0.00    +0.081 C 
ENDBRANCH  12  19
ENDBRANCH   5  15
ENDBRANCH   1   8
BRANCH   2  20
ATOM     20  C10 UNL     1      16.415   5.304  19.922  0.00  0.00    +0.037 A 
ATOM     21  C11 UNL     1      15.091   4.906  19.659  0.00  0.00    +0.015 A 
ATOM     22  C12 UNL     1      14.631   3.652  20.072  0.00  0.00    +0.024 A 
ATOM     23  C13 UNL     1      15.474   2.781  20.774  0.00  0.00    +0.033 A 
ATOM     24  C21 UNL     1      16.798   3.171  21.033  0.00  0.00    +0.024 A 
ATOM     25  C22 UNL     1      17.260   4.423  20.619  0.00  0.00    +0.015 A 
BRANCH  23  26
ATOM     26  N4  UNL     1      14.987   1.484  21.159  0.00  0.00    -0.285 N 
ATOM     27  C14 UNL     1      14.880   1.044  22.521  0.00  0.00    +0.220 C 
ATOM     28  O2  UNL     1      14.887   1.886  23.458  0.00  0.00    -0.275 OA
ATOM     29  H15 UNL     1      14.653   0.842  20.405  0.00  0.00    +0.155 HD
BRANCH  27  30
ATOM     30  C15 UNL     1      14.780  -0.437  22.818  0.00  0.00    +0.075 C 
ATOM     31  C16 UNL     1      14.716  -0.763  24.329  0.00  0.00    +0.013 C 
ATOM     32  C17 UNL     1      16.078  -0.657  25.036  0.00  0.00    +0.001 C 
ATOM     33  C18 UNL     1      17.160  -1.457  24.303  0.00  0.00    +0.000 C 
ATOM     34  C19 UNL     1      17.260  -1.027  22.837  0.00  0.00    +0.001 C 
ATOM     35  C20 UNL     1      15.915  -1.216  22.124  0.00  0.00    +0.013 C 
ENDBRANCH  27  30
ENDBRANCH  23  26
ENDBRANCH   2  20
TORSDOF 6
ENDMDL
MODEL 9
REMARK VINA RESULT:    -6.725     12.697     14.650
REMARK INTER + INTRA:          -9.989
REMARK INTER:                  -8.900
REMARK INTRA:                  -1.089
REMARK UNBOUND:                -0.905
REMARK  Name = /home/qwerty/github/datacon2025hack/step_04_hit_selection/docking/ligands/lig_658.pdb
REMARK  7 active torsions:
REMARK  status: ('A' for Active; 'I' for Inactive)
REMARK    1  A    between atoms: C1_1  and  C2_2
REMARK    2  A    between atoms: C2_2  and  N1_3
REMARK    3  A    between atoms: N2_6  and  C5_7
REMARK    4  A    between atoms: C8_10  and  N3_11
REMARK    5  A    between atoms: C9_12  and  C10_14
REMARK    6  A    between atoms: C13_17  and  N4_18
REMARK    7  A    between atoms: C14_19  and  C15_21
REMARK                            x       y       z     vdW  Elec       q    Type
REMARK                         _______ _______ _______ _____ _____    ______ ____
ROOT
ATOM      1  N3  UNL     1       8.581   0.182  26.277  0.00  0.00    -0.281 N 
ATOM      2  C9  UNL     1       8.842   1.443  25.638  0.00  0.00    +0.248 C 
ATOM      3  O1  UNL     1       8.274   2.487  26.062  0.00  0.00    -0.270 OA
ATOM      4  H12 UNL     1       8.636  -0.682  25.692  0.00  0.00    +0.155 HD
ENDROOT
BRANCH   1   8
ATOM      5  C5  UNL     1       7.174  -0.137  30.281  0.00  0.00    +0.048 A 
ATOM      6  C6  UNL     1       6.277  -0.259  29.212  0.00  0.00    +0.026 A 
ATOM      7  C7  UNL     1       6.727  -0.153  27.894  0.00  0.00    +0.025 A 
ATOM      8  C8  UNL     1       8.092   0.051  27.624  0.00  0.00    +0.035 A 
ATOM      9  C23 UNL     1       8.986   0.182  28.696  0.00  0.00    +0.045 A 
ATOM     10  C24 UNL     1       8.538   0.084  30.018  0.00  0.00    +0.064 A 
ATOM     11 CL1  UNL     1       9.713   0.200  31.323  0.00  0.00    -0.082 Cl
BRANCH   5  15
ATOM     12  N1  UNL     1       6.726  -0.127  34.445  0.00  0.00    -0.300 NA
ATOM     13  C3  UNL     1       7.420  -1.222  33.732  0.00  0.00    +0.103 C 
ATOM     14  C4  UNL     1       6.761  -1.480  32.376  0.00  0.00    +0.120 C 
ATOM     15  N2  UNL     1       6.683  -0.225  31.628  0.00  0.00    -0.326 N 
ATOM     16  C25 UNL     1       6.128   0.949  32.302  0.00  0.00    +0.120 C 
ATOM     17  C26 UNL     1       6.812   1.125  33.658  0.00  0.00    +0.103 C 
BRANCH  12  19
ATOM     18  C1  UNL     1       6.981   1.451  36.329  0.00  0.00    +0.020 C 
ATOM     19  C2  UNL     1       7.304   0.058  35.793  0.00  0.00    +0.081 C 
ENDBRANCH  12  19
ENDBRANCH   5  15
ENDBRANCH   1   8
BRANCH   2  20
ATOM     20  C10 UNL     1       9.727   1.527  24.450  0.00  0.00    +0.037 A 
ATOM     21  C11 UNL     1      10.644   2.584  24.301  0.00  0.00    +0.015 A 
ATOM     22  C12 UNL     1      11.476   2.650  23.179  0.00  0.00    +0.024 A 
ATOM     23  C13 UNL     1      11.395   1.676  22.174  0.00  0.00    +0.033 A 
ATOM     24  C21 UNL     1      10.485   0.616  22.322  0.00  0.00    +0.024 A 
ATOM     25  C22 UNL     1       9.655   0.547  23.444  0.00  0.00    +0.015 A 
BRANCH  23  26
ATOM     26  N4  UNL     1      12.283   1.747  21.047  0.00  0.00    -0.285 N 
ATOM     27  C14 UNL     1      13.617   1.219  21.047  0.00  0.00    +0.220 C 
ATOM     28  O2  UNL     1      13.960   0.371  21.914  0.00  0.00    -0.275 OA
ATOM     29  H15 UNL     1      11.920   2.170  20.162  0.00  0.00    +0.155 HD
BRANCH  27  30
ATOM     30  C15 UNL     1      14.609   1.704  20.012  0.00  0.00    +0.075 C 
ATOM     31  C16 UNL     1      16.071   1.298  20.315  0.00  0.00    +0.013 C 
ATOM     32  C17 UNL     1      16.725   2.148  21.420  0.00  0.00    +0.001 C 
ATOM     33  C18 UNL     1      16.570   3.647  21.147  0.00  0.00    +0.000 C 
ATOM     34  C19 UNL     1      15.098   4.021  20.955  0.00  0.00    +0.001 C 
ATOM     35  C20 UNL     1      14.482   3.226  19.798  0.00  0.00    +0.013 C 
ENDBRANCH  27  30
ENDBRANCH  23  26
ENDBRANCH   2  20
TORSDOF 6
ENDMDL
