MODEL 1
REMARK VINA RESULT:    -6.637      0.000      0.000
REMARK INTER + INTRA:         -10.648
REMARK INTER:                  -9.741
REMARK INTRA:                  -0.907
REMARK UNBOUND:                -0.907
REMARK  Name = /home/qwerty/github/datacon2025hack/step_04_hit_selection/docking/ligands/lig_335.pdb
REMARK  9 active torsions:
REMARK  status: ('A' for Active; 'I' for Inactive)
REMARK    1  A    between atoms: C1_1  and  C2_2
REMARK    2  A    between atoms: N1_4  and  C3_5
REMARK    3  A    between atoms: C3_5  and  C4_6
REMARK    4  A    between atoms: C3_5  and  C9_11
REMARK    5  A    between atoms: C4_6  and  C5_7
REMARK    6  A    between atoms: N2_13  and  C10_14
REMARK    7  A    between atoms: C13_17  and  C14_18
REMARK    8  A    between atoms: C14_18  and  N3_19
REMARK    9  A    between atoms: N4_22  and  C17_23
REMARK                            x       y       z     vdW  Elec       q    Type
REMARK                         _______ _______ _______ _____ _____    ______ ____
ROOT
ATOM      1  C10 UNL     1      17.493   8.499  19.114  0.00  0.00    +0.033 A 
ATOM      2  C11 UNL     1      16.932   9.757  19.379  0.00  0.00    +0.023 A 
ATOM      3  C12 UNL     1      17.739  10.896  19.418  0.00  0.00    +0.007 A 
ATOM      4  C13 UNL     1      19.118  10.798  19.165  0.00  0.00    -0.033 A 
ATOM      5  C24 UNL     1      19.674   9.545  18.866  0.00  0.00    +0.007 A 
ATOM      6  C25 UNL     1      18.869   8.403  18.845  0.00  0.00    +0.023 A 
ENDROOT
BRANCH   1   9
ATOM      7  C9  UNL     1      16.473   6.453  20.186  0.00  0.00    +0.238 C 
ATOM      8  O2  UNL     1      16.874   6.789  21.336  0.00  0.00    -0.273 OA
ATOM      9  N2  UNL     1      16.647   7.341  19.069  0.00  0.00    -0.284 N 
ATOM     10  H15 UNL     1      16.033   7.209  18.234  0.00  0.00    +0.155 HD
BRANCH   7  11
ATOM     11  C3  UNL     1      15.737   5.151  20.016  0.00  0.00    +0.159 C 
BRANCH  11  15
ATOM     12  C1  UNL     1      11.852   5.197  20.375  0.00  0.00    +0.109 C 
ATOM     13  C2  UNL     1      13.211   4.979  19.791  0.00  0.00    +0.211 C 
ATOM     14  O1  UNL     1      13.320   4.563  18.606  0.00  0.00    -0.276 OA
ATOM     15  N1  UNL     1      14.381   5.290  20.562  0.00  0.00    -0.304 N 
ATOM     16  H4  UNL     1      14.245   5.634  21.539  0.00  0.00    +0.149 HD
ENDBRANCH  11  15
BRANCH  11  17
ATOM     17  C4  UNL     1      16.518   4.006  20.724  0.00  0.00    +0.035 C 
BRANCH  17  18
ATOM     18  C5  UNL     1      15.706   2.740  21.099  0.00  0.00    -0.009 C 
ATOM     19  C6  UNL     1      16.515   1.657  21.812  0.00  0.00    +0.003 C 
ATOM     20  C7  UNL     1      16.192   0.683  20.687  0.00  0.00    +0.001 C 
ATOM     21  C8  UNL     1      15.367   1.752  19.982  0.00  0.00    +0.003 C 
ENDBRANCH  17  18
ENDBRANCH  11  17
ENDBRANCH   7  11
ENDBRANCH   1   9
BRANCH   4  22
ATOM     22  C14 UNL     1      19.987  12.027  19.174  0.00  0.00    +0.119 C 
BRANCH  22  23
ATOM     23  N3  UNL     1      19.458  13.037  20.118  0.00  0.00    -0.295 NA
ATOM     24  C15 UNL     1      19.685  12.700  21.538  0.00  0.00    +0.103 C 
ATOM     25  C16 UNL     1      21.161  12.813  21.950  0.00  0.00    +0.122 C 
ATOM     26  N4  UNL     1      21.749  14.082  21.498  0.00  0.00    -0.313 N 
ATOM     27  C22 UNL     1      21.444  14.556  20.140  0.00  0.00    +0.122 C 
ATOM     28  C23 UNL     1      19.952  14.396  19.823  0.00  0.00    +0.103 C 
BRANCH  26  29
ATOM     29  C17 UNL     1      22.869  14.627  22.232  0.00  0.00    +0.121 A 
ATOM     30  C18 UNL     1      23.125  14.256  23.567  0.00  0.00    +0.043 A 
ATOM     31  C19 UNL     1      24.207  14.825  24.245  0.00  0.00    +0.005 A 
ATOM     32  C20 UNL     1      25.019  15.762  23.603  0.00  0.00    +0.020 A 
ATOM     33  C21 UNL     1      24.737  16.116  22.284  0.00  0.00    +0.113 A 
ATOM     34  N5  UNL     1      23.682  15.548  21.637  0.00  0.00    -0.240 NA
ENDBRANCH  26  29
ENDBRANCH  22  23
ENDBRANCH   4  22
TORSDOF 8
ENDMDL
MODEL 2
REMARK VINA RESULT:    -6.462     10.854     16.080
REMARK INTER + INTRA:         -10.391
REMARK INTER:                  -9.315
REMARK INTRA:                  -1.076
REMARK UNBOUND:                -0.907
REMARK  Name = /home/qwerty/github/datacon2025hack/step_04_hit_selection/docking/ligands/lig_335.pdb
REMARK  9 active torsions:
REMARK  status: ('A' for Active; 'I' for Inactive)
REMARK    1  A    between atoms: C1_1  and  C2_2
REMARK    2  A    between atoms: N1_4  and  C3_5
REMARK    3  A    between atoms: C3_5  and  C4_6
REMARK    4  A    between atoms: C3_5  and  C9_11
REMARK    5  A    between atoms: C4_6  and  C5_7
REMARK    6  A    between atoms: N2_13  and  C10_14
REMARK    7  A    between atoms: C13_17  and  C14_18
REMARK    8  A    between atoms: C14_18  and  N3_19
REMARK    9  A    between atoms: N4_22  and  C17_23
REMARK                            x       y       z     vdW  Elec       q    Type
REMARK                         _______ _______ _______ _____ _____    ______ ____
ROOT
ATOM      1  C10 UNL     1      21.768   3.104  32.597  0.00  0.00    +0.033 A 
ATOM      2  C11 UNL     1      22.160   3.577  31.336  0.00  0.00    +0.023 A 
ATOM      3  C12 UNL     1      21.766   2.906  30.176  0.00  0.00    +0.007 A 
ATOM      4  C13 UNL     1      20.951   1.765  30.258  0.00  0.00    -0.033 A 
ATOM      5  C24 UNL     1      20.530   1.311  31.517  0.00  0.00    +0.007 A 
ATOM      6  C25 UNL     1      20.938   1.972  32.679  0.00  0.00    +0.023 A 
ENDROOT
BRANCH   1   9
ATOM      7  C9  UNL     1      21.615   5.078  34.165  0.00  0.00    +0.238 C 
ATOM      8  O2  UNL     1      20.569   5.511  33.605  0.00  0.00    -0.273 OA
ATOM      9  N2  UNL     1      22.174   3.811  33.778  0.00  0.00    -0.284 N 
ATOM     10  H15 UNL     1      22.808   3.325  34.451  0.00  0.00    +0.155 HD
BRANCH   7  11
ATOM     11  C3  UNL     1      22.222   5.862  35.297  0.00  0.00    +0.159 C 
BRANCH  11  15
ATOM     12  C1  UNL     1      20.184   8.450  37.391  0.00  0.00    +0.109 C 
ATOM     13  C2  UNL     1      21.183   7.394  37.040  0.00  0.00    +0.211 C 
ATOM     14  O1  UNL     1      21.889   6.879  37.949  0.00  0.00    -0.276 OA
ATOM     15  N1  UNL     1      21.299   6.938  35.685  0.00  0.00    -0.304 N 
ATOM     16  H4  UNL     1      20.693   7.390  34.963  0.00  0.00    +0.149 HD
ENDBRANCH  11  15
BRANCH  11  17
ATOM     17  C4  UNL     1      23.604   6.430  34.866  0.00  0.00    +0.035 C 
BRANCH  17  18
ATOM     18  C5  UNL     1      23.689   7.053  33.449  0.00  0.00    -0.009 C 
ATOM     19  C6  UNL     1      25.096   7.087  32.855  0.00  0.00    +0.003 C 
ATOM     20  C7  UNL     1      25.013   8.605  32.759  0.00  0.00    +0.001 C 
ATOM     21  C8  UNL     1      23.602   8.575  33.332  0.00  0.00    +0.003 C 
ENDBRANCH  17  18
ENDBRANCH  11  17
ENDBRANCH   7  11
ENDBRANCH   1   9
BRANCH   4  22
ATOM     22  C14 UNL     1      20.496   1.057  29.010  0.00  0.00    +0.119 C 
BRANCH  22  23
ATOM     23  N3  UNL     1      20.044   2.030  27.991  0.00  0.00    -0.295 NA
ATOM     24  C15 UNL     1      20.571   1.761  26.637  0.00  0.00    +0.103 C 
ATOM     25  C16 UNL     1      19.951   0.513  25.991  0.00  0.00    +0.122 C 
ATOM     26  N4  UNL     1      18.485   0.518  26.112  0.00  0.00    -0.313 N 
ATOM     27  C22 UNL     1      17.885   0.920  27.394  0.00  0.00    +0.122 C 
ATOM     28  C23 UNL     1      18.575   2.168  27.956  0.00  0.00    +0.103 C 
BRANCH  26  29
ATOM     29  C17 UNL     1      17.707  -0.203  25.131  0.00  0.00    +0.121 A 
ATOM     30  C18 UNL     1      16.702  -1.115  25.513  0.00  0.00    +0.043 A 
ATOM     31  C19 UNL     1      15.989  -1.806  24.530  0.00  0.00    +0.005 A 
ATOM     32  C20 UNL     1      16.281  -1.601  23.181  0.00  0.00    +0.020 A 
ATOM     33  C21 UNL     1      17.286  -0.699  22.832  0.00  0.00    +0.113 A 
ATOM     34  N5  UNL     1      17.968  -0.030  23.802  0.00  0.00    -0.240 NA
ENDBRANCH  26  29
ENDBRANCH  22  23
ENDBRANCH   4  22
TORSDOF 8
ENDMDL
MODEL 3
REMARK VINA RESULT:    -6.374     12.484     14.299
REMARK INTER + INTRA:         -10.262
REMARK INTER:                  -9.228
REMARK INTRA:                  -1.035
REMARK UNBOUND:                -0.907
REMARK  Name = /home/qwerty/github/datacon2025hack/step_04_hit_selection/docking/ligands/lig_335.pdb
REMARK  9 active torsions:
REMARK  status: ('A' for Active; 'I' for Inactive)
REMARK    1  A    between atoms: C1_1  and  C2_2
REMARK    2  A    between atoms: N1_4  and  C3_5
REMARK    3  A    between atoms: C3_5  and  C4_6
REMARK    4  A    between atoms: C3_5  and  C9_11
REMARK    5  A    between atoms: C4_6  and  C5_7
REMARK    6  A    between atoms: N2_13  and  C10_14
REMARK    7  A    between atoms: C13_17  and  C14_18
REMARK    8  A    between atoms: C14_18  and  N3_19
REMARK    9  A    between atoms: N4_22  and  C17_23
REMARK                            x       y       z     vdW  Elec       q    Type
REMARK                         _______ _______ _______ _____ _____    ______ ____
ROOT
ATOM      1  C10 UNL     1      22.046   3.390  32.305  0.00  0.00    +0.033 A 
ATOM      2  C11 UNL     1      22.977   4.392  32.614  0.00  0.00    +0.023 A 
ATOM      3  C12 UNL     1      22.680   5.358  33.579  0.00  0.00    +0.007 A 
ATOM      4  C13 UNL     1      21.456   5.320  34.268  0.00  0.00    -0.033 A 
ATOM      5  C24 UNL     1      20.539   4.298  33.984  0.00  0.00    +0.007 A 
ATOM      6  C25 UNL     1      20.829   3.342  33.007  0.00  0.00    +0.023 A 
ENDROOT
BRANCH   1   9
ATOM      7  C9  UNL     1      21.912   2.470  29.957  0.00  0.00    +0.238 C 
ATOM      8  O2  UNL     1      21.398   3.533  29.511  0.00  0.00    -0.273 OA
ATOM      9  N2  UNL     1      22.370   2.400  31.318  0.00  0.00    -0.284 N 
ATOM     10  H15 UNL     1      23.074   1.668  31.565  0.00  0.00    +0.155 HD
BRANCH   7  11
ATOM     11  C3  UNL     1      22.115   1.305  29.025  0.00  0.00    +0.159 C 
BRANCH  11  15
ATOM     12  C1  UNL     1      25.156  -1.125  29.308  0.00  0.00    +0.109 C 
ATOM     13  C2  UNL     1      23.772  -0.622  29.044  0.00  0.00    +0.211 C 
ATOM     14  O1  UNL     1      22.867  -1.437  28.715  0.00  0.00    -0.276 OA
ATOM     15  N1  UNL     1      23.470   0.769  29.214  0.00  0.00    -0.304 N 
ATOM     16  H4  UNL     1      24.249   1.409  29.490  0.00  0.00    +0.149 HD
ENDBRANCH  11  15
BRANCH  11  17
ATOM     17  C4  UNL     1      21.885   1.757  27.555  0.00  0.00    +0.035 C 
BRANCH  17  18
ATOM     18  C5  UNL     1      20.719   1.078  26.792  0.00  0.00    -0.009 C 
ATOM     19  C6  UNL     1      20.324   1.772  25.490  0.00  0.00    +0.003 C 
ATOM     20  C7  UNL     1      18.920   1.988  26.037  0.00  0.00    +0.001 C 
ATOM     21  C8  UNL     1      19.301   1.280  27.330  0.00  0.00    +0.003 C 
ENDBRANCH  17  18
ENDBRANCH  11  17
ENDBRANCH   7  11
ENDBRANCH   1   9
BRANCH   4  22
ATOM     22  C14 UNL     1      21.145   6.339  35.331  0.00  0.00    +0.119 C 
BRANCH  22  23
ATOM     23  N3  UNL     1      21.441   7.707  34.850  0.00  0.00    -0.295 NA
ATOM     24  C15 UNL     1      20.407   8.258  33.950  0.00  0.00    +0.103 C 
ATOM     25  C16 UNL     1      19.098   8.596  34.680  0.00  0.00    +0.122 C 
ATOM     26  N4  UNL     1      19.351   9.370  35.904  0.00  0.00    -0.313 N 
ATOM     27  C22 UNL     1      20.465   8.966  36.776  0.00  0.00    +0.122 C 
ATOM     28  C23 UNL     1      21.719   8.645  35.954  0.00  0.00    +0.103 C 
BRANCH  26  29
ATOM     29  C17 UNL     1      18.311  10.245  36.398  0.00  0.00    +0.121 A 
ATOM     30  C18 UNL     1      17.210   9.745  37.122  0.00  0.00    +0.043 A 
ATOM     31  C19 UNL     1      16.217  10.624  37.561  0.00  0.00    +0.005 A 
ATOM     32  C20 UNL     1      16.314  11.987  37.273  0.00  0.00    +0.020 A 
ATOM     33  C21 UNL     1      17.411  12.452  36.549  0.00  0.00    +0.113 A 
ATOM     34  N5  UNL     1      18.372  11.582  36.133  0.00  0.00    -0.240 NA
ENDBRANCH  26  29
ENDBRANCH  22  23
ENDBRANCH   4  22
TORSDOF 8
ENDMDL
MODEL 4
REMARK VINA RESULT:    -6.363     14.703     16.776
REMARK INTER + INTRA:         -10.246
REMARK INTER:                  -9.580
REMARK INTRA:                  -0.666
REMARK UNBOUND:                -0.907
REMARK  Name = /home/qwerty/github/datacon2025hack/step_04_hit_selection/docking/ligands/lig_335.pdb
REMARK  9 active torsions:
REMARK  status: ('A' for Active; 'I' for Inactive)
REMARK    1  A    between atoms: C1_1  and  C2_2
REMARK    2  A    between atoms: N1_4  and  C3_5
REMARK    3  A    between atoms: C3_5  and  C4_6
REMARK    4  A    between atoms: C3_5  and  C9_11
REMARK    5  A    between atoms: C4_6  and  C5_7
REMARK    6  A    between atoms: N2_13  and  C10_14
REMARK    7  A    between atoms: C13_17  and  C14_18
REMARK    8  A    between atoms: C14_18  and  N3_19
REMARK    9  A    between atoms: N4_22  and  C17_23
REMARK                            x       y       z     vdW  Elec       q    Type
REMARK                         _______ _______ _______ _____ _____    ______ ____
ROOT
ATOM      1  C10 UNL     1      16.954   9.950  37.391  0.00  0.00    +0.033 A 
ATOM      2  C11 UNL     1      18.165  10.624  37.178  0.00  0.00    +0.023 A 
ATOM      3  C12 UNL     1      19.370   9.918  37.145  0.00  0.00    +0.007 A 
ATOM      4  C13 UNL     1      19.378   8.521  37.298  0.00  0.00    -0.033 A 
ATOM      5  C24 UNL     1      18.163   7.843  37.476  0.00  0.00    +0.007 A 
ATOM      6  C25 UNL     1      16.960   8.551  37.527  0.00  0.00    +0.023 A 
ENDROOT
BRANCH   1   9
ATOM      7  C9  UNL     1      15.164  11.316  36.246  0.00  0.00    +0.238 C 
ATOM      8  O2  UNL     1      15.611  11.039  35.098  0.00  0.00    -0.273 OA
ATOM      9  N2  UNL     1      15.724  10.691  37.413  0.00  0.00    -0.284 N 
ATOM     10  H15 UNL     1      15.148  10.664  38.284  0.00  0.00    +0.155 HD
BRANCH   7  11
ATOM     11  C3  UNL     1      13.986  12.244  36.372  0.00  0.00    +0.159 C 
BRANCH  11  15
ATOM     12  C1  UNL     1      14.820  15.979  37.135  0.00  0.00    +0.109 C 
ATOM     13  C2  UNL     1      14.313  14.764  36.426  0.00  0.00    +0.211 C 
ATOM     14  O1  UNL     1      13.840  14.876  35.262  0.00  0.00    -0.276 OA
ATOM     15  N1  UNL     1      14.414  13.475  37.048  0.00  0.00    -0.304 N 
ATOM     16  H4  UNL     1      14.815  13.428  38.012  0.00  0.00    +0.149 HD
ENDBRANCH  11  15
BRANCH  11  17
ATOM     17  C4  UNL     1      12.839  11.539  37.151  0.00  0.00    +0.035 C 
BRANCH  17  18
ATOM     18  C5  UNL     1      11.412  11.670  36.559  0.00  0.00    -0.009 C 
ATOM     19  C6  UNL     1      11.369  11.862  35.044  0.00  0.00    +0.003 C 
ATOM     20  C7  UNL     1      10.659  13.195  35.238  0.00  0.00    +0.001 C 
ATOM     21  C8  UNL     1      10.681  13.000  36.748  0.00  0.00    +0.003 C 
ENDBRANCH  17  18
ENDBRANCH  11  17
ENDBRANCH   7  11
ENDBRANCH   1   9
BRANCH   4  22
ATOM     22  C14 UNL     1      20.670   7.752  37.230  0.00  0.00    +0.119 C 
BRANCH  22  23
ATOM     23  N3  UNL     1      20.676   6.839  36.066  0.00  0.00    -0.295 NA
ATOM     24  C15 UNL     1      20.027   7.402  34.864  0.00  0.00    +0.103 C 
ATOM     25  C16 UNL     1      20.842   8.533  34.219  0.00  0.00    +0.122 C 
ATOM     26  N4  UNL     1      22.253   8.153  34.058  0.00  0.00    -0.313 N 
ATOM     27  C22 UNL     1      22.926   7.453  35.163  0.00  0.00    +0.122 C 
ATOM     28  C23 UNL     1      22.031   6.350  35.741  0.00  0.00    +0.103 C 
BRANCH  26  29
ATOM     29  C17 UNL     1      23.025   8.783  33.010  0.00  0.00    +0.121 A 
ATOM     30  C18 UNL     1      24.434   8.807  33.045  0.00  0.00    +0.043 A 
ATOM     31  C19 UNL     1      25.138   9.446  32.022  0.00  0.00    +0.005 A 
ATOM     32  C20 UNL     1      24.446  10.064  30.978  0.00  0.00    +0.020 A 
ATOM     33  C21 UNL     1      23.052  10.030  30.973  0.00  0.00    +0.113 A 
ATOM     34  N5  UNL     1      22.382   9.400  31.976  0.00  0.00    -0.240 NA
ENDBRANCH  26  29
ENDBRANCH  22  23
ENDBRANCH   4  22
TORSDOF 8
ENDMDL
MODEL 5
REMARK VINA RESULT:    -6.360      7.367      9.496
REMARK INTER + INTRA:         -10.240
REMARK INTER:                  -9.468
REMARK INTRA:                  -0.773
REMARK UNBOUND:                -0.907
REMARK  Name = /home/qwerty/github/datacon2025hack/step_04_hit_selection/docking/ligands/lig_335.pdb
REMARK  9 active torsions:
REMARK  status: ('A' for Active; 'I' for Inactive)
REMARK    1  A    between atoms: C1_1  and  C2_2
REMARK    2  A    between atoms: N1_4  and  C3_5
REMARK    3  A    between atoms: C3_5  and  C4_6
REMARK    4  A    between atoms: C3_5  and  C9_11
REMARK    5  A    between atoms: C4_6  and  C5_7
REMARK    6  A    between atoms: N2_13  and  C10_14
REMARK    7  A    between atoms: C13_17  and  C14_18
REMARK    8  A    between atoms: C14_18  and  N3_19
REMARK    9  A    between atoms: N4_22  and  C17_23
REMARK                            x       y       z     vdW  Elec       q    Type
REMARK                         _______ _______ _______ _____ _____    ______ ____
ROOT
ATOM      1  C10 UNL     1      21.515   3.275  25.279  0.00  0.00    +0.033 A 
ATOM      2  C11 UNL     1      20.659   2.905  24.231  0.00  0.00    +0.023 A 
ATOM      3  C12 UNL     1      20.527   3.722  23.106  0.00  0.00    +0.007 A 
ATOM      4  C13 UNL     1      21.271   4.909  22.999  0.00  0.00    -0.033 A 
ATOM      5  C24 UNL     1      22.154   5.261  24.031  0.00  0.00    +0.007 A 
ATOM      6  C25 UNL     1      22.272   4.453  25.165  0.00  0.00    +0.023 A 
ENDROOT
BRANCH   1   9
ATOM      7  C9  UNL     1      21.545   2.898  27.776  0.00  0.00    +0.238 C 
ATOM      8  O2  UNL     1      21.100   4.057  28.011  0.00  0.00    -0.273 OA
ATOM      9  N2  UNL     1      21.645   2.419  26.424  0.00  0.00    -0.284 N 
ATOM     10  H15 UNL     1      21.685   1.387  26.268  0.00  0.00    +0.155 HD
BRANCH   7  11
ATOM     11  C3  UNL     1      21.889   1.996  28.930  0.00  0.00    +0.159 C 
BRANCH  11  15
ATOM     12  C1  UNL     1      21.311   3.079  32.634  0.00  0.00    +0.109 C 
ATOM     13  C2  UNL     1      21.378   2.224  31.410  0.00  0.00    +0.211 C 
ATOM     14  O1  UNL     1      20.969   1.032  31.461  0.00  0.00    -0.276 OA
ATOM     15  N1  UNL     1      21.858   2.775  30.175  0.00  0.00    -0.304 N 
ATOM     16  H4  UNL     1      22.185   3.767  30.177  0.00  0.00    +0.149 HD
ENDBRANCH  11  15
BRANCH  11  17
ATOM     17  C4  UNL     1      23.286   1.352  28.699  0.00  0.00    +0.035 C 
BRANCH  17  18
ATOM     18  C5  UNL     1      23.573   0.024  29.445  0.00  0.00    -0.009 C 
ATOM     19  C6  UNL     1      24.961  -0.561  29.189  0.00  0.00    +0.003 C 
ATOM     20  C7  UNL     1      24.319  -1.822  28.627  0.00  0.00    +0.001 C 
ATOM     21  C8  UNL     1      22.933  -1.253  28.899  0.00  0.00    +0.003 C 
ENDBRANCH  17  18
ENDBRANCH  11  17
ENDBRANCH   7  11
ENDBRANCH   1   9
BRANCH   4  22
ATOM     22  C14 UNL     1      21.158   5.776  21.774  0.00  0.00    +0.119 C 
BRANCH  22  23
ATOM     23  N3  UNL     1      19.748   6.147  21.523  0.00  0.00    -0.295 NA
ATOM     24  C15 UNL     1      19.274   7.277  22.349  0.00  0.00    +0.103 C 
ATOM     25  C16 UNL     1      19.897   8.620  21.937  0.00  0.00    +0.122 C 
ATOM     26  N4  UNL     1      19.823   8.823  20.483  0.00  0.00    -0.313 N 
ATOM     27  C22 UNL     1      20.139   7.692  19.597  0.00  0.00    +0.122 C 
ATOM     28  C23 UNL     1      19.478   6.401  20.094  0.00  0.00    +0.103 C 
BRANCH  26  29
ATOM     29  C17 UNL     1      19.809  10.175  19.972  0.00  0.00    +0.121 A 
ATOM     30  C18 UNL     1      18.670  10.997  20.095  0.00  0.00    +0.043 A 
ATOM     31  C19 UNL     1      18.693  12.290  19.566  0.00  0.00    +0.005 A 
ATOM     32  C20 UNL     1      19.835  12.757  18.913  0.00  0.00    +0.020 A 
ATOM     33  C21 UNL     1      20.944  11.919  18.800  0.00  0.00    +0.113 A 
ATOM     34  N5  UNL     1      20.906  10.663  19.325  0.00  0.00    -0.240 NA
ENDBRANCH  26  29
ENDBRANCH  22  23
ENDBRANCH   4  22
TORSDOF 8
ENDMDL
MODEL 6
REMARK VINA RESULT:    -6.255      8.175     10.822
REMARK INTER + INTRA:         -10.087
REMARK INTER:                  -9.024
REMARK INTRA:                  -1.063
REMARK UNBOUND:                -0.907
REMARK  Name = /home/qwerty/github/datacon2025hack/step_04_hit_selection/docking/ligands/lig_335.pdb
REMARK  9 active torsions:
REMARK  status: ('A' for Active; 'I' for Inactive)
REMARK    1  A    between atoms: C1_1  and  C2_2
REMARK    2  A    between atoms: N1_4  and  C3_5
REMARK    3  A    between atoms: C3_5  and  C4_6
REMARK    4  A    between atoms: C3_5  and  C9_11
REMARK    5  A    between atoms: C4_6  and  C5_7
REMARK    6  A    between atoms: N2_13  and  C10_14
REMARK    7  A    between atoms: C13_17  and  C14_18
REMARK    8  A    between atoms: C14_18  and  N3_19
REMARK    9  A    between atoms: N4_22  and  C17_23
REMARK                            x       y       z     vdW  Elec       q    Type
REMARK                         _______ _______ _______ _____ _____    ______ ____
ROOT
ATOM      1  C10 UNL     1      11.881   3.790  21.598  0.00  0.00    +0.033 A 
ATOM      2  C11 UNL     1      12.335   2.902  20.611  0.00  0.00    +0.023 A 
ATOM      3  C12 UNL     1      13.235   1.885  20.937  0.00  0.00    +0.007 A 
ATOM      4  C13 UNL     1      13.674   1.723  22.261  0.00  0.00    -0.033 A 
ATOM      5  C24 UNL     1      13.194   2.589  23.255  0.00  0.00    +0.007 A 
ATOM      6  C25 UNL     1      12.308   3.618  22.926  0.00  0.00    +0.023 A 
ENDROOT
BRANCH   1   9
ATOM      7  C9  UNL     1      11.349   6.178  20.971  0.00  0.00    +0.238 C 
ATOM      8  O2  UNL     1      12.567   6.460  20.792  0.00  0.00    -0.273 OA
ATOM      9  N2  UNL     1      10.950   4.824  21.247  0.00  0.00    -0.284 N 
ATOM     10  H15 UNL     1       9.959   4.554  21.059  0.00  0.00    +0.155 HD
BRANCH   7  11
ATOM     11  C3  UNL     1      10.313   7.258  20.809  0.00  0.00    +0.159 C 
BRANCH  11  15
ATOM     12  C1  UNL     1       6.655   6.006  20.278  0.00  0.00    +0.109 C 
ATOM     13  C2  UNL     1       7.843   6.665  20.903  0.00  0.00    +0.211 C 
ATOM     14  O1  UNL     1       7.741   7.168  22.054  0.00  0.00    -0.276 OA
ATOM     15  N1  UNL     1       9.102   6.676  20.215  0.00  0.00    -0.304 N 
ATOM     16  H4  UNL     1       9.143   6.246  19.263  0.00  0.00    +0.149 HD
ENDBRANCH  11  15
BRANCH  11  17
ATOM     17  C4  UNL     1      10.881   8.407  19.927  0.00  0.00    +0.035 C 
BRANCH  17  18
ATOM     18  C5  UNL     1      10.834   9.834  20.530  0.00  0.00    -0.009 C 
ATOM     19  C6  UNL     1      12.033  10.191  21.408  0.00  0.00    +0.003 C 
ATOM     20  C7  UNL     1      11.095  10.414  22.587  0.00  0.00    +0.001 C 
ATOM     21  C8  UNL     1       9.895  10.080  21.712  0.00  0.00    +0.003 C 
ENDBRANCH  17  18
ENDBRANCH  11  17
ENDBRANCH   7  11
ENDBRANCH   1   9
BRANCH   4  22
ATOM     22  C14 UNL     1      14.618   0.607  22.624  0.00  0.00    +0.119 C 
BRANCH  22  23
ATOM     23  N3  UNL     1      15.844   0.668  21.797  0.00  0.00    -0.295 NA
ATOM     24  C15 UNL     1      16.527   1.978  21.842  0.00  0.00    +0.103 C 
ATOM     25  C16 UNL     1      17.201   2.254  23.195  0.00  0.00    +0.122 C 
ATOM     26  N4  UNL     1      18.002   1.104  23.641  0.00  0.00    -0.313 N 
ATOM     27  C22 UNL     1      17.442  -0.247  23.488  0.00  0.00    +0.122 C 
ATOM     28  C23 UNL     1      16.790  -0.420  22.111  0.00  0.00    +0.103 C 
BRANCH  26  29
ATOM     29  C17 UNL     1      19.119   1.341  24.527  0.00  0.00    +0.121 A 
ATOM     30  C18 UNL     1      19.351   0.525  25.653  0.00  0.00    +0.043 A 
ATOM     31  C19 UNL     1      20.431   0.804  26.495  0.00  0.00    +0.005 A 
ATOM     32  C20 UNL     1      21.264   1.890  26.225  0.00  0.00    +0.020 A 
ATOM     33  C21 UNL     1      21.006   2.685  25.108  0.00  0.00    +0.113 A 
ATOM     34  N5  UNL     1      19.953   2.396  24.296  0.00  0.00    -0.240 NA
ENDBRANCH  26  29
ENDBRANCH  22  23
ENDBRANCH   4  22
TORSDOF 8
ENDMDL
MODEL 7
REMARK VINA RESULT:    -6.174     14.557     17.096
REMARK INTER + INTRA:          -9.968
REMARK INTER:                  -9.071
REMARK INTRA:                  -0.898
REMARK UNBOUND:                -0.907
REMARK  Name = /home/qwerty/github/datacon2025hack/step_04_hit_selection/docking/ligands/lig_335.pdb
REMARK  9 active torsions:
REMARK  status: ('A' for Active; 'I' for Inactive)
REMARK    1  A    between atoms: C1_1  and  C2_2
REMARK    2  A    between atoms: N1_4  and  C3_5
REMARK    3  A    between atoms: C3_5  and  C4_6
REMARK    4  A    between atoms: C3_5  and  C9_11
REMARK    5  A    between atoms: C4_6  and  C5_7
REMARK    6  A    between atoms: N2_13  and  C10_14
REMARK    7  A    between atoms: C13_17  and  C14_18
REMARK    8  A    between atoms: C14_18  and  N3_19
REMARK    9  A    between atoms: N4_22  and  C17_23
REMARK                            x       y       z     vdW  Elec       q    Type
REMARK                         _______ _______ _______ _____ _____    ______ ____
ROOT
ATOM      1  C10 UNL     1      18.222  11.045  35.537  0.00  0.00    +0.033 A 
ATOM      2  C11 UNL     1      19.262  11.009  36.478  0.00  0.00    +0.023 A 
ATOM      3  C12 UNL     1      20.406  10.244  36.237  0.00  0.00    +0.007 A 
ATOM      4  C13 UNL     1      20.539   9.525  35.037  0.00  0.00    -0.033 A 
ATOM      5  C24 UNL     1      19.515   9.589  34.080  0.00  0.00    +0.007 A 
ATOM      6  C25 UNL     1      18.363  10.340  34.329  0.00  0.00    +0.023 A 
ENDROOT
BRANCH   1   9
ATOM      7  C9  UNL     1      15.845  11.304  36.350  0.00  0.00    +0.238 C 
ATOM      8  O2  UNL     1      15.834  10.146  36.854  0.00  0.00    -0.273 OA
ATOM      9  N2  UNL     1      17.058  11.843  35.797  0.00  0.00    -0.284 N 
ATOM     10  H15 UNL     1      17.138  12.880  35.701  0.00  0.00    +0.155 HD
BRANCH   7  11
ATOM     11  C3  UNL     1      14.598  12.144  36.411  0.00  0.00    +0.159 C 
BRANCH  11  15
ATOM     12  C1  UNL     1      15.050  15.989  36.896  0.00  0.00    +0.109 C 
ATOM     13  C2  UNL     1      14.636  14.683  36.298  0.00  0.00    +0.211 C 
ATOM     14  O1  UNL     1      14.070  14.666  35.171  0.00  0.00    -0.276 OA
ATOM     15  N1  UNL     1      14.929  13.456  36.981  0.00  0.00    -0.304 N 
ATOM     16  H4  UNL     1      15.402  13.515  37.912  0.00  0.00    +0.149 HD
ENDBRANCH  11  15
BRANCH  11  17
ATOM     17  C4  UNL     1      13.512  11.417  37.254  0.00  0.00    +0.035 C 
BRANCH  17  18
ATOM     18  C5  UNL     1      12.142  11.179  36.569  0.00  0.00    -0.009 C 
ATOM     19  C6  UNL     1      10.983  10.939  37.534  0.00  0.00    +0.003 C 
ATOM     20  C7  UNL     1      10.751   9.570  36.908  0.00  0.00    +0.001 C 
ATOM     21  C8  UNL     1      11.893   9.812  35.929  0.00  0.00    +0.003 C 
ENDBRANCH  17  18
ENDBRANCH  11  17
ENDBRANCH   7  11
ENDBRANCH   1   9
BRANCH   4  22
ATOM     22  C14 UNL     1      21.784   8.726  34.758  0.00  0.00    +0.119 C 
BRANCH  22  23
ATOM     23  N3  UNL     1      21.916   7.609  35.719  0.00  0.00    -0.295 NA
ATOM     24  C15 UNL     1      20.698   6.782  35.843  0.00  0.00    +0.103 C 
ATOM     25  C16 UNL     1      20.428   5.925  34.597  0.00  0.00    +0.122 C 
ATOM     26  N4  UNL     1      21.638   5.210  34.165  0.00  0.00    -0.313 N 
ATOM     27  C22 UNL     1      22.919   5.933  34.159  0.00  0.00    +0.122 C 
ATOM     28  C23 UNL     1      23.091   6.760  35.438  0.00  0.00    +0.103 C 
BRANCH  26  29
ATOM     29  C17 UNL     1      21.487   3.976  33.428  0.00  0.00    +0.121 A 
ATOM     30  C18 UNL     1      22.248   3.710  32.272  0.00  0.00    +0.043 A 
ATOM     31  C19 UNL     1      22.053   2.513  31.578  0.00  0.00    +0.005 A 
ATOM     32  C20 UNL     1      21.103   1.594  32.026  0.00  0.00    +0.020 A 
ATOM     33  C21 UNL     1      20.359   1.886  33.168  0.00  0.00    +0.113 A 
ATOM     34  N5  UNL     1      20.565   3.056  33.835  0.00  0.00    -0.240 NA
ENDBRANCH  26  29
ENDBRANCH  22  23
ENDBRANCH   4  22
TORSDOF 8
ENDMDL
MODEL 8
REMARK VINA RESULT:    -6.131     12.908     14.731
REMARK INTER + INTRA:          -9.905
REMARK INTER:                  -8.841
REMARK INTRA:                  -1.064
REMARK UNBOUND:                -0.907
REMARK  Name = /home/qwerty/github/datacon2025hack/step_04_hit_selection/docking/ligands/lig_335.pdb
REMARK  9 active torsions:
REMARK  status: ('A' for Active; 'I' for Inactive)
REMARK    1  A    between atoms: C1_1  and  C2_2
REMARK    2  A    between atoms: N1_4  and  C3_5
REMARK    3  A    between atoms: C3_5  and  C4_6
REMARK    4  A    between atoms: C3_5  and  C9_11
REMARK    5  A    between atoms: C4_6  and  C5_7
REMARK    6  A    between atoms: N2_13  and  C10_14
REMARK    7  A    between atoms: C13_17  and  C14_18
REMARK    8  A    between atoms: C14_18  and  N3_19
REMARK    9  A    between atoms: N4_22  and  C17_23
REMARK                            x       y       z     vdW  Elec       q    Type
REMARK                         _______ _______ _______ _____ _____    ______ ____
ROOT
ATOM      1  C10 UNL     1      21.945   5.930  34.141  0.00  0.00    +0.033 A 
ATOM      2  C11 UNL     1      22.869   6.984  34.135  0.00  0.00    +0.023 A 
ATOM      3  C12 UNL     1      22.551   8.206  34.732  0.00  0.00    +0.007 A 
ATOM      4  C13 UNL     1      21.311   8.383  35.368  0.00  0.00    -0.033 A 
ATOM      5  C24 UNL     1      20.399   7.318  35.405  0.00  0.00    +0.007 A 
ATOM      6  C25 UNL     1      20.711   6.101  34.792  0.00  0.00    +0.023 A 
ENDROOT
BRANCH   1   9
ATOM      7  C9  UNL     1      21.899   4.322  32.194  0.00  0.00    +0.238 C 
ATOM      8  O2  UNL     1      21.431   5.196  31.412  0.00  0.00    -0.273 OA
ATOM      9  N2  UNL     1      22.292   4.678  33.530  0.00  0.00    -0.284 N 
ATOM     10  H15 UNL     1      22.966   4.055  34.029  0.00  0.00    +0.155 HD
BRANCH   7  11
ATOM     11  C3  UNL     1      22.117   2.922  31.684  0.00  0.00    +0.159 C 
BRANCH  11  15
ATOM     12  C1  UNL     1      22.021   1.970  27.901  0.00  0.00    +0.109 C 
ATOM     13  C2  UNL     1      22.375   1.942  29.353  0.00  0.00    +0.211 C 
ATOM     14  O1  UNL     1      23.248   1.130  29.764  0.00  0.00    -0.276 OA
ATOM     15  N1  UNL     1      21.761   2.869  30.260  0.00  0.00    -0.304 N 
ATOM     16  H4  UNL     1      21.045   3.526  29.877  0.00  0.00    +0.149 HD
ENDBRANCH  11  15
BRANCH  11  17
ATOM     17  C4  UNL     1      21.272   1.918  32.518  0.00  0.00    +0.035 C 
BRANCH  17  18
ATOM     18  C5  UNL     1      19.825   1.653  32.029  0.00  0.00    -0.009 C 
ATOM     19  C6  UNL     1      18.828   1.335  33.141  0.00  0.00    +0.003 C 
ATOM     20  C7  UNL     1      18.551  -0.018  32.499  0.00  0.00    +0.001 C 
ATOM     21  C8  UNL     1      19.529   0.302  31.376  0.00  0.00    +0.003 C 
ENDBRANCH  17  18
ENDBRANCH  11  17
ENDBRANCH   7  11
ENDBRANCH   1   9
BRANCH   4  22
ATOM     22  C14 UNL     1      20.976   9.687  36.042  0.00  0.00    +0.119 C 
BRANCH  22  23
ATOM     23  N3  UNL     1      20.775  10.758  35.041  0.00  0.00    -0.295 NA
ATOM     24  C15 UNL     1      19.622  10.528  34.146  0.00  0.00    +0.103 C 
ATOM     25  C16 UNL     1      18.271  10.684  34.862  0.00  0.00    +0.122 C 
ATOM     26  N4  UNL     1      18.222  11.923  35.653  0.00  0.00    -0.313 N 
ATOM     27  C22 UNL     1      19.398  12.293  36.455  0.00  0.00    +0.122 C 
ATOM     28  C23 UNL     1      20.693  12.097  35.657  0.00  0.00    +0.103 C 
BRANCH  26  29
ATOM     29  C17 UNL     1      16.936  12.530  35.911  0.00  0.00    +0.121 A 
ATOM     30  C18 UNL     1      16.490  13.649  35.179  0.00  0.00    +0.043 A 
ATOM     31  C19 UNL     1      15.249  14.217  35.477  0.00  0.00    +0.005 A 
ATOM     32  C20 UNL     1      14.465  13.683  36.501  0.00  0.00    +0.020 A 
ATOM     33  C21 UNL     1      14.935  12.581  37.214  0.00  0.00    +0.113 A 
ATOM     34  N5  UNL     1      16.145  12.036  36.907  0.00  0.00    -0.240 NA
ENDBRANCH  26  29
ENDBRANCH  22  23
ENDBRANCH   4  22
TORSDOF 8
ENDMDL
MODEL 9
REMARK VINA RESULT:    -6.116      9.312     13.099
REMARK INTER + INTRA:          -9.882
REMARK INTER:                  -8.937
REMARK INTRA:                  -0.946
REMARK UNBOUND:                -0.907
REMARK  Name = /home/qwerty/github/datacon2025hack/step_04_hit_selection/docking/ligands/lig_335.pdb
REMARK  9 active torsions:
REMARK  status: ('A' for Active; 'I' for Inactive)
REMARK    1  A    between atoms: C1_1  and  C2_2
REMARK    2  A    between atoms: N1_4  and  C3_5
REMARK    3  A    between atoms: C3_5  and  C4_6
REMARK    4  A    between atoms: C3_5  and  C9_11
REMARK    5  A    between atoms: C4_6  and  C5_7
REMARK    6  A    between atoms: N2_13  and  C10_14
REMARK    7  A    between atoms: C13_17  and  C14_18
REMARK    8  A    between atoms: C14_18  and  N3_19
REMARK    9  A    between atoms: N4_22  and  C17_23
REMARK                            x       y       z     vdW  Elec       q    Type
REMARK                         _______ _______ _______ _____ _____    ______ ____
ROOT
ATOM      1  C10 UNL     1      19.423   1.262  25.300  0.00  0.00    +0.033 A 
ATOM      2  C11 UNL     1      19.160   2.516  24.729  0.00  0.00    +0.023 A 
ATOM      3  C12 UNL     1      18.222   2.641  23.702  0.00  0.00    +0.007 A 
ATOM      4  C13 UNL     1      17.512   1.517  23.248  0.00  0.00    -0.033 A 
ATOM      5  C24 UNL     1      17.750   0.269  23.842  0.00  0.00    +0.007 A 
ATOM      6  C25 UNL     1      18.701   0.140  24.858  0.00  0.00    +0.023 A 
ENDROOT
BRANCH   1   9
ATOM      7  C9  UNL     1      20.056   1.376  27.742  0.00  0.00    +0.238 C 
ATOM      8  O2  UNL     1      18.850   1.447  28.108  0.00  0.00    -0.273 OA
ATOM      9  N2  UNL     1      20.384   1.152  26.360  0.00  0.00    -0.284 N 
ATOM     10  H15 UNL     1      21.329   0.769  26.133  0.00  0.00    +0.155 HD
BRANCH   7  11
ATOM     11  C3  UNL     1      21.144   1.445  28.781  0.00  0.00    +0.159 C 
BRANCH  11  15
ATOM     12  C1  UNL     1      23.849  -1.361  28.961  0.00  0.00    +0.109 C 
ATOM     13  C2  UNL     1      23.229  -0.001  28.926  0.00  0.00    +0.211 C 
ATOM     14  O1  UNL     1      23.969   1.019  28.897  0.00  0.00    -0.276 OA
ATOM     15  N1  UNL     1      21.802   0.135  28.875  0.00  0.00    -0.304 N 
ATOM     16  H4  UNL     1      21.226  -0.737  28.899  0.00  0.00    +0.149 HD
ENDBRANCH  11  15
BRANCH  11  17
ATOM     17  C4  UNL     1      20.542   1.877  30.148  0.00  0.00    +0.035 C 
BRANCH  17  18
ATOM     18  C5  UNL     1      21.463   1.741  31.388  0.00  0.00    -0.009 C 
ATOM     19  C6  UNL     1      20.732   1.775  32.728  0.00  0.00    +0.003 C 
ATOM     20  C7  UNL     1      21.537   3.003  33.130  0.00  0.00    +0.001 C 
ATOM     21  C8  UNL     1      22.284   2.962  31.804  0.00  0.00    +0.003 C 
ENDBRANCH  17  18
ENDBRANCH  11  17
ENDBRANCH   7  11
ENDBRANCH   1   9
BRANCH   4  22
ATOM     22  C14 UNL     1      16.476   1.653  22.164  0.00  0.00    +0.119 C 
BRANCH  22  23
ATOM     23  N3  UNL     1      15.161   1.161  22.631  0.00  0.00    -0.295 NA
ATOM     24  C15 UNL     1      14.478   2.081  23.564  0.00  0.00    +0.103 C 
ATOM     25  C16 UNL     1      13.968   3.357  22.878  0.00  0.00    +0.122 C 
ATOM     26  N4  UNL     1      13.232   3.045  21.644  0.00  0.00    -0.313 N 
ATOM     27  C22 UNL     1      13.780   2.026  20.735  0.00  0.00    +0.122 C 
ATOM     28  C23 UNL     1      14.267   0.798  21.515  0.00  0.00    +0.103 C 
BRANCH  26  29
ATOM     29  C17 UNL     1      12.226   3.975  21.183  0.00  0.00    +0.121 A 
ATOM     30  C18 UNL     1      12.561   5.282  20.779  0.00  0.00    +0.043 A 
ATOM     31  C19 UNL     1      11.553   6.155  20.361  0.00  0.00    +0.005 A 
ATOM     32  C20 UNL     1      10.222   5.733  20.358  0.00  0.00    +0.020 A 
ATOM     33  C21 UNL     1       9.919   4.436  20.770  0.00  0.00    +0.113 A 
ATOM     34  N5  UNL     1      10.914   3.597  21.169  0.00  0.00    -0.240 NA
ENDBRANCH  26  29
ENDBRANCH  22  23
ENDBRANCH   4  22
TORSDOF 8
ENDMDL
