REMARK  Name = /home/qwerty/github/datacon2025hack/step_04_hit_selection/docking/ligands/lig_385.pdb
REMARK  2 active torsions:
REMARK  status: ('A' for Active; 'I' for Inactive)
REMARK    1  A    between atoms: C1_1  and  C2_2
REMARK    2  A    between atoms: N5_19  and  C13_20
REMARK                            x       y       z     vdW  Elec       q    Type
REMARK                         _______ _______ _______ _____ _____    ______ ____
ROOT
ATOM      1  C1  UNL     1      -2.748   3.295   1.727  0.00  0.00    +0.066 C 
ATOM      2  C2  UNL     1      -2.933   2.124   0.802  0.00  0.00    +0.047 A 
ATOM      3  N1  UNL     1      -4.156   1.538   0.769  0.00  0.00    -0.219 NA
ATOM      4  C3  UNL     1      -4.421   0.472  -0.024  0.00  0.00    +0.218 A 
ATOM      5  N2  UNL     1      -5.736  -0.123  -0.036  0.00  0.00    -0.295 N 
ATOM      6  C4  UNL     1      -6.852   0.559   0.635  0.00  0.00    +0.136 C 
ATOM      7  C5  UNL     1      -7.960  -0.439   0.986  0.00  0.00    +0.179 C 
ATOM      8  O1  UNL     1      -8.315  -1.214  -0.141  0.00  0.00    -0.377 OA
ATOM      9  C6  UNL     1      -7.223  -2.031  -0.513  0.00  0.00    +0.179 C 
ATOM     10  C7  UNL     1      -6.050  -1.180  -1.007  0.00  0.00    +0.136 C 
ATOM     11  N3  UNL     1      -3.433  -0.029  -0.804  0.00  0.00    -0.219 NA
ATOM     12  C8  UNL     1      -2.179   0.495  -0.828  0.00  0.00    +0.051 A 
ATOM     13  C9  UNL     1      -1.885   1.633  -0.021  0.00  0.00    -0.003 A 
ATOM     14  C10 UNL     1      -0.517   2.306   0.082  0.00  0.00    +0.058 C 
ATOM     15  C11 UNL     1       0.534   1.938  -0.961  0.00  0.00    +0.114 C 
ATOM     16  N4  UNL     1       0.986   0.552  -0.768  0.00  0.00    -0.285 N 
ATOM     17  C12 UNL     1       2.270   0.294  -0.146  0.00  0.00    +0.306 C 
ATOM     18  O2  UNL     1       2.957   1.256   0.295  0.00  0.00    -0.252 OA
ATOM     19  N5  UNL     1       2.766  -1.050   0.005  0.00  0.00    -0.269 N 
ATOM     20  C21 UNL     1       0.108  -0.578  -1.107  0.00  0.00    +0.115 C 
ATOM     21  C22 UNL     1      -1.207  -0.164  -1.777  0.00  0.00    +0.075 C 
ATOM     22  H16 UNL     1       2.087  -1.841   0.049  0.00  0.00    +0.156 HD
ENDROOT
BRANCH  19  23
ATOM     23  C13 UNL     1       4.151  -1.361   0.241  0.00  0.00    +0.038 A 
ATOM     24  C14 UNL     1       4.484  -2.499   0.995  0.00  0.00    +0.027 A 
ATOM     25  C15 UNL     1       5.823  -2.830   1.229  0.00  0.00    +0.051 A 
ATOM     26  C16 UNL     1       6.839  -2.032   0.698  0.00  0.00    +0.162 A 
ATOM     27  C17 UNL     1       6.519  -0.926  -0.099  0.00  0.00    +0.164 A 
ATOM     28  C18 UNL     1       5.182  -0.583  -0.320  0.00  0.00    +0.072 A 
ATOM     29  O3  UNL     1       7.554  -0.177  -0.669  0.00  0.00    -0.485 OA
ATOM     30  C19 UNL     1       8.898  -0.664  -0.681  0.00  0.00    +0.270 C 
ATOM     31  C20 UNL     1       9.214  -1.383   0.636  0.00  0.00    +0.270 C 
ATOM     32  O4  UNL     1       8.184  -2.326   0.944  0.00  0.00    -0.485 OA
ENDBRANCH  19  23
TORSDOF 1
