MODEL 1
REMARK VINA RESULT:    -6.482      0.000      0.000
REMARK INTER + INTRA:          -9.096
REMARK INTER:                  -8.377
REMARK INTRA:                  -0.719
REMARK UNBOUND:                -0.719
REMARK  Name = /home/qwerty/github/datacon2025hack/step_04_hit_selection/docking/ligands/lig_214.pdb
REMARK  8 active torsions:
REMARK  status: ('A' for Active; 'I' for Inactive)
REMARK    1  A    between atoms: C1_1  and  C2_2
REMARK    2  A    between atoms: C2_2  and  C3_3
REMARK    3  A    between atoms: C2_2  and  C4_4
REMARK    4  A    between atoms: C2_2  and  O1_5
REMARK    5  A    between atoms: O1_5  and  C5_6
REMARK    6  A    between atoms: C9_12  and  N2_13
REMARK    7  A    between atoms: N3_16  and  C11_17
REMARK    8  A    between atoms: C15_22  and  C16_23
REMARK                            x       y       z     vdW  Elec       q    Type
REMARK                         _______ _______ _______ _____ _____    ______ ____
ROOT
ATOM      1  N2  UNL     1      19.074   8.744  36.702  0.00  0.00    -0.295 N 
ATOM      2  C10 UNL     1      18.090   9.711  37.098  0.00  0.00    +0.304 C 
ATOM      3  O3  UNL     1      17.711   9.771  38.300  0.00  0.00    -0.253 OA
ATOM      4  N3  UNL     1      17.579  10.638  36.130  0.00  0.00    -0.269 N 
ATOM      5  H17 UNL     1      19.457   8.809  35.733  0.00  0.00    +0.151 HD
ATOM      6  H18 UNL     1      18.118  10.762  35.244  0.00  0.00    +0.156 HD
ENDROOT
BRANCH   1  13
ATOM      7  C5  UNL     1      22.848   6.482  35.975  0.00  0.00    +0.403 C 
ATOM      8  O2  UNL     1      23.739   6.846  36.790  0.00  0.00    -0.226 OA
ATOM      9  N1  UNL     1      21.461   6.726  36.277  0.00  0.00    -0.266 N 
ATOM     10  C6  UNL     1      20.417   6.299  35.330  0.00  0.00    +0.111 C 
ATOM     11  C7  UNL     1      19.159   5.773  36.046  0.00  0.00    +0.021 C 
ATOM     12  C8  UNL     1      18.915   6.381  37.440  0.00  0.00    +0.025 C 
ATOM     13  C9  UNL     1      19.609   7.738  37.630  0.00  0.00    +0.092 C 
ATOM     14  C18 UNL     1      21.127   7.561  37.445  0.00  0.00    +0.133 C 
BRANCH   7  15
ATOM     15  O1  UNL     1      23.200   5.844  34.773  0.00  0.00    -0.445 OA
BRANCH  15  17
ATOM     16  C1  UNL     1      22.954   5.922  32.396  0.00  0.00    +0.055 C 
ATOM     17  C2  UNL     1      23.736   6.471  33.599  0.00  0.00    +0.107 C 
ATOM     18  C3  UNL     1      23.542   7.999  33.663  0.00  0.00    +0.055 C 
ATOM     19  C4  UNL     1      25.226   6.119  33.426  0.00  0.00    +0.055 C 
ENDBRANCH  15  17
ENDBRANCH   7  15
ENDBRANCH   1  13
BRANCH   4  20
ATOM     20  C11 UNL     1      16.433  11.478  36.348  0.00  0.00    +0.036 A 
ATOM     21  C12 UNL     1      16.610  12.863  36.466  0.00  0.00    +0.026 A 
ATOM     22  C13 UNL     1      15.511  13.703  36.650  0.00  0.00    +0.041 A 
ATOM     23  C14 UNL     1      14.220  13.174  36.712  0.00  0.00    +0.136 A 
ATOM     24  F1  UNL     1      13.171  14.027  36.832  0.00  0.00    -0.205 F 
ATOM     25  C15 UNL     1      14.018  11.785  36.588  0.00  0.00    +0.073 A 
ATOM     26  C17 UNL     1      15.131  10.948  36.386  0.00  0.00    +0.039 A 
BRANCH  25  27
ATOM     27  C16 UNL     1      12.660  11.194  36.631  0.00  0.00    +0.244 C 
ATOM     28  N4  UNL     1      11.977  10.992  37.871  0.00  0.00    -0.325 N 
ATOM     29  O4  UNL     1      12.101  10.836  35.559  0.00  0.00    -0.270 OA
ATOM     30  H21 UNL     1      12.468  11.098  38.785  0.00  0.00    +0.145 HD
ATOM     31  H22 UNL     1      10.996  10.633  37.874  0.00  0.00    +0.145 HD
ENDBRANCH  25  27
ENDBRANCH   4  20
TORSDOF 5
ENDMDL
MODEL 2
REMARK VINA RESULT:    -6.477      5.875      8.942
REMARK INTER + INTRA:          -9.090
REMARK INTER:                  -8.403
REMARK INTRA:                  -0.687
REMARK UNBOUND:                -0.719
REMARK  Name = /home/qwerty/github/datacon2025hack/step_04_hit_selection/docking/ligands/lig_214.pdb
REMARK  8 active torsions:
REMARK  status: ('A' for Active; 'I' for Inactive)
REMARK    1  A    between atoms: C1_1  and  C2_2
REMARK    2  A    between atoms: C2_2  and  C3_3
REMARK    3  A    between atoms: C2_2  and  C4_4
REMARK    4  A    between atoms: C2_2  and  O1_5
REMARK    5  A    between atoms: O1_5  and  C5_6
REMARK    6  A    between atoms: C9_12  and  N2_13
REMARK    7  A    between atoms: N3_16  and  C11_17
REMARK    8  A    between atoms: C15_22  and  C16_23
REMARK                            x       y       z     vdW  Elec       q    Type
REMARK                         _______ _______ _______ _____ _____    ______ ____
ROOT
ATOM      1  N2  UNL     1      13.492  13.749  33.563  0.00  0.00    -0.295 N 
ATOM      2  C10 UNL     1      12.640  14.205  32.502  0.00  0.00    +0.304 C 
ATOM      3  O3  UNL     1      11.993  15.280  32.629  0.00  0.00    -0.253 OA
ATOM      4  N3  UNL     1      12.570  13.456  31.280  0.00  0.00    -0.269 N 
ATOM      5  H17 UNL     1      14.110  12.929  33.373  0.00  0.00    +0.151 HD
ATOM      6  H18 UNL     1      13.325  12.760  31.092  0.00  0.00    +0.156 HD
ENDROOT
BRANCH   1  13
ATOM      7  C5  UNL     1      16.034  12.339  36.946  0.00  0.00    +0.403 C 
ATOM      8  O2  UNL     1      16.999  13.130  37.126  0.00  0.00    -0.226 OA
ATOM      9  N1  UNL     1      14.863  12.790  36.238  0.00  0.00    -0.266 N 
ATOM     10  C6  UNL     1      13.732  11.870  36.029  0.00  0.00    +0.111 C 
ATOM     11  C7  UNL     1      12.371  12.583  36.143  0.00  0.00    +0.021 C 
ATOM     12  C8  UNL     1      12.399  14.076  35.766  0.00  0.00    +0.025 C 
ATOM     13  C9  UNL     1      13.581  14.442  34.855  0.00  0.00    +0.092 C 
ATOM     14  C18 UNL     1      14.898  14.107  35.578  0.00  0.00    +0.133 C 
BRANCH   7  15
ATOM     15  O1  UNL     1      16.094  11.020  37.429  0.00  0.00    -0.445 OA
BRANCH  15  17
ATOM     16  C1  UNL     1      16.270   8.645  37.221  0.00  0.00    +0.055 C 
ATOM     17  C2  UNL     1      16.979   9.986  36.976  0.00  0.00    +0.107 C 
ATOM     18  C3  UNL     1      17.258  10.131  35.467  0.00  0.00    +0.055 C 
ATOM     19  C4  UNL     1      18.295  10.006  37.777  0.00  0.00    +0.055 C 
ENDBRANCH  15  17
ENDBRANCH   7  15
ENDBRANCH   1  13
BRANCH   4  20
ATOM     20  C11 UNL     1      11.584  13.678  30.257  0.00  0.00    +0.036 A 
ATOM     21  C12 UNL     1      11.990  14.166  29.008  0.00  0.00    +0.026 A 
ATOM     22  C13 UNL     1      11.057  14.364  27.989  0.00  0.00    +0.041 A 
ATOM     23  C14 UNL     1       9.707  14.070  28.200  0.00  0.00    +0.136 A 
ATOM     24  F1  UNL     1       8.839  14.218  27.168  0.00  0.00    -0.205 F 
ATOM     25  C15 UNL     1       9.278  13.570  29.446  0.00  0.00    +0.073 A 
ATOM     26  C17 UNL     1      10.229  13.359  30.462  0.00  0.00    +0.039 A 
BRANCH  25  27
ATOM     27  C16 UNL     1       7.858  13.232  29.696  0.00  0.00    +0.244 C 
ATOM     28  N4  UNL     1       6.916  14.230  30.099  0.00  0.00    -0.325 N 
ATOM     29  O4  UNL     1       7.471  12.038  29.578  0.00  0.00    -0.270 OA
ATOM     30  H21 UNL     1       7.226  15.183  30.387  0.00  0.00    +0.145 HD
ATOM     31  H22 UNL     1       5.908  13.981  30.208  0.00  0.00    +0.145 HD
ENDBRANCH  25  27
ENDBRANCH   4  20
TORSDOF 5
ENDMDL
MODEL 3
REMARK VINA RESULT:    -6.444      1.549      2.027
REMARK INTER + INTRA:          -9.046
REMARK INTER:                  -8.475
REMARK INTRA:                  -0.571
REMARK UNBOUND:                -0.719
REMARK  Name = /home/qwerty/github/datacon2025hack/step_04_hit_selection/docking/ligands/lig_214.pdb
REMARK  8 active torsions:
REMARK  status: ('A' for Active; 'I' for Inactive)
REMARK    1  A    between atoms: C1_1  and  C2_2
REMARK    2  A    between atoms: C2_2  and  C3_3
REMARK    3  A    between atoms: C2_2  and  C4_4
REMARK    4  A    between atoms: C2_2  and  O1_5
REMARK    5  A    between atoms: O1_5  and  C5_6
REMARK    6  A    between atoms: C9_12  and  N2_13
REMARK    7  A    between atoms: N3_16  and  C11_17
REMARK    8  A    between atoms: C15_22  and  C16_23
REMARK                            x       y       z     vdW  Elec       q    Type
REMARK                         _______ _______ _______ _____ _____    ______ ____
ROOT
ATOM      1  N2  UNL     1      19.051   8.858  36.740  0.00  0.00    -0.295 N 
ATOM      2  C10 UNL     1      17.967   9.728  37.095  0.00  0.00    +0.304 C 
ATOM      3  O3  UNL     1      17.498   9.708  38.265  0.00  0.00    -0.253 OA
ATOM      4  N3  UNL     1      17.457  10.655  36.125  0.00  0.00    -0.269 N 
ATOM      5  H17 UNL     1      19.498   8.994  35.805  0.00  0.00    +0.151 HD
ATOM      6  H18 UNL     1      18.047  10.857  35.288  0.00  0.00    +0.156 HD
ENDROOT
BRANCH   1  13
ATOM      7  C5  UNL     1      22.787   6.548  35.960  0.00  0.00    +0.403 C 
ATOM      8  O2  UNL     1      23.698   6.912  36.753  0.00  0.00    -0.226 OA
ATOM      9  N1  UNL     1      21.409   6.810  36.288  0.00  0.00    -0.266 N 
ATOM     10  C6  UNL     1      20.341   6.384  35.368  0.00  0.00    +0.111 C 
ATOM     11  C7  UNL     1      19.093   5.878  36.116  0.00  0.00    +0.021 C 
ATOM     12  C8  UNL     1      18.884   6.505  37.507  0.00  0.00    +0.025 C 
ATOM     13  C9  UNL     1      19.595   7.857  37.667  0.00  0.00    +0.092 C 
ATOM     14  C18 UNL     1      21.107   7.662  37.453  0.00  0.00    +0.133 C 
BRANCH   7  15
ATOM     15  O1  UNL     1      23.107   5.893  34.759  0.00  0.00    -0.445 OA
BRANCH  15  17
ATOM     16  C1  UNL     1      22.962   5.889  32.372  0.00  0.00    +0.055 C 
ATOM     17  C2  UNL     1      23.682   6.491  33.588  0.00  0.00    +0.107 C 
ATOM     18  C3  UNL     1      23.461   8.016  33.592  0.00  0.00    +0.055 C 
ATOM     19  C4  UNL     1      25.184   6.160  33.490  0.00  0.00    +0.055 C 
ENDBRANCH  15  17
ENDBRANCH   7  15
ENDBRANCH   1  13
BRANCH   4  20
ATOM     20  C11 UNL     1      16.234  11.394  36.286  0.00  0.00    +0.036 A 
ATOM     21  C12 UNL     1      15.027  10.700  36.437  0.00  0.00    +0.026 A 
ATOM     22  C13 UNL     1      13.831  11.394  36.622  0.00  0.00    +0.041 A 
ATOM     23  C14 UNL     1      13.823  12.790  36.667  0.00  0.00    +0.136 A 
ATOM     24  F1  UNL     1      12.650  13.428  36.909  0.00  0.00    -0.205 F 
ATOM     25  C15 UNL     1      15.027  13.509  36.527  0.00  0.00    +0.073 A 
ATOM     26  C17 UNL     1      16.230  12.799  36.356  0.00  0.00    +0.039 A 
BRANCH  25  27
ATOM     27  C16 UNL     1      15.056  14.988  36.588  0.00  0.00    +0.244 C 
ATOM     28  N4  UNL     1      15.884  15.677  37.528  0.00  0.00    -0.325 N 
ATOM     29  O4  UNL     1      14.317  15.659  35.817  0.00  0.00    -0.270 OA
ATOM     30  H21 UNL     1      16.365  15.170  38.302  0.00  0.00    +0.145 HD
ATOM     31  H22 UNL     1      15.937  16.720  37.511  0.00  0.00    +0.145 HD
ENDBRANCH  25  27
ENDBRANCH   4  20
TORSDOF 5
ENDMDL
MODEL 4
REMARK VINA RESULT:    -6.354     15.839     17.207
REMARK INTER + INTRA:          -8.931
REMARK INTER:                  -8.455
REMARK INTRA:                  -0.475
REMARK UNBOUND:                -0.719
REMARK  Name = /home/qwerty/github/datacon2025hack/step_04_hit_selection/docking/ligands/lig_214.pdb
REMARK  8 active torsions:
REMARK  status: ('A' for Active; 'I' for Inactive)
REMARK    1  A    between atoms: C1_1  and  C2_2
REMARK    2  A    between atoms: C2_2  and  C3_3
REMARK    3  A    between atoms: C2_2  and  C4_4
REMARK    4  A    between atoms: C2_2  and  O1_5
REMARK    5  A    between atoms: O1_5  and  C5_6
REMARK    6  A    between atoms: C9_12  and  N2_13
REMARK    7  A    between atoms: N3_16  and  C11_17
REMARK    8  A    between atoms: C15_22  and  C16_23
REMARK                            x       y       z     vdW  Elec       q    Type
REMARK                         _______ _______ _______ _____ _____    ______ ____
ROOT
ATOM      1  N2  UNL     1      13.819   2.612  20.751  0.00  0.00    -0.295 N 
ATOM      2  C10 UNL     1      12.858   3.605  20.366  0.00  0.00    +0.304 C 
ATOM      3  O3  UNL     1      12.888   4.096  19.205  0.00  0.00    -0.253 OA
ATOM      4  N3  UNL     1      11.835   3.997  21.293  0.00  0.00    -0.269 N 
ATOM      5  H17 UNL     1      13.684   2.135  21.671  0.00  0.00    +0.151 HD
ATOM      6  H18 UNL     1      11.654   3.373  22.110  0.00  0.00    +0.156 HD
ENDROOT
BRANCH   1  13
ATOM      7  C5  UNL     1      16.673  -0.666  21.755  0.00  0.00    +0.403 C 
ATOM      8  O2  UNL     1      16.479  -1.659  21.001  0.00  0.00    -0.226 OA
ATOM      9  N1  UNL     1      16.204   0.636  21.354  0.00  0.00    -0.266 N 
ATOM     10  C6  UNL     1      16.431   1.799  22.229  0.00  0.00    +0.111 C 
ATOM     11  C7  UNL     1      16.750   3.077  21.430  0.00  0.00    +0.021 C 
ATOM     12  C8  UNL     1      16.134   3.118  20.019  0.00  0.00    +0.025 C 
ATOM     13  C9  UNL     1      14.917   2.193  19.870  0.00  0.00    +0.092 C 
ATOM     14  C18 UNL     1      15.345   0.743  20.161  0.00  0.00    +0.133 C 
BRANCH   7  15
ATOM     15  O1  UNL     1      17.340  -0.822  22.982  0.00  0.00    -0.445 OA
BRANCH  15  17
ATOM     16  C1  UNL     1      17.340  -2.875  24.208  0.00  0.00    +0.055 C 
ATOM     17  C2  UNL     1      16.812  -1.433  24.168  0.00  0.00    +0.107 C 
ATOM     18  C3  UNL     1      17.302  -0.690  25.426  0.00  0.00    +0.055 C 
ATOM     19  C4  UNL     1      15.272  -1.468  24.123  0.00  0.00    +0.055 C 
ENDBRANCH  15  17
ENDBRANCH   7  15
ENDBRANCH   1  13
BRANCH   4  20
ATOM     20  C11 UNL     1      10.979   5.138  21.110  0.00  0.00    +0.036 A 
ATOM     21  C12 UNL     1      11.543   6.420  21.080  0.00  0.00    +0.026 A 
ATOM     22  C13 UNL     1      10.738   7.541  20.877  0.00  0.00    +0.041 A 
ATOM     23  C14 UNL     1       9.360   7.398  20.693  0.00  0.00    +0.136 A 
ATOM     24  F1  UNL     1       8.618   8.505  20.438  0.00  0.00    -0.205 F 
ATOM     25  C15 UNL     1       8.773   6.117  20.711  0.00  0.00    +0.073 A 
ATOM     26  C17 UNL     1       9.596   4.992  20.901  0.00  0.00    +0.039 A 
BRANCH  25  27
ATOM     27  C16 UNL     1       7.319   5.930  20.501  0.00  0.00    +0.244 C 
ATOM     28  N4  UNL     1       6.815   4.853  19.708  0.00  0.00    -0.325 N 
ATOM     29  O4  UNL     1       6.505   6.750  21.008  0.00  0.00    -0.270 OA
ATOM     30  H21 UNL     1       7.449   4.267  19.123  0.00  0.00    +0.145 HD
ATOM     31  H22 UNL     1       5.784   4.703  19.626  0.00  0.00    +0.145 HD
ENDBRANCH  25  27
ENDBRANCH   4  20
TORSDOF 5
ENDMDL
MODEL 5
REMARK VINA RESULT:    -6.196     15.504     16.940
REMARK INTER + INTRA:          -8.725
REMARK INTER:                  -8.024
REMARK INTRA:                  -0.701
REMARK UNBOUND:                -0.719
REMARK  Name = /home/qwerty/github/datacon2025hack/step_04_hit_selection/docking/ligands/lig_214.pdb
REMARK  8 active torsions:
REMARK  status: ('A' for Active; 'I' for Inactive)
REMARK    1  A    between atoms: C1_1  and  C2_2
REMARK    2  A    between atoms: C2_2  and  C3_3
REMARK    3  A    between atoms: C2_2  and  C4_4
REMARK    4  A    between atoms: C2_2  and  O1_5
REMARK    5  A    between atoms: O1_5  and  C5_6
REMARK    6  A    between atoms: C9_12  and  N2_13
REMARK    7  A    between atoms: N3_16  and  C11_17
REMARK    8  A    between atoms: C15_22  and  C16_23
REMARK                            x       y       z     vdW  Elec       q    Type
REMARK                         _______ _______ _______ _____ _____    ______ ____
ROOT
ATOM      1  N2  UNL     1      14.039   2.875  20.917  0.00  0.00    -0.295 N 
ATOM      2  C10 UNL     1      12.998   3.765  20.489  0.00  0.00    +0.304 C 
ATOM      3  O3  UNL     1      12.867   4.042  19.266  0.00  0.00    -0.253 OA
ATOM      4  N3  UNL     1      12.080   4.296  21.455  0.00  0.00    -0.269 N 
ATOM      5  H17 UNL     1      14.036   2.567  21.915  0.00  0.00    +0.151 HD
ATOM      6  H18 UNL     1      12.025   3.824  22.385  0.00  0.00    +0.156 HD
ENDROOT
BRANCH   1  13
ATOM      7  C5  UNL     1      16.665  -0.596  21.893  0.00  0.00    +0.403 C 
ATOM      8  O2  UNL     1      16.340  -1.598  21.199  0.00  0.00    -0.226 OA
ATOM      9  N1  UNL     1      16.283   0.725  21.464  0.00  0.00    -0.266 N 
ATOM     10  C6  UNL     1      16.663   1.898  22.269  0.00  0.00    +0.111 C 
ATOM     11  C7  UNL     1      17.037   3.110  21.394  0.00  0.00    +0.021 C 
ATOM     12  C8  UNL     1      16.337   3.148  20.023  0.00  0.00    +0.025 C 
ATOM     13  C9  UNL     1      15.039   2.328  19.990  0.00  0.00    +0.092 C 
ATOM     14  C18 UNL     1      15.361   0.859  20.321  0.00  0.00    +0.133 C 
BRANCH   7  15
ATOM     15  O1  UNL     1      17.394  -0.760  23.084  0.00  0.00    -0.445 OA
BRANCH  15  17
ATOM     16  C1  UNL     1      17.571  -0.583  25.462  0.00  0.00    +0.055 C 
ATOM     17  C2  UNL     1      16.917  -1.349  24.302  0.00  0.00    +0.107 C 
ATOM     18  C3  UNL     1      15.387  -1.207  24.411  0.00  0.00    +0.055 C 
ATOM     19  C4  UNL     1      17.333  -2.830  24.388  0.00  0.00    +0.055 C 
ENDBRANCH  15  17
ENDBRANCH   7  15
ENDBRANCH   1  13
BRANCH   4  20
ATOM     20  C11 UNL     1      11.162   5.369  21.186  0.00  0.00    +0.036 A 
ATOM     21  C12 UNL     1       9.784   5.122  21.237  0.00  0.00    +0.026 A 
ATOM     22  C13 UNL     1       8.872   6.153  21.006  0.00  0.00    +0.041 A 
ATOM     23  C14 UNL     1       9.322   7.447  20.730  0.00  0.00    +0.136 A 
ATOM     24  F1  UNL     1       8.406   8.435  20.571  0.00  0.00    -0.205 F 
ATOM     25  C15 UNL     1      10.704   7.720  20.683  0.00  0.00    +0.073 A 
ATOM     26  C17 UNL     1      11.615   6.676  20.931  0.00  0.00    +0.039 A 
BRANCH  25  27
ATOM     27  C16 UNL     1      11.213   9.083  20.410  0.00  0.00    +0.244 C 
ATOM     28  N4  UNL     1      11.223   9.622  19.086  0.00  0.00    -0.325 N 
ATOM     29  O4  UNL     1      11.673   9.778  21.356  0.00  0.00    -0.270 OA
ATOM     30  H21 UNL     1      11.029   9.022  18.255  0.00  0.00    +0.145 HD
ATOM     31  H22 UNL     1      11.528  10.608  18.926  0.00  0.00    +0.145 HD
ENDBRANCH  25  27
ENDBRANCH   4  20
TORSDOF 5
ENDMDL
MODEL 6
REMARK VINA RESULT:    -6.156      5.689     10.622
REMARK INTER + INTRA:          -8.674
REMARK INTER:                  -8.127
REMARK INTRA:                  -0.547
REMARK UNBOUND:                -0.719
REMARK  Name = /home/qwerty/github/datacon2025hack/step_04_hit_selection/docking/ligands/lig_214.pdb
REMARK  8 active torsions:
REMARK  status: ('A' for Active; 'I' for Inactive)
REMARK    1  A    between atoms: C1_1  and  C2_2
REMARK    2  A    between atoms: C2_2  and  C3_3
REMARK    3  A    between atoms: C2_2  and  C4_4
REMARK    4  A    between atoms: C2_2  and  O1_5
REMARK    5  A    between atoms: O1_5  and  C5_6
REMARK    6  A    between atoms: C9_12  and  N2_13
REMARK    7  A    between atoms: N3_16  and  C11_17
REMARK    8  A    between atoms: C15_22  and  C16_23
REMARK                            x       y       z     vdW  Elec       q    Type
REMARK                         _______ _______ _______ _____ _____    ______ ____
ROOT
ATOM      1  N2  UNL     1      22.273   5.909  32.912  0.00  0.00    -0.295 N 
ATOM      2  C10 UNL     1      22.388   4.654  32.227  0.00  0.00    +0.304 C 
ATOM      3  O3  UNL     1      23.322   3.858  32.519  0.00  0.00    -0.253 OA
ATOM      4  N3  UNL     1      21.407   4.290  31.246  0.00  0.00    -0.269 N 
ATOM      5  H17 UNL     1      21.417   6.482  32.738  0.00  0.00    +0.151 HD
ATOM      6  H18 UNL     1      20.504   4.815  31.244  0.00  0.00    +0.156 HD
ENDROOT
BRANCH   1  13
ATOM      7  C5  UNL     1      21.268   8.488  36.410  0.00  0.00    +0.403 C 
ATOM      8  O2  UNL     1      21.378   7.832  37.482  0.00  0.00    -0.226 OA
ATOM      9  N1  UNL     1      21.944   8.033  35.222  0.00  0.00    -0.266 N 
ATOM     10  C6  UNL     1      21.821   8.798  33.969  0.00  0.00    +0.111 C 
ATOM     11  C7  UNL     1      23.135   8.818  33.166  0.00  0.00    +0.021 C 
ATOM     12  C8  UNL     1      24.036   7.588  33.385  0.00  0.00    +0.025 C 
ATOM     13  C9  UNL     1      23.264   6.363  33.897  0.00  0.00    +0.092 C 
ATOM     14  C18 UNL     1      22.596   6.712  35.240  0.00  0.00    +0.133 C 
BRANCH   7  15
ATOM     15  O1  UNL     1      20.488   9.656  36.367  0.00  0.00    -0.445 OA
BRANCH  15  17
ATOM     16  C1  UNL     1      18.630  10.987  35.662  0.00  0.00    +0.055 C 
ATOM     17  C2  UNL     1      19.057   9.730  36.436  0.00  0.00    +0.107 C 
ATOM     18  C3  UNL     1      18.416   8.496  35.770  0.00  0.00    +0.055 C 
ATOM     19  C4  UNL     1      18.589   9.863  37.897  0.00  0.00    +0.055 C 
ENDBRANCH  15  17
ENDBRANCH   7  15
ENDBRANCH   1  13
BRANCH   4  20
ATOM     20  C11 UNL     1      21.550   3.186  30.336  0.00  0.00    +0.036 A 
ATOM     21  C12 UNL     1      21.482   1.877  30.831  0.00  0.00    +0.026 A 
ATOM     22  C13 UNL     1      21.591   0.788  29.965  0.00  0.00    +0.041 A 
ATOM     23  C14 UNL     1      21.760   0.990  28.592  0.00  0.00    +0.136 A 
ATOM     24  F1  UNL     1      21.801  -0.092  27.775  0.00  0.00    -0.205 F 
ATOM     25  C15 UNL     1      21.822   2.299  28.072  0.00  0.00    +0.073 A 
ATOM     26  C17 UNL     1      21.696   3.390  28.952  0.00  0.00    +0.039 A 
BRANCH  25  27
ATOM     27  C16 UNL     1      21.983   2.547  26.621  0.00  0.00    +0.244 C 
ATOM     28  N4  UNL     1      23.075   3.318  26.115  0.00  0.00    -0.325 N 
ATOM     29  O4  UNL     1      21.128   2.093  25.812  0.00  0.00    -0.270 OA
ATOM     30  H21 UNL     1      23.694   3.864  26.753  0.00  0.00    +0.145 HD
ATOM     31  H22 UNL     1      23.204   3.427  25.085  0.00  0.00    +0.145 HD
ENDBRANCH  25  27
ENDBRANCH   4  20
TORSDOF 5
ENDMDL
MODEL 7
REMARK VINA RESULT:    -6.138     15.222     16.560
REMARK INTER + INTRA:          -8.651
REMARK INTER:                  -8.094
REMARK INTRA:                  -0.557
REMARK UNBOUND:                -0.719
REMARK  Name = /home/qwerty/github/datacon2025hack/step_04_hit_selection/docking/ligands/lig_214.pdb
REMARK  8 active torsions:
REMARK  status: ('A' for Active; 'I' for Inactive)
REMARK    1  A    between atoms: C1_1  and  C2_2
REMARK    2  A    between atoms: C2_2  and  C3_3
REMARK    3  A    between atoms: C2_2  and  C4_4
REMARK    4  A    between atoms: C2_2  and  O1_5
REMARK    5  A    between atoms: O1_5  and  C5_6
REMARK    6  A    between atoms: C9_12  and  N2_13
REMARK    7  A    between atoms: N3_16  and  C11_17
REMARK    8  A    between atoms: C15_22  and  C16_23
REMARK                            x       y       z     vdW  Elec       q    Type
REMARK                         _______ _______ _______ _____ _____    ______ ____
ROOT
ATOM      1  N2  UNL     1      12.338   5.610  20.853  0.00  0.00    -0.295 N 
ATOM      2  C10 UNL     1      11.194   6.469  20.950  0.00  0.00    +0.304 C 
ATOM      3  O3  UNL     1      10.150   6.209  20.292  0.00  0.00    -0.253 OA
ATOM      4  N3  UNL     1      11.228   7.596  21.838  0.00  0.00    -0.269 N 
ATOM      5  H17 UNL     1      13.134   5.782  21.508  0.00  0.00    +0.151 HD
ATOM      6  H18 UNL     1      11.968   7.612  22.575  0.00  0.00    +0.156 HD
ENDROOT
BRANCH   1  13
ATOM      7  C5  UNL     1      13.741   1.549  22.052  0.00  0.00    +0.403 C 
ATOM      8  O2  UNL     1      12.774   0.740  22.065  0.00  0.00    -0.226 OA
ATOM      9  N1  UNL     1      13.640   2.770  21.294  0.00  0.00    -0.266 N 
ATOM     10  C6  UNL     1      14.768   3.716  21.273  0.00  0.00    +0.111 C 
ATOM     11  C7  UNL     1      14.951   4.376  19.892  0.00  0.00    +0.021 C 
ATOM     12  C8  UNL     1      13.656   4.501  19.068  0.00  0.00    +0.025 C 
ATOM     13  C9  UNL     1      12.389   4.464  19.934  0.00  0.00    +0.092 C 
ATOM     14  C18 UNL     1      12.339   3.131  20.703  0.00  0.00    +0.133 C 
BRANCH   7  15
ATOM     15  O1  UNL     1      14.914   1.270  22.775  0.00  0.00    -0.445 OA
BRANCH  15  17
ATOM     16  C1  UNL     1      17.223   0.728  23.079  0.00  0.00    +0.055 C 
ATOM     17  C2  UNL     1      15.894   0.272  22.457  0.00  0.00    +0.107 C 
ATOM     18  C3  UNL     1      15.501  -1.089  23.066  0.00  0.00    +0.055 C 
ATOM     19  C4  UNL     1      16.075   0.153  20.932  0.00  0.00    +0.055 C 
ENDBRANCH  15  17
ENDBRANCH   7  15
ENDBRANCH   1  13
BRANCH   4  20
ATOM     20  C11 UNL     1      10.249   8.649  21.839  0.00  0.00    +0.036 A 
ATOM     21  C12 UNL     1      10.104   9.451  20.700  0.00  0.00    +0.026 A 
ATOM     22  C13 UNL     1       9.142  10.462  20.665  0.00  0.00    +0.041 A 
ATOM     23  C14 UNL     1       8.306  10.681  21.764  0.00  0.00    +0.136 A 
ATOM     24  F1  UNL     1       7.343  11.632  21.671  0.00  0.00    -0.205 F 
ATOM     25  C15 UNL     1       8.430   9.880  22.917  0.00  0.00    +0.073 A 
ATOM     26  C17 UNL     1       9.392   8.853  22.936  0.00  0.00    +0.039 A 
BRANCH  25  27
ATOM     27  C16 UNL     1       7.548  10.074  24.091  0.00  0.00    +0.244 C 
ATOM     28  N4  UNL     1       6.126  10.131  23.951  0.00  0.00    -0.325 N 
ATOM     29  O4  UNL     1       8.056  10.219  25.236  0.00  0.00    -0.270 OA
ATOM     30  H21 UNL     1       5.676  10.203  23.013  0.00  0.00    +0.145 HD
ATOM     31  H22 UNL     1       5.521  10.206  24.800  0.00  0.00    +0.145 HD
ENDBRANCH  25  27
ENDBRANCH   4  20
TORSDOF 5
ENDMDL
MODEL 8
REMARK VINA RESULT:    -6.100     13.948     15.612
REMARK INTER + INTRA:          -8.602
REMARK INTER:                  -8.138
REMARK INTRA:                  -0.464
REMARK UNBOUND:                -0.719
REMARK  Name = /home/qwerty/github/datacon2025hack/step_04_hit_selection/docking/ligands/lig_214.pdb
REMARK  8 active torsions:
REMARK  status: ('A' for Active; 'I' for Inactive)
REMARK    1  A    between atoms: C1_1  and  C2_2
REMARK    2  A    between atoms: C2_2  and  C3_3
REMARK    3  A    between atoms: C2_2  and  C4_4
REMARK    4  A    between atoms: C2_2  and  O1_5
REMARK    5  A    between atoms: O1_5  and  C5_6
REMARK    6  A    between atoms: C9_12  and  N2_13
REMARK    7  A    between atoms: N3_16  and  C11_17
REMARK    8  A    between atoms: C15_22  and  C16_23
REMARK                            x       y       z     vdW  Elec       q    Type
REMARK                         _______ _______ _______ _____ _____    ______ ____
ROOT
ATOM      1  N2  UNL     1       8.670   8.275  23.641  0.00  0.00    -0.295 N 
ATOM      2  C10 UNL     1       8.098   9.126  24.644  0.00  0.00    +0.304 C 
ATOM      3  O3  UNL     1       7.180   9.935  24.338  0.00  0.00    -0.253 OA
ATOM      4  N3  UNL     1       8.543   9.017  26.004  0.00  0.00    -0.269 N 
ATOM      5  H17 UNL     1       9.332   7.530  23.955  0.00  0.00    +0.151 HD
ATOM      6  H18 UNL     1       9.068   8.156  26.275  0.00  0.00    +0.156 HD
ENDROOT
BRANCH   1  13
ATOM      7  C5  UNL     1      10.819   6.118  20.381  0.00  0.00    +0.403 C 
ATOM      8  O2  UNL     1      10.089   5.204  19.908  0.00  0.00    -0.226 OA
ATOM      9  N1  UNL     1      10.218   7.207  21.107  0.00  0.00    -0.266 N 
ATOM     10  C6  UNL     1      11.065   8.278  21.659  0.00  0.00    +0.111 C 
ATOM     11  C7  UNL     1      10.398   9.663  21.554  0.00  0.00    +0.021 C 
ATOM     12  C8  UNL     1       8.858   9.633  21.574  0.00  0.00    +0.025 C 
ATOM     13  C9  UNL     1       8.293   8.362  22.224  0.00  0.00    +0.092 C 
ATOM     14  C18 UNL     1       8.784   7.131  21.439  0.00  0.00    +0.133 C 
BRANCH   7  15
ATOM     15  O1  UNL     1      12.213   6.078  20.208  0.00  0.00    -0.445 OA
BRANCH  15  17
ATOM     16  C1  UNL     1      14.482   5.730  20.876  0.00  0.00    +0.055 C 
ATOM     17  C2  UNL     1      13.105   5.070  20.704  0.00  0.00    +0.107 C 
ATOM     18  C3  UNL     1      12.629   4.549  22.074  0.00  0.00    +0.055 C 
ATOM     19  C4  UNL     1      13.232   3.912  19.696  0.00  0.00    +0.055 C 
ENDBRANCH  15  17
ENDBRANCH   7  15
ENDBRANCH   1  13
BRANCH   4  20
ATOM     20  C11 UNL     1       8.223   9.967  27.033  0.00  0.00    +0.036 A 
ATOM     21  C12 UNL     1       7.704   9.510  28.252  0.00  0.00    +0.026 A 
ATOM     22  C13 UNL     1       7.412  10.410  29.277  0.00  0.00    +0.041 A 
ATOM     23  C14 UNL     1       7.640  11.778  29.104  0.00  0.00    +0.136 A 
ATOM     24  F1  UNL     1       7.400  12.615  30.145  0.00  0.00    -0.205 F 
ATOM     25  C15 UNL     1       8.169  12.259  27.890  0.00  0.00    +0.073 A 
ATOM     26  C17 UNL     1       8.476  11.341  26.868  0.00  0.00    +0.039 A 
BRANCH  25  27
ATOM     27  C16 UNL     1       8.440  13.700  27.682  0.00  0.00    +0.244 C 
ATOM     28  N4  UNL     1       9.772  14.219  27.713  0.00  0.00    -0.325 N 
ATOM     29  O4  UNL     1       7.478  14.495  27.498  0.00  0.00    -0.270 OA
ATOM     30  H21 UNL     1      10.572  13.637  28.043  0.00  0.00    +0.145 HD
ATOM     31  H22 UNL     1       9.944  15.227  27.501  0.00  0.00    +0.145 HD
ENDBRANCH  25  27
ENDBRANCH   4  20
TORSDOF 5
ENDMDL
MODEL 9
REMARK VINA RESULT:    -5.891      3.517      9.880
REMARK INTER + INTRA:          -8.332
REMARK INTER:                  -7.589
REMARK INTRA:                  -0.743
REMARK UNBOUND:                -0.719
REMARK  Name = /home/qwerty/github/datacon2025hack/step_04_hit_selection/docking/ligands/lig_214.pdb
REMARK  8 active torsions:
REMARK  status: ('A' for Active; 'I' for Inactive)
REMARK    1  A    between atoms: C1_1  and  C2_2
REMARK    2  A    between atoms: C2_2  and  C3_3
REMARK    3  A    between atoms: C2_2  and  C4_4
REMARK    4  A    between atoms: C2_2  and  O1_5
REMARK    5  A    between atoms: O1_5  and  C5_6
REMARK    6  A    between atoms: C9_12  and  N2_13
REMARK    7  A    between atoms: N3_16  and  C11_17
REMARK    8  A    between atoms: C15_22  and  C16_23
REMARK                            x       y       z     vdW  Elec       q    Type
REMARK                         _______ _______ _______ _____ _____    ______ ____
ROOT
ATOM      1  N2  UNL     1      18.281  11.281  35.158  0.00  0.00    -0.295 N 
ATOM      2  C10 UNL     1      19.507  10.621  35.503  0.00  0.00    +0.304 C 
ATOM      3  O3  UNL     1      20.444  11.271  36.043  0.00  0.00    -0.253 OA
ATOM      4  N3  UNL     1      19.641   9.211  35.274  0.00  0.00    -0.269 N 
ATOM      5  H17 UNL     1      17.484  10.688  34.835  0.00  0.00    +0.151 HD
ATOM      6  H18 UNL     1      18.769   8.660  35.115  0.00  0.00    +0.156 HD
ENDROOT
BRANCH   1  13
ATOM      7  C5  UNL     1      14.324  13.164  35.991  0.00  0.00    +0.403 C 
ATOM      8  O2  UNL     1      14.298  13.624  37.165  0.00  0.00    -0.226 OA
ATOM      9  N1  UNL     1      15.589  12.917  35.349  0.00  0.00    -0.266 N 
ATOM     10  C6  UNL     1      15.624  12.383  33.977  0.00  0.00    +0.111 C 
ATOM     11  C7  UNL     1      16.769  12.991  33.143  0.00  0.00    +0.021 C 
ATOM     12  C8  UNL     1      17.991  13.437  33.967  0.00  0.00    +0.025 C 
ATOM     13  C9  UNL     1      18.089  12.728  35.325  0.00  0.00    +0.092 C 
ATOM     14  C18 UNL     1      16.823  13.032  36.147  0.00  0.00    +0.133 C 
BRANCH   7  15
ATOM     15  O1  UNL     1      13.127  12.888  35.308  0.00  0.00    -0.445 OA
BRANCH  15  17
ATOM     16  C1  UNL     1      11.448  11.520  34.295  0.00  0.00    +0.055 C 
ATOM     17  C2  UNL     1      12.205  11.827  35.596  0.00  0.00    +0.107 C 
ATOM     18  C3  UNL     1      12.959  10.559  36.043  0.00  0.00    +0.055 C 
ATOM     19  C4  UNL     1      11.191  12.264  36.670  0.00  0.00    +0.055 C 
ENDBRANCH  15  17
ENDBRANCH   7  15
ENDBRANCH   1  13
BRANCH   4  20
ATOM     20  C11 UNL     1      20.888   8.499  35.353  0.00  0.00    +0.036 A 
ATOM     21  C12 UNL     1      21.158   7.712  36.480  0.00  0.00    +0.026 A 
ATOM     22  C13 UNL     1      22.349   6.990  36.568  0.00  0.00    +0.041 A 
ATOM     23  C14 UNL     1      23.282   7.036  35.529  0.00  0.00    +0.136 A 
ATOM     24  F1  UNL     1      24.400   6.273  35.624  0.00  0.00    -0.205 F 
ATOM     25  C15 UNL     1      23.027   7.814  34.383  0.00  0.00    +0.073 A 
ATOM     26  C17 UNL     1      21.817   8.527  34.297  0.00  0.00    +0.039 A 
BRANCH  25  27
ATOM     27  C16 UNL     1      23.988   7.870  33.257  0.00  0.00    +0.244 C 
ATOM     28  N4  UNL     1      25.225   8.577  33.370  0.00  0.00    -0.325 N 
ATOM     29  O4  UNL     1      23.703   7.307  32.165  0.00  0.00    -0.270 OA
ATOM     30  H21 UNL     1      25.418   9.207  34.179  0.00  0.00    +0.145 HD
ATOM     31  H22 UNL     1      25.915   8.551  32.587  0.00  0.00    +0.145 HD
ENDBRANCH  25  27
ENDBRANCH   4  20
TORSDOF 5
ENDMDL
