REMARK  Name = /home/qwerty/github/datacon2025hack/step_04_hit_selection/docking/ligands/lig_806.pdb
REMARK  7 active torsions:
REMARK  status: ('A' for Active; 'I' for Inactive)
REMARK    1  A    between atoms: C1_1  and  C2_2
REMARK    2  A    between atoms: C2_2  and  C3_3
REMARK    3  A    between atoms: C2_2  and  N1_9
REMARK    4  A    between atoms: N1_9  and  C9_10
REMARK    5  A    between atoms: C10_11  and  C11_13
REMARK    6  A    between atoms: N2_19  and  C17_20
REMARK    7  A    between atoms: C17_20  and  C18_21
REMARK                            x       y       z     vdW  Elec       q    Type
REMARK                         _______ _______ _______ _____ _____    ______ ____
ROOT
ATOM      1  C11 UNL     1      -0.503  -0.886  -0.218  0.00  0.00    +0.039 A 
ATOM      2  C12 UNL     1      -0.840  -1.083   1.130  0.00  0.00    +0.017 A 
ATOM      3  C13 UNL     1      -0.033  -1.871   1.950  0.00  0.00    +0.048 A 
ATOM      4  C14 UNL     1       1.127  -2.457   1.441  0.00  0.00    +0.143 A 
ATOM      5  C15 UNL     1       1.525  -2.219   0.112  0.00  0.00    +0.079 A 
ATOM      6  C16 UNL     1       0.682  -1.452  -0.719  0.00  0.00    +0.040 A 
ATOM      7  N2  UNL     1       2.802  -2.739  -0.342  0.00  0.00    -0.261 N 
ATOM      8  C25 UNL     1       3.489  -3.692   0.500  0.00  0.00    +0.258 C 
ATOM      9  O4  UNL     1       4.627  -4.132   0.183  0.00  0.00    -0.271 OA
ATOM     10  C26 UNL     1       2.827  -4.221   1.737  0.00  0.00    +0.325 C 
ATOM     11  O5  UNL     1       1.905  -3.272   2.266  0.00  0.00    -0.481 OA
ENDROOT
BRANCH   1  14
ATOM     12  N1  UNL     1      -2.759   0.122  -0.825  0.00  0.00    -0.294 N 
ATOM     13  C9  UNL     1      -3.614  -1.069  -0.755  0.00  0.00    +0.133 C 
ATOM     14  C10 UNL     1      -1.357  -0.050  -1.094  0.00  0.00    +0.247 C 
ATOM     15  O1  UNL     1      -0.846   0.534  -2.088  0.00  0.00    -0.270 OA
BRANCH  12  17
ATOM     16  C1  UNL     1      -4.112   1.736  -2.128  0.00  0.00    +0.033 C 
ATOM     17  C2  UNL     1      -3.331   1.479  -0.831  0.00  0.00    +0.103 C 
BRANCH  17  18
ATOM     18  C3  UNL     1      -4.120   1.728   0.444  0.00  0.00    -0.027 A 
ATOM     19  C4  UNL     1      -3.414   2.031   1.623  0.00  0.00    +0.005 A 
ATOM     20  C5  UNL     1      -4.095   2.241   2.827  0.00  0.00    +0.000 A 
ATOM     21  C6  UNL     1      -5.487   2.142   2.870  0.00  0.00    +0.000 A 
ATOM     22  C7  UNL     1      -6.200   1.822   1.713  0.00  0.00    +0.000 A 
ATOM     23  C8  UNL     1      -5.524   1.609   0.507  0.00  0.00    +0.005 A 
ENDBRANCH  17  18
ENDBRANCH  12  17
ENDBRANCH   1  14
BRANCH   7  24
ATOM     24  C17 UNL     1       3.507  -2.152  -1.498  0.00  0.00    +0.149 C 
BRANCH  24  25
ATOM     25  C18 UNL     1       4.054  -0.793  -1.143  0.00  0.00    -0.026 A 
ATOM     26  C19 UNL     1       5.176  -0.686  -0.279  0.00  0.00    +0.009 A 
ATOM     27  C20 UNL     1       5.673   0.576   0.093  0.00  0.00    +0.050 A 
ATOM     28  C21 UNL     1       5.029   1.702  -0.409  0.00  0.00    +0.166 A 
ATOM     29  C22 UNL     1       3.957   1.608  -1.235  0.00  0.00    +0.167 A 
ATOM     30  C23 UNL     1       3.435   0.381  -1.631  0.00  0.00    +0.054 A 
ATOM     31  O2  UNL     1       3.524   2.876  -1.571  0.00  0.00    -0.453 OA
ATOM     32  C24 UNL     1       4.373   3.825  -0.912  0.00  0.00    +0.466 C 
ATOM     33  O3  UNL     1       5.322   3.033  -0.185  0.00  0.00    -0.453 OA
ENDBRANCH  24  25
ENDBRANCH   7  24
TORSDOF 5
