REMARK  Name = /home/qwerty/github/datacon2025hack/step_04_hit_selection/docking/ligands/lig_113.pdb
REMARK  8 active torsions:
REMARK  status: ('A' for Active; 'I' for Inactive)
REMARK    1  A    between atoms: C1_1  and  C2_2
REMARK    2  A    between atoms: C2_2  and  C3_3
REMARK    3  A    between atoms: C2_2  and  C4_4
REMARK    4  A    between atoms: C2_2  and  O1_5
REMARK    5  A    between atoms: O1_5  and  C5_6
REMARK    6  A    between atoms: C11_14  and  C12_15
REMARK    7  A    between atoms: C13_17  and  C14_18
REMARK    8  A    between atoms: C17_21  and  N3_22
REMARK                            x       y       z     vdW  Elec       q    Type
REMARK                         _______ _______ _______ _____ _____    ______ ____
ROOT
ATOM      1  C12 UNL     1       0.719   0.623   0.108  0.00  0.00    +0.231 A 
ATOM      2  N2  UNL     1       1.836   0.014  -0.331  0.00  0.00    -0.191 NA
ATOM      3  C13 UNL     1       2.753   0.469   0.552  0.00  0.00    +0.202 A 
ATOM      4  N5  UNL     1       2.214   1.298   1.468  0.00  0.00    -0.056 NA
ATOM      5  O3  UNL     1       0.955   1.364   1.162  0.00  0.00    -0.337 OA
ENDROOT
BRANCH   1  14
ATOM      6  C5  UNL     1      -4.712  -0.233  -0.681  0.00  0.00    +0.403 C 
ATOM      7  O2  UNL     1      -5.148  -1.293  -1.209  0.00  0.00    -0.226 OA
ATOM      8  N1  UNL     1      -3.497   0.365  -1.174  0.00  0.00    -0.267 N 
ATOM      9  C6  UNL     1      -2.884  -0.190  -2.392  0.00  0.00    +0.111 C 
ATOM     10  C7  UNL     1      -1.738   0.676  -2.926  0.00  0.00    +0.023 C 
ATOM     11  C8  UNL     1      -0.769   1.201  -1.857  0.00  0.00    +0.008 C 
ATOM     12  C9  UNL     1      -1.450   1.739  -0.607  0.00  0.00    +0.023 C 
ATOM     13  C10 UNL     1      -2.979   1.579  -0.519  0.00  0.00    +0.115 C 
ATOM     14  C11 UNL     1      -0.624   0.453  -0.526  0.00  0.00    +0.086 C 
BRANCH   6  15
ATOM     15  O1  UNL     1      -5.404   0.371   0.382  0.00  0.00    -0.445 OA
BRANCH  15  17
ATOM     16  C1  UNL     1      -7.766  -0.088  -0.066  0.00  0.00    +0.055 C 
ATOM     17  C2  UNL     1      -6.628  -0.089   0.973  0.00  0.00    +0.107 C 
ATOM     18  C3  UNL     1      -6.446  -1.493   1.580  0.00  0.00    +0.055 C 
ATOM     19  C4  UNL     1      -6.985   0.894   2.098  0.00  0.00    +0.055 C 
ENDBRANCH  15  17
ENDBRANCH   6  15
ENDBRANCH   1  14
BRANCH   3  20
ATOM     20  C14 UNL     1       4.183   0.097   0.519  0.00  0.00    +0.023 A 
ATOM     21  C15 UNL     1       4.643  -0.889  -0.368  0.00  0.00    +0.014 A 
ATOM     22  C16 UNL     1       5.994  -1.247  -0.392  0.00  0.00    +0.027 A 
ATOM     23  C17 UNL     1       6.917  -0.620   0.464  0.00  0.00    +0.047 A 
ATOM     24  C21 UNL     1       6.453   0.373   1.346  0.00  0.00    +0.027 A 
ATOM     25  C22 UNL     1       5.101   0.724   1.376  0.00  0.00    +0.014 A 
BRANCH  23  26
ATOM     26  N3  UNL     1       8.312  -0.991   0.440  0.00  0.00    -0.306 N 
ATOM     27  C18 UNL     1       8.987  -1.569  -0.571  0.00  0.00    +0.112 A 
ATOM     28  C19 UNL     1      10.290  -1.751  -0.170  0.00  0.00    +0.130 A 
ATOM     29  N4  UNL     1      10.443  -1.294   1.088  0.00  0.00    -0.244 NA
ATOM     30  C20 UNL     1       9.219  -0.838   1.429  0.00  0.00    +0.204 A 
ENDBRANCH  23  26
ENDBRANCH   3  20
TORSDOF 5
