MODEL 1
REMARK VINA RESULT:    -5.586      0.000      0.000
REMARK INTER + INTRA:          -9.060
REMARK INTER:                  -8.199
REMARK INTRA:                  -0.862
REMARK UNBOUND:                -0.862
REMARK  Name = /home/qwerty/github/datacon2025hack/step_04_hit_selection/docking/ligands/lig_592.pdb
REMARK  10 active torsions:
REMARK  status: ('A' for Active; 'I' for Inactive)
REMARK    1  A    between atoms: C2_2  and  C3_3
REMARK    2  A    between atoms: C3_3  and  C4_4
REMARK    3  A    between atoms: C4_4  and  C5_5
REMARK    4  A    between atoms: C4_4  and  N1_6
REMARK    5  A    between atoms: N2_9  and  C7_10
REMARK    6  A    between atoms: C12_16  and  O2_17
REMARK    7  A    between atoms: O2_17  and  C13_18
REMARK    8  A    between atoms: C13_18  and  C14_19
REMARK    9  A    between atoms: C14_19  and  S1_20
REMARK   10  A    between atoms: S1_20  and  C15_21
REMARK                            x       y       z     vdW  Elec       q    Type
REMARK                         _______ _______ _______ _____ _____    ______ ____
ROOT
ATOM      1  C7  UNL     1      21.508   2.151  32.298  0.00  0.00    +0.078 A 
ATOM      2  C8  UNL     1      20.357   2.091  33.097  0.00  0.00    +0.047 A 
ATOM      3  C9  UNL     1      19.216   1.418  32.652  0.00  0.00    +0.043 A 
ATOM      4 CL1  UNL     1      17.790   1.337  33.670  0.00  0.00    -0.083 Cl
ATOM      5  C10 UNL     1      19.211   0.814  31.394  0.00  0.00    +0.024 A 
ATOM      6  C11 UNL     1      20.340   0.888  30.575  0.00  0.00    +0.049 A 
ATOM      7  C12 UNL     1      21.496   1.566  31.011  0.00  0.00    +0.142 A 
ENDROOT
BRANCH   1  11
ATOM      8  N1  UNL     1      23.637   4.994  33.629  0.00  0.00    -0.296 N 
ATOM      9  C6  UNL     1      22.735   4.318  32.743  0.00  0.00    +0.304 C 
ATOM     10  O1  UNL     1      22.030   4.979  31.932  0.00  0.00    -0.252 OA
ATOM     11  N2  UNL     1      22.644   2.889  32.778  0.00  0.00    -0.266 N 
ATOM     12  H10 UNL     1      24.285   4.413  34.209  0.00  0.00    +0.151 HD
ATOM     13  H11 UNL     1      23.470   2.354  33.131  0.00  0.00    +0.156 HD
BRANCH   8  14
ATOM     14  C4  UNL     1      23.586   6.444  33.841  0.00  0.00    +0.075 C 
ATOM     15  C5  UNL     1      23.445   6.735  35.343  0.00  0.00    +0.028 C 
BRANCH  14  16
ATOM     16  C3  UNL     1      24.852   7.103  33.257  0.00  0.00    +0.048 C 
BRANCH  16  18
ATOM     17  C1  UNL     1      25.340   9.409  32.469  0.00  0.00    +0.004 C 
ATOM     18  C2  UNL     1      24.539   8.340  32.455  0.00  0.00    -0.033 C 
ENDBRANCH  16  18
ENDBRANCH  14  16
ENDBRANCH   8  14
ENDBRANCH   1  11
BRANCH   7  19
ATOM     19  O2  UNL     1      22.634   1.696  30.196  0.00  0.00    -0.488 OA
BRANCH  19  20
ATOM     20  C13 UNL     1      22.802   1.146  28.889  0.00  0.00    +0.251 C 
BRANCH  20  21
ATOM     21  C14 UNL     1      22.716   2.235  27.817  0.00  0.00    +0.206 C 
BRANCH  21  22
ATOM     22  S1  UNL     1      21.258   2.053  26.793  0.00  0.00    -0.031 S 
ATOM     23  C15 UNL     1      19.922   3.070  27.385  0.00  0.00    +0.194 C 
ATOM     24  O3  UNL     1      20.823   0.615  26.828  0.00  0.00    -0.175 OA
ATOM     25  O4  UNL     1      21.582   2.434  25.375  0.00  0.00    -0.175 OA
ENDBRANCH  21  22
ENDBRANCH  20  21
ENDBRANCH  19  20
ENDBRANCH   7  19
TORSDOF 8
ENDMDL
MODEL 2
REMARK VINA RESULT:    -5.305     14.365     15.678
REMARK INTER + INTRA:          -8.648
REMARK INTER:                  -7.315
REMARK INTRA:                  -1.333
REMARK UNBOUND:                -0.862
REMARK  Name = /home/qwerty/github/datacon2025hack/step_04_hit_selection/docking/ligands/lig_592.pdb
REMARK  10 active torsions:
REMARK  status: ('A' for Active; 'I' for Inactive)
REMARK    1  A    between atoms: C2_2  and  C3_3
REMARK    2  A    between atoms: C3_3  and  C4_4
REMARK    3  A    between atoms: C4_4  and  C5_5
REMARK    4  A    between atoms: C4_4  and  N1_6
REMARK    5  A    between atoms: N2_9  and  C7_10
REMARK    6  A    between atoms: C12_16  and  O2_17
REMARK    7  A    between atoms: O2_17  and  C13_18
REMARK    8  A    between atoms: C13_18  and  C14_19
REMARK    9  A    between atoms: C14_19  and  S1_20
REMARK   10  A    between atoms: S1_20  and  C15_21
REMARK                            x       y       z     vdW  Elec       q    Type
REMARK                         _______ _______ _______ _____ _____    ______ ____
ROOT
ATOM      1  C7  UNL     1      12.462   4.372  20.007  0.00  0.00    +0.078 A 
ATOM      2  C8  UNL     1      13.788   4.731  19.725  0.00  0.00    +0.047 A 
ATOM      3  C9  UNL     1      14.828   3.818  19.916  0.00  0.00    +0.043 A 
ATOM      4 CL1  UNL     1      16.480   4.278  19.542  0.00  0.00    -0.083 Cl
ATOM      5  C10 UNL     1      14.554   2.542  20.407  0.00  0.00    +0.024 A 
ATOM      6  C11 UNL     1      13.241   2.177  20.718  0.00  0.00    +0.049 A 
ATOM      7  C12 UNL     1      12.183   3.090  20.533  0.00  0.00    +0.142 A 
ENDROOT
BRANCH   1  11
ATOM      8  N1  UNL     1      10.652   7.704  19.979  0.00  0.00    -0.296 N 
ATOM      9  C6  UNL     1      11.410   6.614  20.520  0.00  0.00    +0.304 C 
ATOM     10  O1  UNL     1      12.051   6.761  21.596  0.00  0.00    -0.252 OA
ATOM     11  N2  UNL     1      11.428   5.355  19.836  0.00  0.00    -0.266 N 
ATOM     12  H10 UNL     1      10.044   7.517  19.148  0.00  0.00    +0.151 HD
ATOM     13  H11 UNL     1      10.622   5.123  19.213  0.00  0.00    +0.156 HD
BRANCH   8  14
ATOM     14  C4  UNL     1      10.803   9.079  20.464  0.00  0.00    +0.075 C 
ATOM     15  C5  UNL     1      11.091  10.011  19.278  0.00  0.00    +0.028 C 
BRANCH  14  16
ATOM     16  C3  UNL     1       9.529   9.510  21.221  0.00  0.00    +0.048 C 
BRANCH  16  18
ATOM     17  C1  UNL     1      10.895  10.456  23.070  0.00  0.00    +0.004 C 
ATOM     18  C2  UNL     1       9.796   9.807  22.674  0.00  0.00    -0.033 C 
ENDBRANCH  16  18
ENDBRANCH  14  16
ENDBRANCH   8  14
ENDBRANCH   1  11
BRANCH   7  19
ATOM     19  O2  UNL     1      10.857   2.770  20.875  0.00  0.00    -0.488 OA
BRANCH  19  20
ATOM     20  C13 UNL     1      10.343   2.612  22.197  0.00  0.00    +0.251 C 
BRANCH  20  21
ATOM     21  C14 UNL     1      10.091   3.970  22.857  0.00  0.00    +0.206 C 
BRANCH  21  22
ATOM     22  S1  UNL     1       8.552   4.705  22.309  0.00  0.00    -0.031 S 
ATOM     23  C15 UNL     1       8.399   6.384  22.882  0.00  0.00    +0.194 C 
ATOM     24  O3  UNL     1       7.411   3.900  22.863  0.00  0.00    -0.175 OA
ATOM     25  O4  UNL     1       8.485   4.684  20.807  0.00  0.00    -0.175 OA
ENDBRANCH  21  22
ENDBRANCH  20  21
ENDBRANCH  19  20
ENDBRANCH   7  19
TORSDOF 8
ENDMDL
MODEL 3
REMARK VINA RESULT:    -5.250      3.434      4.757
REMARK INTER + INTRA:          -8.567
REMARK INTER:                  -7.581
REMARK INTRA:                  -0.986
REMARK UNBOUND:                -0.862
REMARK  Name = /home/qwerty/github/datacon2025hack/step_04_hit_selection/docking/ligands/lig_592.pdb
REMARK  10 active torsions:
REMARK  status: ('A' for Active; 'I' for Inactive)
REMARK    1  A    between atoms: C2_2  and  C3_3
REMARK    2  A    between atoms: C3_3  and  C4_4
REMARK    3  A    between atoms: C4_4  and  C5_5
REMARK    4  A    between atoms: C4_4  and  N1_6
REMARK    5  A    between atoms: N2_9  and  C7_10
REMARK    6  A    between atoms: C12_16  and  O2_17
REMARK    7  A    between atoms: O2_17  and  C13_18
REMARK    8  A    between atoms: C13_18  and  C14_19
REMARK    9  A    between atoms: C14_19  and  S1_20
REMARK   10  A    between atoms: S1_20  and  C15_21
REMARK                            x       y       z     vdW  Elec       q    Type
REMARK                         _______ _______ _______ _____ _____    ______ ____
ROOT
ATOM      1  C7  UNL     1      22.037   2.384  31.866  0.00  0.00    +0.078 A 
ATOM      2  C8  UNL     1      22.383   2.037  30.552  0.00  0.00    +0.047 A 
ATOM      3  C9  UNL     1      21.584   1.158  29.815  0.00  0.00    +0.043 A 
ATOM      4 CL1  UNL     1      22.022   0.747  28.166  0.00  0.00    -0.083 Cl
ATOM      5  C10 UNL     1      20.440   0.606  30.391  0.00  0.00    +0.024 A 
ATOM      6  C11 UNL     1      20.096   0.921  31.708  0.00  0.00    +0.049 A 
ATOM      7  C12 UNL     1      20.895   1.803  32.464  0.00  0.00    +0.142 A 
ENDROOT
BRANCH   1  11
ATOM      8  N1  UNL     1      23.281   5.356  33.866  0.00  0.00    -0.296 N 
ATOM      9  C6  UNL     1      22.667   4.660  32.774  0.00  0.00    +0.304 C 
ATOM     10  O1  UNL     1      21.923   5.279  31.966  0.00  0.00    -0.252 OA
ATOM     11  N2  UNL     1      22.908   3.258  32.602  0.00  0.00    -0.266 N 
ATOM     12  H10 UNL     1      23.977   4.839  34.451  0.00  0.00    +0.151 HD
ATOM     13  H11 UNL     1      23.791   2.860  32.997  0.00  0.00    +0.156 HD
BRANCH   8  14
ATOM     14  C4  UNL     1      22.869   6.707  34.263  0.00  0.00    +0.075 C 
ATOM     15  C5  UNL     1      22.346   6.677  35.707  0.00  0.00    +0.028 C 
BRANCH  14  16
ATOM     16  C3  UNL     1      24.056   7.680  34.115  0.00  0.00    +0.048 C 
BRANCH  16  18
ATOM     17  C1  UNL     1      25.023   9.213  32.414  0.00  0.00    +0.004 C 
ATOM     18  C2  UNL     1      23.991   8.477  32.838  0.00  0.00    -0.033 C 
ENDBRANCH  16  18
ENDBRANCH  14  16
ENDBRANCH   8  14
ENDBRANCH   1  11
BRANCH   7  19
ATOM     19  O2  UNL     1      20.601   2.109  33.805  0.00  0.00    -0.488 OA
BRANCH  19  20
ATOM     20  C13 UNL     1      19.569   2.982  34.263  0.00  0.00    +0.251 C 
BRANCH  20  21
ATOM     21  C14 UNL     1      18.616   2.258  35.217  0.00  0.00    +0.206 C 
BRANCH  21  22
ATOM     22  S1  UNL     1      17.243   1.505  34.347  0.00  0.00    -0.031 S 
ATOM     23  C15 UNL     1      16.874   2.382  32.842  0.00  0.00    +0.194 C 
ATOM     24  O3  UNL     1      16.033   1.542  35.237  0.00  0.00    -0.175 OA
ATOM     25  O4  UNL     1      17.570   0.075  34.022  0.00  0.00    -0.175 OA
ENDBRANCH  21  22
ENDBRANCH  20  21
ENDBRANCH  19  20
ENDBRANCH   7  19
TORSDOF 8
ENDMDL
MODEL 4
REMARK VINA RESULT:    -5.190     11.986     13.906
REMARK INTER + INTRA:          -8.478
REMARK INTER:                  -7.278
REMARK INTRA:                  -1.200
REMARK UNBOUND:                -0.862
REMARK  Name = /home/qwerty/github/datacon2025hack/step_04_hit_selection/docking/ligands/lig_592.pdb
REMARK  10 active torsions:
REMARK  status: ('A' for Active; 'I' for Inactive)
REMARK    1  A    between atoms: C2_2  and  C3_3
REMARK    2  A    between atoms: C3_3  and  C4_4
REMARK    3  A    between atoms: C4_4  and  C5_5
REMARK    4  A    between atoms: C4_4  and  N1_6
REMARK    5  A    between atoms: N2_9  and  C7_10
REMARK    6  A    between atoms: C12_16  and  O2_17
REMARK    7  A    between atoms: O2_17  and  C13_18
REMARK    8  A    between atoms: C13_18  and  C14_19
REMARK    9  A    between atoms: C14_19  and  S1_20
REMARK   10  A    between atoms: S1_20  and  C15_21
REMARK                            x       y       z     vdW  Elec       q    Type
REMARK                         _______ _______ _______ _____ _____    ______ ____
ROOT
ATOM      1  C7  UNL     1      10.963   1.439  22.361  0.00  0.00    +0.078 A 
ATOM      2  C8  UNL     1      10.404   0.939  23.546  0.00  0.00    +0.047 A 
ATOM      3  C9  UNL     1       9.383   1.633  24.199  0.00  0.00    +0.043 A 
ATOM      4 CL1  UNL     1       8.682   0.986  25.671  0.00  0.00    -0.083 Cl
ATOM      5  C10 UNL     1       8.923   2.844  23.681  0.00  0.00    +0.024 A 
ATOM      6  C11 UNL     1       9.487   3.370  22.516  0.00  0.00    +0.049 A 
ATOM      7  C12 UNL     1      10.521   2.680  21.850  0.00  0.00    +0.142 A 
ENDROOT
BRANCH   1  11
ATOM      8  N1  UNL     1      14.295  -0.305  21.873  0.00  0.00    -0.296 N 
ATOM      9  C6  UNL     1      13.395   0.759  22.208  0.00  0.00    +0.304 C 
ATOM     10  O1  UNL     1      13.796   1.733  22.902  0.00  0.00    -0.252 OA
ATOM     11  N2  UNL     1      12.040   0.713  21.745  0.00  0.00    -0.266 N 
ATOM     12  H10 UNL     1      13.964  -1.040  21.206  0.00  0.00    +0.151 HD
ATOM     13  H11 UNL     1      11.834   0.156  20.885  0.00  0.00    +0.156 HD
BRANCH   8  14
ATOM     14  C4  UNL     1      15.597  -0.464  22.529  0.00  0.00    +0.075 C 
ATOM     15  C5  UNL     1      15.410  -1.200  23.863  0.00  0.00    +0.028 C 
BRANCH  14  16
ATOM     16  C3  UNL     1      16.563  -1.226  21.598  0.00  0.00    +0.048 C 
BRANCH  16  18
ATOM     17  C1  UNL     1      16.777  -1.299  19.123  0.00  0.00    +0.004 C 
ATOM     18  C2  UNL     1      16.687  -0.577  20.243  0.00  0.00    -0.033 C 
ENDBRANCH  16  18
ENDBRANCH  14  16
ENDBRANCH   8  14
ENDBRANCH   1  11
BRANCH   7  19
ATOM     19  O2  UNL     1      11.139   3.200  20.699  0.00  0.00    -0.488 OA
BRANCH  19  20
ATOM     20  C13 UNL     1      12.193   4.163  20.671  0.00  0.00    +0.251 C 
BRANCH  20  21
ATOM     21  C14 UNL     1      13.377   3.660  19.842  0.00  0.00    +0.206 C 
BRANCH  21  22
ATOM     22  S1  UNL     1      14.937   4.299  20.447  0.00  0.00    -0.031 S 
ATOM     23  C15 UNL     1      16.152   3.004  20.590  0.00  0.00    +0.194 C 
ATOM     24  O3  UNL     1      14.715   4.905  21.804  0.00  0.00    -0.175 OA
ATOM     25  O4  UNL     1      15.449   5.360  19.513  0.00  0.00    -0.175 OA
ENDBRANCH  21  22
ENDBRANCH  20  21
ENDBRANCH  19  20
ENDBRANCH   7  19
TORSDOF 8
ENDMDL
MODEL 5
REMARK VINA RESULT:    -5.187     13.471     15.918
REMARK INTER + INTRA:          -8.475
REMARK INTER:                  -7.195
REMARK INTRA:                  -1.280
REMARK UNBOUND:                -0.862
REMARK  Name = /home/qwerty/github/datacon2025hack/step_04_hit_selection/docking/ligands/lig_592.pdb
REMARK  10 active torsions:
REMARK  status: ('A' for Active; 'I' for Inactive)
REMARK    1  A    between atoms: C2_2  and  C3_3
REMARK    2  A    between atoms: C3_3  and  C4_4
REMARK    3  A    between atoms: C4_4  and  C5_5
REMARK    4  A    between atoms: C4_4  and  N1_6
REMARK    5  A    between atoms: N2_9  and  C7_10
REMARK    6  A    between atoms: C12_16  and  O2_17
REMARK    7  A    between atoms: O2_17  and  C13_18
REMARK    8  A    between atoms: C13_18  and  C14_19
REMARK    9  A    between atoms: C14_19  and  S1_20
REMARK   10  A    between atoms: S1_20  and  C15_21
REMARK                            x       y       z     vdW  Elec       q    Type
REMARK                         _______ _______ _______ _____ _____    ______ ____
ROOT
ATOM      1  C7  UNL     1       9.788   5.495  20.620  0.00  0.00    +0.078 A 
ATOM      2  C8  UNL     1      10.445   6.670  20.226  0.00  0.00    +0.047 A 
ATOM      3  C9  UNL     1       9.911   7.922  20.539  0.00  0.00    +0.043 A 
ATOM      4 CL1  UNL     1      10.754   9.383  20.054  0.00  0.00    -0.083 Cl
ATOM      5  C10 UNL     1       8.705   8.011  21.236  0.00  0.00    +0.024 A 
ATOM      6  C11 UNL     1       8.025   6.850  21.612  0.00  0.00    +0.049 A 
ATOM      7  C12 UNL     1       8.551   5.581  21.299  0.00  0.00    +0.142 A 
ENDROOT
BRANCH   1  11
ATOM      8  N1  UNL     1      11.988   2.406  20.614  0.00  0.00    -0.296 N 
ATOM      9  C6  UNL     1      11.669   3.803  20.609  0.00  0.00    +0.304 C 
ATOM     10  O1  UNL     1      12.546   4.654  20.920  0.00  0.00    -0.252 OA
ATOM     11  N2  UNL     1      10.351   4.228  20.241  0.00  0.00    -0.266 N 
ATOM     12  H10 UNL     1      11.274   1.736  20.245  0.00  0.00    +0.151 HD
ATOM     13  H11 UNL     1       9.787   3.599  19.626  0.00  0.00    +0.156 HD
BRANCH   8  14
ATOM     14  C4  UNL     1      13.211   1.884  21.234  0.00  0.00    +0.075 C 
ATOM     15  C5  UNL     1      12.876   0.618  22.037  0.00  0.00    +0.028 C 
BRANCH  14  16
ATOM     16  C3  UNL     1      14.266   1.597  20.147  0.00  0.00    +0.048 C 
BRANCH  16  18
ATOM     17  C1  UNL     1      16.541   2.494  20.590  0.00  0.00    +0.004 C 
ATOM     18  C2  UNL     1      15.322   2.669  20.073  0.00  0.00    -0.033 C 
ENDBRANCH  16  18
ENDBRANCH  14  16
ENDBRANCH   8  14
ENDBRANCH   1  11
BRANCH   7  19
ATOM     19  O2  UNL     1       7.872   4.394  21.626  0.00  0.00    -0.488 OA
BRANCH  19  20
ATOM     20  C13 UNL     1       7.555   3.939  22.942  0.00  0.00    +0.251 C 
BRANCH  20  21
ATOM     21  C14 UNL     1       8.771   4.033  23.866  0.00  0.00    +0.206 C 
BRANCH  21  22
ATOM     22  S1  UNL     1       9.812   2.580  23.753  0.00  0.00    -0.031 S 
ATOM     23  C15 UNL     1       9.437   1.416  25.048  0.00  0.00    +0.194 C 
ATOM     24  O3  UNL     1      11.247   3.005  23.886  0.00  0.00    -0.175 OA
ATOM     25  O4  UNL     1       9.617   1.917  22.418  0.00  0.00    -0.175 OA
ENDBRANCH  21  22
ENDBRANCH  20  21
ENDBRANCH  19  20
ENDBRANCH   7  19
TORSDOF 8
ENDMDL
MODEL 6
REMARK VINA RESULT:    -5.180      5.301      9.661
REMARK INTER + INTRA:          -8.464
REMARK INTER:                  -7.668
REMARK INTRA:                  -0.796
REMARK UNBOUND:                -0.862
REMARK  Name = /home/qwerty/github/datacon2025hack/step_04_hit_selection/docking/ligands/lig_592.pdb
REMARK  10 active torsions:
REMARK  status: ('A' for Active; 'I' for Inactive)
REMARK    1  A    between atoms: C2_2  and  C3_3
REMARK    2  A    between atoms: C3_3  and  C4_4
REMARK    3  A    between atoms: C4_4  and  C5_5
REMARK    4  A    between atoms: C4_4  and  N1_6
REMARK    5  A    between atoms: N2_9  and  C7_10
REMARK    6  A    between atoms: C12_16  and  O2_17
REMARK    7  A    between atoms: O2_17  and  C13_18
REMARK    8  A    between atoms: C13_18  and  C14_19
REMARK    9  A    between atoms: C14_19  and  S1_20
REMARK   10  A    between atoms: S1_20  and  C15_21
REMARK                            x       y       z     vdW  Elec       q    Type
REMARK                         _______ _______ _______ _____ _____    ______ ____
ROOT
ATOM      1  C7  UNL     1      21.070   1.799  25.779  0.00  0.00    +0.078 A 
ATOM      2  C8  UNL     1      21.134   2.842  24.844  0.00  0.00    +0.047 A 
ATOM      3  C9  UNL     1      21.626   4.097  25.211  0.00  0.00    +0.043 A 
ATOM      4 CL1  UNL     1      21.715   5.387  24.025  0.00  0.00    -0.083 Cl
ATOM      5  C10 UNL     1      22.044   4.325  26.522  0.00  0.00    +0.024 A 
ATOM      6  C11 UNL     1      21.962   3.304  27.473  0.00  0.00    +0.049 A 
ATOM      7  C12 UNL     1      21.463   2.034  27.116  0.00  0.00    +0.142 A 
ENDROOT
BRANCH   1  11
ATOM      8  N1  UNL     1      18.606  -0.804  24.538  0.00  0.00    -0.296 N 
ATOM      9  C6  UNL     1      19.114   0.247  25.370  0.00  0.00    +0.304 C 
ATOM     10  O1  UNL     1      18.329   0.910  26.103  0.00  0.00    -0.252 OA
ATOM     11  N2  UNL     1      20.517   0.537  25.369  0.00  0.00    -0.266 N 
ATOM     12  H10 UNL     1      19.294  -1.405  24.028  0.00  0.00    +0.151 HD
ATOM     13  H11 UNL     1      21.175  -0.228  25.098  0.00  0.00    +0.156 HD
BRANCH   8  14
ATOM     14  C4  UNL     1      17.173  -0.975  24.280  0.00  0.00    +0.075 C 
ATOM     15  C5  UNL     1      16.968  -1.459  22.837  0.00  0.00    +0.028 C 
BRANCH  14  16
ATOM     16  C3  UNL     1      16.573  -1.969  25.296  0.00  0.00    +0.048 C 
BRANCH  16  18
ATOM     17  C1  UNL     1      14.346  -3.041  25.556  0.00  0.00    +0.004 C 
ATOM     18  C2  UNL     1      15.355  -2.675  24.760  0.00  0.00    -0.033 C 
ENDBRANCH  16  18
ENDBRANCH  14  16
ENDBRANCH   8  14
ENDBRANCH   1  11
BRANCH   7  19
ATOM     19  O2  UNL     1      21.328   0.998  28.056  0.00  0.00    -0.488 OA
BRANCH  19  20
ATOM     20  C13 UNL     1      20.554   1.043  29.255  0.00  0.00    +0.251 C 
BRANCH  20  21
ATOM     21  C14 UNL     1      21.441   0.872  30.491  0.00  0.00    +0.206 C 
BRANCH  21  22
ATOM     22  S1  UNL     1      21.193   2.189  31.679  0.00  0.00    -0.031 S 
ATOM     23  C15 UNL     1      20.012   3.381  31.085  0.00  0.00    +0.194 C 
ATOM     24  O3  UNL     1      22.506   2.883  31.908  0.00  0.00    -0.175 OA
ATOM     25  O4  UNL     1      20.708   1.614  32.981  0.00  0.00    -0.175 OA
ENDBRANCH  21  22
ENDBRANCH  20  21
ENDBRANCH  19  20
ENDBRANCH   7  19
TORSDOF 8
ENDMDL
MODEL 7
REMARK VINA RESULT:    -5.150      3.506      5.289
REMARK INTER + INTRA:          -8.420
REMARK INTER:                  -7.466
REMARK INTRA:                  -0.955
REMARK UNBOUND:                -0.862
REMARK  Name = /home/qwerty/github/datacon2025hack/step_04_hit_selection/docking/ligands/lig_592.pdb
REMARK  10 active torsions:
REMARK  status: ('A' for Active; 'I' for Inactive)
REMARK    1  A    between atoms: C2_2  and  C3_3
REMARK    2  A    between atoms: C3_3  and  C4_4
REMARK    3  A    between atoms: C4_4  and  C5_5
REMARK    4  A    between atoms: C4_4  and  N1_6
REMARK    5  A    between atoms: N2_9  and  C7_10
REMARK    6  A    between atoms: C12_16  and  O2_17
REMARK    7  A    between atoms: O2_17  and  C13_18
REMARK    8  A    between atoms: C13_18  and  C14_19
REMARK    9  A    between atoms: C14_19  and  S1_20
REMARK   10  A    between atoms: S1_20  and  C15_21
REMARK                            x       y       z     vdW  Elec       q    Type
REMARK                         _______ _______ _______ _____ _____    ______ ____
ROOT
ATOM      1  C7  UNL     1      21.827   2.417  31.981  0.00  0.00    +0.078 A 
ATOM      2  C8  UNL     1      22.161   1.947  30.703  0.00  0.00    +0.047 A 
ATOM      3  C9  UNL     1      21.246   1.199  29.959  0.00  0.00    +0.043 A 
ATOM      4 CL1  UNL     1      21.672   0.632  28.354  0.00  0.00    -0.083 Cl
ATOM      5  C10 UNL     1      19.992   0.899  30.494  0.00  0.00    +0.024 A 
ATOM      6  C11 UNL     1      19.654   1.337  31.777  0.00  0.00    +0.049 A 
ATOM      7  C12 UNL     1      20.570   2.090  32.539  0.00  0.00    +0.142 A 
ENDROOT
BRANCH   1  11
ATOM      8  N1  UNL     1      23.584   5.248  33.792  0.00  0.00    -0.296 N 
ATOM      9  C6  UNL     1      22.928   4.575  32.710  0.00  0.00    +0.304 C 
ATOM     10  O1  UNL     1      22.459   5.236  31.744  0.00  0.00    -0.252 OA
ATOM     11  N2  UNL     1      22.814   3.147  32.729  0.00  0.00    -0.266 N 
ATOM     12  H10 UNL     1      24.057   4.666  34.521  0.00  0.00    +0.151 HD
ATOM     13  H11 UNL     1      23.517   2.606  33.283  0.00  0.00    +0.156 HD
BRANCH   8  14
ATOM     14  C4  UNL     1      23.498   6.701  33.977  0.00  0.00    +0.075 C 
ATOM     15  C5  UNL     1      23.319   7.016  35.469  0.00  0.00    +0.028 C 
BRANCH  14  16
ATOM     16  C3  UNL     1      24.762   7.376  33.408  0.00  0.00    +0.048 C 
BRANCH  16  18
ATOM     17  C1  UNL     1      25.174   9.581  32.336  0.00  0.00    +0.004 C 
ATOM     18  C2  UNL     1      24.437   8.470  32.424  0.00  0.00    -0.033 C 
ENDBRANCH  16  18
ENDBRANCH  14  16
ENDBRANCH   8  14
ENDBRANCH   1  11
BRANCH   7  19
ATOM     19  O2  UNL     1      20.278   2.510  33.849  0.00  0.00    -0.488 OA
BRANCH  19  20
ATOM     20  C13 UNL     1      19.259   3.434  34.229  0.00  0.00    +0.251 C 
BRANCH  20  21
ATOM     21  C14 UNL     1      19.858   4.788  34.619  0.00  0.00    +0.206 C 
BRANCH  21  22
ATOM     22  S1  UNL     1      18.793   5.695  35.736  0.00  0.00    -0.031 S 
ATOM     23  C15 UNL     1      19.678   7.012  36.545  0.00  0.00    +0.194 C 
ATOM     24  O3  UNL     1      18.274   4.749  36.781  0.00  0.00    -0.175 OA
ATOM     25  O4  UNL     1      17.631   6.271  34.976  0.00  0.00    -0.175 OA
ENDBRANCH  21  22
ENDBRANCH  20  21
ENDBRANCH  19  20
ENDBRANCH   7  19
TORSDOF 8
ENDMDL
MODEL 8
REMARK VINA RESULT:    -5.127     14.411     15.588
REMARK INTER + INTRA:          -8.386
REMARK INTER:                  -7.630
REMARK INTRA:                  -0.756
REMARK UNBOUND:                -0.862
REMARK  Name = /home/qwerty/github/datacon2025hack/step_04_hit_selection/docking/ligands/lig_592.pdb
REMARK  10 active torsions:
REMARK  status: ('A' for Active; 'I' for Inactive)
REMARK    1  A    between atoms: C2_2  and  C3_3
REMARK    2  A    between atoms: C3_3  and  C4_4
REMARK    3  A    between atoms: C4_4  and  C5_5
REMARK    4  A    between atoms: C4_4  and  N1_6
REMARK    5  A    between atoms: N2_9  and  C7_10
REMARK    6  A    between atoms: C12_16  and  O2_17
REMARK    7  A    between atoms: O2_17  and  C13_18
REMARK    8  A    between atoms: C13_18  and  C14_19
REMARK    9  A    between atoms: C14_19  and  S1_20
REMARK   10  A    between atoms: S1_20  and  C15_21
REMARK                            x       y       z     vdW  Elec       q    Type
REMARK                         _______ _______ _______ _____ _____    ______ ____
ROOT
ATOM      1  C7  UNL     1      12.038  14.550  29.655  0.00  0.00    +0.078 A 
ATOM      2  C8  UNL     1      13.376  14.691  29.258  0.00  0.00    +0.047 A 
ATOM      3  C9  UNL     1      13.772  14.350  27.963  0.00  0.00    +0.043 A 
ATOM      4 CL1  UNL     1      15.446  14.547  27.476  0.00  0.00    -0.083 Cl
ATOM      5  C10 UNL     1      12.837  13.849  27.057  0.00  0.00    +0.024 A 
ATOM      6  C11 UNL     1      11.505  13.677  27.445  0.00  0.00    +0.049 A 
ATOM      7  C12 UNL     1      11.093  14.014  28.751  0.00  0.00    +0.142 A 
ENDROOT
BRANCH   1  11
ATOM      8  N1  UNL     1      11.856  14.429  33.442  0.00  0.00    -0.296 N 
ATOM      9  C6  UNL     1      11.767  13.942  32.096  0.00  0.00    +0.304 C 
ATOM     10  O1  UNL     1      11.758  12.701  31.871  0.00  0.00    -0.252 OA
ATOM     11  N2  UNL     1      11.682  14.873  31.010  0.00  0.00    -0.266 N 
ATOM     12  H10 UNL     1      11.749  15.457  33.602  0.00  0.00    +0.151 HD
ATOM     13  H11 UNL     1      11.297  15.824  31.208  0.00  0.00    +0.156 HD
BRANCH   8  14
ATOM     14  C4  UNL     1      12.218  13.560  34.566  0.00  0.00    +0.075 C 
ATOM     15  C5  UNL     1      13.021  14.367  35.596  0.00  0.00    +0.028 C 
BRANCH  14  16
ATOM     16  C3  UNL     1      10.944  12.958  35.194  0.00  0.00    +0.048 C 
BRANCH  16  18
ATOM     17  C1  UNL     1       9.221  14.676  35.700  0.00  0.00    +0.004 C 
ATOM     18  C2  UNL     1      10.245  13.924  36.115  0.00  0.00    -0.033 C 
ENDBRANCH  16  18
ENDBRANCH  14  16
ENDBRANCH   8  14
ENDBRANCH   1  11
BRANCH   7  19
ATOM     19  O2  UNL     1       9.771  13.816  29.187  0.00  0.00    -0.488 OA
BRANCH  19  20
ATOM     20  C13 UNL     1       8.741  13.134  28.472  0.00  0.00    +0.251 C 
BRANCH  20  21
ATOM     21  C14 UNL     1       7.886  12.284  29.414  0.00  0.00    +0.206 C 
BRANCH  21  22
ATOM     22  S1  UNL     1       8.086  10.531  29.102  0.00  0.00    -0.031 S 
ATOM     23  C15 UNL     1       9.247   9.802  30.237  0.00  0.00    +0.194 C 
ATOM     24  O3  UNL     1       8.599  10.348  27.701  0.00  0.00    -0.175 OA
ATOM     25  O4  UNL     1       6.759   9.837  29.232  0.00  0.00    -0.175 OA
ENDBRANCH  21  22
ENDBRANCH  20  21
ENDBRANCH  19  20
ENDBRANCH   7  19
TORSDOF 8
ENDMDL
MODEL 9
REMARK VINA RESULT:    -5.065      5.942      9.732
REMARK INTER + INTRA:          -8.295
REMARK INTER:                  -7.558
REMARK INTRA:                  -0.738
REMARK UNBOUND:                -0.862
REMARK  Name = /home/qwerty/github/datacon2025hack/step_04_hit_selection/docking/ligands/lig_592.pdb
REMARK  10 active torsions:
REMARK  status: ('A' for Active; 'I' for Inactive)
REMARK    1  A    between atoms: C2_2  and  C3_3
REMARK    2  A    between atoms: C3_3  and  C4_4
REMARK    3  A    between atoms: C4_4  and  C5_5
REMARK    4  A    between atoms: C4_4  and  N1_6
REMARK    5  A    between atoms: N2_9  and  C7_10
REMARK    6  A    between atoms: C12_16  and  O2_17
REMARK    7  A    between atoms: O2_17  and  C13_18
REMARK    8  A    between atoms: C13_18  and  C14_19
REMARK    9  A    between atoms: C14_19  and  S1_20
REMARK   10  A    between atoms: S1_20  and  C15_21
REMARK                            x       y       z     vdW  Elec       q    Type
REMARK                         _______ _______ _______ _____ _____    ______ ____
ROOT
ATOM      1  C7  UNL     1      20.661   1.023  26.076  0.00  0.00    +0.078 A 
ATOM      2  C8  UNL     1      21.021   0.701  27.392  0.00  0.00    +0.047 A 
ATOM      3  C9  UNL     1      21.633   1.650  28.214  0.00  0.00    +0.043 A 
ATOM      4 CL1  UNL     1      22.062   1.238  29.865  0.00  0.00    -0.083 Cl
ATOM      5  C10 UNL     1      21.906   2.927  27.721  0.00  0.00    +0.024 A 
ATOM      6  C11 UNL     1      21.579   3.255  26.403  0.00  0.00    +0.049 A 
ATOM      7  C12 UNL     1      20.964   2.305  25.562  0.00  0.00    +0.142 A 
ENDROOT
BRANCH   1  11
ATOM      8  N1  UNL     1      18.142  -0.875  23.969  0.00  0.00    -0.296 N 
ATOM      9  C6  UNL     1      18.659  -0.192  25.119  0.00  0.00    +0.304 C 
ATOM     10  O1  UNL     1      17.874   0.229  26.012  0.00  0.00    -0.252 OA
ATOM     11  N2  UNL     1      20.072   0.003  25.251  0.00  0.00    -0.266 N 
ATOM     12  H10 UNL     1      18.825  -1.307  23.305  0.00  0.00    +0.151 HD
ATOM     13  H11 UNL     1      20.708  -0.662  24.755  0.00  0.00    +0.156 HD
BRANCH   8  14
ATOM     14  C4  UNL     1      16.715  -0.870  23.633  0.00  0.00    +0.075 C 
ATOM     15  C5  UNL     1      16.549  -0.709  22.114  0.00  0.00    +0.028 C 
BRANCH  14  16
ATOM     16  C3  UNL     1      16.054  -2.170  24.135  0.00  0.00    +0.048 C 
BRANCH  16  18
ATOM     17  C1  UNL     1      14.277  -2.671  25.798  0.00  0.00    +0.004 C 
ATOM     18  C2  UNL     1      14.717  -1.922  24.783  0.00  0.00    -0.033 C 
ENDBRANCH  16  18
ENDBRANCH  14  16
ENDBRANCH   8  14
ENDBRANCH   1  11
BRANCH   7  19
ATOM     19  O2  UNL     1      20.659   2.588  24.219  0.00  0.00    -0.488 OA
BRANCH  19  20
ATOM     20  C13 UNL     1      19.968   3.740  23.737  0.00  0.00    +0.251 C 
BRANCH  20  21
ATOM     21  C14 UNL     1      20.644   4.306  22.486  0.00  0.00    +0.206 C 
BRANCH  21  22
ATOM     22  S1  UNL     1      21.572   5.796  22.843  0.00  0.00    -0.031 S 
ATOM     23  C15 UNL     1      22.540   6.305  21.438  0.00  0.00    +0.194 C 
ATOM     24  O3  UNL     1      22.498   5.522  23.994  0.00  0.00    -0.175 OA
ATOM     25  O4  UNL     1      20.629   6.903  23.224  0.00  0.00    -0.175 OA
ENDBRANCH  21  22
ENDBRANCH  20  21
ENDBRANCH  19  20
ENDBRANCH   7  19
TORSDOF 8
ENDMDL
