MODEL 1
REMARK VINA RESULT:    -7.331      0.000      0.000
REMARK INTER + INTRA:          -9.537
REMARK INTER:                  -8.830
REMARK INTRA:                  -0.707
REMARK UNBOUND:                -0.707
REMARK  Name = /home/qwerty/github/datacon2025hack/step_04_hit_selection/docking/ligands/lig_267.pdb
REMARK  4 active torsions:
REMARK  status: ('A' for Active; 'I' for Inactive)
REMARK    1  A    between atoms: C1_2  and  C15_20
REMARK    2  A    between atoms: N1_3  and  C2_4
REMARK    3  A    between atoms: C5_7  and  O2_8
REMARK    4  A    between atoms: C6_9  and  C7_10
REMARK                            x       y       z     vdW  Elec       q    Type
REMARK                         _______ _______ _______ _____ _____    ______ ____
ROOT
ATOM      1  C2  UNL     1      15.352   4.886  19.731  0.00  0.00    +0.035 A 
ATOM      2  C3  UNL     1      15.890   3.599  19.627  0.00  0.00    +0.027 A 
ATOM      3  C4  UNL     1      15.119   2.484  19.952  0.00  0.00    +0.048 A 
ATOM      4  C5  UNL     1      13.790   2.632  20.374  0.00  0.00    +0.127 A 
ATOM      5  C6  UNL     1      13.223   3.925  20.476  0.00  0.00    +0.050 A 
ATOM      6  C14 UNL     1      14.015   5.040  20.135  0.00  0.00    +0.037 A 
ENDROOT
BRANCH   5   7
ATOM      7  C7  UNL     1      11.820   4.150  20.913  0.00  0.00    +0.113 A 
ATOM      8  N2  UNL     1      11.243   3.444  21.920  0.00  0.00    -0.239 NA
ATOM      9  C8  UNL     1       9.950   3.809  22.113  0.00  0.00    +0.079 A 
ATOM     10  C9  UNL     1       9.110   3.255  23.081  0.00  0.00    +0.029 A 
ATOM     11  C10 UNL     1       7.787   3.722  23.174  0.00  0.00    +0.002 A 
ATOM     12  C11 UNL     1       7.322   4.729  22.302  0.00  0.00    +0.001 A 
ATOM     13  C12 UNL     1       8.177   5.276  21.332  0.00  0.00    +0.017 A 
ATOM     14  C13 UNL     1       9.482   4.796  21.264  0.00  0.00    +0.040 A 
ATOM     15  S1  UNL     1      10.716   5.245  20.224  0.00  0.00    -0.067 S 
ENDBRANCH   5   7
BRANCH   1  18
ATOM     16  O1  UNL     1      17.450   6.088  21.321  0.00  0.00    -0.266 OA
ATOM     17  C1  UNL     1      17.072   6.670  20.269  0.00  0.00    +0.284 C 
ATOM     18  N1  UNL     1      16.161   6.018  19.368  0.00  0.00    -0.279 N 
ATOM     19  H1  UNL     1      16.160   6.315  18.367  0.00  0.00    +0.155 HD
BRANCH  17  20
ATOM     20  C15 UNL     1      17.612   8.006  19.965  0.00  0.00    +0.191 A 
ATOM     21  C16 UNL     1      16.902   9.207  19.986  0.00  0.00    +0.063 A 
ATOM     22  C17 UNL     1      17.835  10.157  19.642  0.00  0.00    +0.021 A 
ATOM     23  C18 UNL     1      17.721  11.538  19.499  0.00  0.00    +0.011 A 
ATOM     24  C19 UNL     1      18.875  12.255  19.132  0.00  0.00    +0.001 A 
ATOM     25  C20 UNL     1      20.099  11.581  18.919  0.00  0.00    +0.004 A 
ATOM     26  C21 UNL     1      20.179  10.185  19.073  0.00  0.00    +0.047 A 
ATOM     27  C22 UNL     1      19.021   9.504  19.437  0.00  0.00    +0.136 A 
ATOM     28  O3  UNL     1      18.875   8.216  19.634  0.00  0.00    -0.450 OA
ENDBRANCH  17  20
ENDBRANCH   1  18
BRANCH   4  29
ATOM     29  O2  UNL     1      13.040   1.495  20.669  0.00  0.00    -0.506 OA
ATOM     30  H4  UNL     1      12.144   1.553  21.139  0.00  0.00    +0.292 HD
ENDBRANCH   4  29
TORSDOF 4
ENDMDL
MODEL 2
REMARK VINA RESULT:    -7.320     15.434     16.707
REMARK INTER + INTRA:          -9.525
REMARK INTER:                  -8.889
REMARK INTRA:                  -0.636
REMARK UNBOUND:                -0.707
REMARK  Name = /home/qwerty/github/datacon2025hack/step_04_hit_selection/docking/ligands/lig_267.pdb
REMARK  4 active torsions:
REMARK  status: ('A' for Active; 'I' for Inactive)
REMARK    1  A    between atoms: C1_2  and  C15_20
REMARK    2  A    between atoms: N1_3  and  C2_4
REMARK    3  A    between atoms: C5_7  and  O2_8
REMARK    4  A    between atoms: C6_9  and  C7_10
REMARK                            x       y       z     vdW  Elec       q    Type
REMARK                         _______ _______ _______ _____ _____    ______ ____
ROOT
ATOM      1  C2  UNL     1      12.379  12.425  35.507  0.00  0.00    +0.035 A 
ATOM      2  C3  UNL     1      11.470  13.093  36.333  0.00  0.00    +0.027 A 
ATOM      3  C4  UNL     1      10.598  14.042  35.800  0.00  0.00    +0.048 A 
ATOM      4  C5  UNL     1      10.610  14.332  34.428  0.00  0.00    +0.127 A 
ATOM      5  C6  UNL     1      11.515  13.658  33.574  0.00  0.00    +0.050 A 
ATOM      6  C14 UNL     1      12.381  12.696  34.129  0.00  0.00    +0.037 A 
ENDROOT
BRANCH   5   7
ATOM      7  C7  UNL     1      11.574  13.916  32.111  0.00  0.00    +0.113 A 
ATOM      8  N2  UNL     1      10.594  13.523  31.256  0.00  0.00    -0.239 NA
ATOM      9  C8  UNL     1      10.889  13.844  29.970  0.00  0.00    +0.079 A 
ATOM     10  C9  UNL     1      10.065  13.567  28.878  0.00  0.00    +0.029 A 
ATOM     11  C10 UNL     1      10.492  13.952  27.595  0.00  0.00    +0.002 A 
ATOM     12  C11 UNL     1      11.730  14.604  27.420  0.00  0.00    +0.001 A 
ATOM     13  C12 UNL     1      12.550  14.876  28.526  0.00  0.00    +0.017 A 
ATOM     14  C13 UNL     1      12.102  14.484  29.786  0.00  0.00    +0.040 A 
ATOM     15  S1  UNL     1      12.851  14.666  31.273  0.00  0.00    -0.067 S 
ENDBRANCH   5   7
BRANCH   1  18
ATOM     16  O1  UNL     1      14.736  12.919  37.112  0.00  0.00    -0.266 OA
ATOM     17  C1  UNL     1      14.498  11.744  36.724  0.00  0.00    +0.284 C 
ATOM     18  N1  UNL     1      13.251  11.433  36.078  0.00  0.00    -0.279 N 
ATOM     19  H1  UNL     1      12.909  10.447  36.115  0.00  0.00    +0.155 HD
BRANCH  17  20
ATOM     20  C15 UNL     1      15.498  10.695  36.983  0.00  0.00    +0.191 A 
ATOM     21  C16 UNL     1      16.786  10.889  37.482  0.00  0.00    +0.063 A 
ATOM     22  C17 UNL     1      17.316   9.621  37.551  0.00  0.00    +0.021 A 
ATOM     23  C18 UNL     1      18.567   9.177  37.973  0.00  0.00    +0.011 A 
ATOM     24  C19 UNL     1      18.819   7.793  37.928  0.00  0.00    +0.001 A 
ATOM     25  C20 UNL     1      17.826   6.899  37.467  0.00  0.00    +0.004 A 
ATOM     26  C21 UNL     1      16.572   7.382  37.049  0.00  0.00    +0.047 A 
ATOM     27  C22 UNL     1      16.353   8.756  37.105  0.00  0.00    +0.136 A 
ATOM     28  O3  UNL     1      15.269   9.411  36.769  0.00  0.00    -0.450 OA
ENDBRANCH  17  20
ENDBRANCH   1  18
BRANCH   4  29
ATOM     29  O2  UNL     1       9.710  15.269  33.925  0.00  0.00    -0.506 OA
ATOM     30  H4  UNL     1       9.655  15.480  32.935  0.00  0.00    +0.292 HD
ENDBRANCH   4  29
TORSDOF 4
ENDMDL
MODEL 3
REMARK VINA RESULT:    -7.176      5.807      8.594
REMARK INTER + INTRA:          -9.351
REMARK INTER:                  -8.683
REMARK INTRA:                  -0.668
REMARK UNBOUND:                -0.707
REMARK  Name = /home/qwerty/github/datacon2025hack/step_04_hit_selection/docking/ligands/lig_267.pdb
REMARK  4 active torsions:
REMARK  status: ('A' for Active; 'I' for Inactive)
REMARK    1  A    between atoms: C1_2  and  C15_20
REMARK    2  A    between atoms: N1_3  and  C2_4
REMARK    3  A    between atoms: C5_7  and  O2_8
REMARK    4  A    between atoms: C6_9  and  C7_10
REMARK                            x       y       z     vdW  Elec       q    Type
REMARK                         _______ _______ _______ _____ _____    ______ ____
ROOT
ATOM      1  C2  UNL     1       9.723   8.650  21.911  0.00  0.00    +0.035 A 
ATOM      2  C3  UNL     1       9.032   9.471  21.014  0.00  0.00    +0.027 A 
ATOM      3  C4  UNL     1       8.041  10.338  21.472  0.00  0.00    +0.048 A 
ATOM      4  C5  UNL     1       7.730  10.411  22.837  0.00  0.00    +0.127 A 
ATOM      5  C6  UNL     1       8.425   9.597  23.762  0.00  0.00    +0.050 A 
ATOM      6  C14 UNL     1       9.430   8.733  23.282  0.00  0.00    +0.037 A 
ENDROOT
BRANCH   5   7
ATOM      7  C7  UNL     1       8.146   9.629  25.222  0.00  0.00    +0.113 A 
ATOM      8  N2  UNL     1       8.350  10.736  25.984  0.00  0.00    -0.239 NA
ATOM      9  C8  UNL     1       8.052  10.510  27.289  0.00  0.00    +0.079 A 
ATOM     10  C9  UNL     1       8.162  11.465  28.300  0.00  0.00    +0.029 A 
ATOM     11  C10 UNL     1       7.824  11.099  29.615  0.00  0.00    +0.002 A 
ATOM     12  C11 UNL     1       7.383   9.790  29.901  0.00  0.00    +0.001 A 
ATOM     13  C12 UNL     1       7.278   8.839  28.875  0.00  0.00    +0.017 A 
ATOM     14  C13 UNL     1       7.619   9.229  27.582  0.00  0.00    +0.040 A 
ATOM     15  S1  UNL     1       7.600   8.327  26.170  0.00  0.00    -0.067 S 
ENDBRANCH   5   7
BRANCH   1  18
ATOM     16  O1  UNL     1       9.349   6.188  20.436  0.00  0.00    -0.266 OA
ATOM     17  C1  UNL     1      10.505   6.489  20.837  0.00  0.00    +0.284 C 
ATOM     18  N1  UNL     1      10.757   7.781  21.416  0.00  0.00    -0.279 N 
ATOM     19  H1  UNL     1      11.732   8.155  21.383  0.00  0.00    +0.155 HD
BRANCH  17  20
ATOM     20  C15 UNL     1      11.593   5.513  20.663  0.00  0.00    +0.191 A 
ATOM     21  C16 UNL     1      11.498   4.132  20.839  0.00  0.00    +0.063 A 
ATOM     22  C17 UNL     1      12.761   3.667  20.555  0.00  0.00    +0.021 A 
ATOM     23  C18 UNL     1      13.279   2.374  20.557  0.00  0.00    +0.011 A 
ATOM     24  C19 UNL     1      14.635   2.212  20.215  0.00  0.00    +0.001 A 
ATOM     25  C20 UNL     1      15.428   3.334  19.884  0.00  0.00    +0.004 A 
ATOM     26  C21 UNL     1      14.872   4.627  19.891  0.00  0.00    +0.047 A 
ATOM     27  C22 UNL     1      13.529   4.754  20.234  0.00  0.00    +0.136 A 
ATOM     28  O3  UNL     1      12.818   5.853  20.301  0.00  0.00    -0.450 OA
ENDBRANCH  17  20
ENDBRANCH   1  18
BRANCH   4  29
ATOM     29  O2  UNL     1       6.750  11.306  23.263  0.00  0.00    -0.506 OA
ATOM     30  H4  UNL     1       6.368  12.013  22.645  0.00  0.00    +0.292 HD
ENDBRANCH   4  29
TORSDOF 4
ENDMDL
MODEL 4
REMARK VINA RESULT:    -7.127     15.071     16.499
REMARK INTER + INTRA:          -9.292
REMARK INTER:                  -8.707
REMARK INTRA:                  -0.585
REMARK UNBOUND:                -0.707
REMARK  Name = /home/qwerty/github/datacon2025hack/step_04_hit_selection/docking/ligands/lig_267.pdb
REMARK  4 active torsions:
REMARK  status: ('A' for Active; 'I' for Inactive)
REMARK    1  A    between atoms: C1_2  and  C15_20
REMARK    2  A    between atoms: N1_3  and  C2_4
REMARK    3  A    between atoms: C5_7  and  O2_8
REMARK    4  A    between atoms: C6_9  and  C7_10
REMARK                            x       y       z     vdW  Elec       q    Type
REMARK                         _______ _______ _______ _____ _____    ______ ____
ROOT
ATOM      1  C2  UNL     1      21.604   6.237  34.461  0.00  0.00    +0.035 A 
ATOM      2  C3  UNL     1      22.662   5.988  35.342  0.00  0.00    +0.027 A 
ATOM      3  C4  UNL     1      22.728   6.646  36.569  0.00  0.00    +0.048 A 
ATOM      4  C5  UNL     1      21.731   7.557  36.946  0.00  0.00    +0.127 A 
ATOM      5  C6  UNL     1      20.646   7.815  36.074  0.00  0.00    +0.050 A 
ATOM      6  C14 UNL     1      20.592   7.134  34.842  0.00  0.00    +0.037 A 
ENDROOT
BRANCH   5   7
ATOM      7  C7  UNL     1      19.556   8.766  36.416  0.00  0.00    +0.113 A 
ATOM      8  N2  UNL     1      19.526  10.045  35.957  0.00  0.00    -0.239 NA
ATOM      9  C8  UNL     1      18.450  10.724  36.430  0.00  0.00    +0.079 A 
ATOM     10  C9  UNL     1      18.159  12.054  36.123  0.00  0.00    +0.029 A 
ATOM     11  C10 UNL     1      17.011  12.641  36.683  0.00  0.00    +0.002 A 
ATOM     12  C11 UNL     1      16.173  11.895  37.539  0.00  0.00    +0.001 A 
ATOM     13  C12 UNL     1      16.477  10.559  37.841  0.00  0.00    +0.017 A 
ATOM     14  C13 UNL     1      17.620  10.003  37.271  0.00  0.00    +0.040 A 
ATOM     15  S1  UNL     1      18.237   8.455  37.444  0.00  0.00    -0.067 S 
ENDBRANCH   5   7
BRANCH   1  18
ATOM     16  O1  UNL     1      20.226   3.744  33.954  0.00  0.00    -0.266 OA
ATOM     17  C1  UNL     1      20.987   4.212  33.065  0.00  0.00    +0.284 C 
ATOM     18  N1  UNL     1      21.547   5.528  33.211  0.00  0.00    -0.279 N 
ATOM     19  H1  UNL     1      21.835   6.040  32.348  0.00  0.00    +0.155 HD
BRANCH  17  20
ATOM     20  C15 UNL     1      21.254   3.405  31.863  0.00  0.00    +0.191 A 
ATOM     21  C16 UNL     1      21.408   2.019  31.818  0.00  0.00    +0.063 A 
ATOM     22  C17 UNL     1      21.630   1.747  30.488  0.00  0.00    +0.021 A 
ATOM     23  C18 UNL     1      21.852   0.540  29.828  0.00  0.00    +0.011 A 
ATOM     24  C19 UNL     1      22.048   0.583  28.435  0.00  0.00    +0.001 A 
ATOM     25  C20 UNL     1      22.018   1.816  27.745  0.00  0.00    +0.004 A 
ATOM     26  C21 UNL     1      21.790   3.017  28.443  0.00  0.00    +0.047 A 
ATOM     27  C22 UNL     1      21.599   2.942  29.821  0.00  0.00    +0.136 A 
ATOM     28  O3  UNL     1      21.372   3.927  30.655  0.00  0.00    -0.450 OA
ENDBRANCH  17  20
ENDBRANCH   1  18
BRANCH   4  29
ATOM     29  O2  UNL     1      21.816   8.181  38.190  0.00  0.00    -0.506 OA
ATOM     30  H4  UNL     1      22.681   8.203  38.717  0.00  0.00    +0.292 HD
ENDBRANCH   4  29
TORSDOF 4
ENDMDL
MODEL 5
REMARK VINA RESULT:    -7.032      3.255      5.360
REMARK INTER + INTRA:          -9.178
REMARK INTER:                  -8.526
REMARK INTRA:                  -0.652
REMARK UNBOUND:                -0.707
REMARK  Name = /home/qwerty/github/datacon2025hack/step_04_hit_selection/docking/ligands/lig_267.pdb
REMARK  4 active torsions:
REMARK  status: ('A' for Active; 'I' for Inactive)
REMARK    1  A    between atoms: C1_2  and  C15_20
REMARK    2  A    between atoms: N1_3  and  C2_4
REMARK    3  A    between atoms: C5_7  and  O2_8
REMARK    4  A    between atoms: C6_9  and  C7_10
REMARK                            x       y       z     vdW  Elec       q    Type
REMARK                         _______ _______ _______ _____ _____    ______ ____
ROOT
ATOM      1  C2  UNL     1      15.180   5.070  19.907  0.00  0.00    +0.035 A 
ATOM      2  C3  UNL     1      13.921   4.787  19.368  0.00  0.00    +0.027 A 
ATOM      3  C4  UNL     1      13.298   3.567  19.630  0.00  0.00    +0.048 A 
ATOM      4  C5  UNL     1      13.917   2.611  20.448  0.00  0.00    +0.127 A 
ATOM      5  C6  UNL     1      15.186   2.882  21.013  0.00  0.00    +0.050 A 
ATOM      6  C14 UNL     1      15.796   4.123  20.744  0.00  0.00    +0.037 A 
ENDROOT
BRANCH   5   7
ATOM      7  C7  UNL     1      15.893   1.912  21.891  0.00  0.00    +0.113 A 
ATOM      8  N2  UNL     1      15.737   0.568  21.775  0.00  0.00    -0.239 NA
ATOM      9  C8  UNL     1      16.460  -0.105  22.706  0.00  0.00    +0.079 A 
ATOM     10  C9  UNL     1      16.497  -1.495  22.824  0.00  0.00    +0.029 A 
ATOM     11  C10 UNL     1      17.286  -2.067  23.837  0.00  0.00    +0.002 A 
ATOM     12  C11 UNL     1      18.025  -1.246  24.715  0.00  0.00    +0.001 A 
ATOM     13  C12 UNL     1      17.979   0.151  24.586  0.00  0.00    +0.017 A 
ATOM     14  C13 UNL     1      17.189   0.689  23.573  0.00  0.00    +0.040 A 
ATOM     15  S1  UNL     1      16.935   2.298  23.179  0.00  0.00    -0.067 S 
ENDBRANCH   5   7
BRANCH   1  18
ATOM     16  O1  UNL     1      17.611   5.539  18.409  0.00  0.00    -0.266 OA
ATOM     17  C1  UNL     1      17.085   6.499  19.033  0.00  0.00    +0.284 C 
ATOM     18  N1  UNL     1      15.790   6.345  19.640  0.00  0.00    -0.279 N 
ATOM     19  H1  UNL     1      15.216   7.202  19.803  0.00  0.00    +0.155 HD
BRANCH  17  20
ATOM     20  C15 UNL     1      17.799   7.784  19.092  0.00  0.00    +0.191 A 
ATOM     21  C16 UNL     1      19.165   7.978  18.884  0.00  0.00    +0.063 A 
ATOM     22  C17 UNL     1      19.341   9.334  19.038  0.00  0.00    +0.021 A 
ATOM     23  C18 UNL     1      20.487  10.122  18.946  0.00  0.00    +0.011 A 
ATOM     24  C19 UNL     1      20.347  11.506  19.157  0.00  0.00    +0.001 A 
ATOM     25  C20 UNL     1      19.080  12.061  19.450  0.00  0.00    +0.004 A 
ATOM     26  C21 UNL     1      17.943  11.237  19.534  0.00  0.00    +0.047 A 
ATOM     27  C22 UNL     1      18.114   9.871  19.321  0.00  0.00    +0.136 A 
ATOM     28  O3  UNL     1      17.199   8.933  19.350  0.00  0.00    -0.450 OA
ENDBRANCH  17  20
ENDBRANCH   1  18
BRANCH   4  29
ATOM     29  O2  UNL     1      13.257   1.411  20.708  0.00  0.00    -0.506 OA
ATOM     30  H4  UNL     1      12.247   1.337  20.662  0.00  0.00    +0.292 HD
ENDBRANCH   4  29
TORSDOF 4
ENDMDL
MODEL 6
REMARK VINA RESULT:    -6.998      7.565      8.586
REMARK INTER + INTRA:          -9.136
REMARK INTER:                  -8.574
REMARK INTRA:                  -0.562
REMARK UNBOUND:                -0.707
REMARK  Name = /home/qwerty/github/datacon2025hack/step_04_hit_selection/docking/ligands/lig_267.pdb
REMARK  4 active torsions:
REMARK  status: ('A' for Active; 'I' for Inactive)
REMARK    1  A    between atoms: C1_2  and  C15_20
REMARK    2  A    between atoms: N1_3  and  C2_4
REMARK    3  A    between atoms: C5_7  and  O2_8
REMARK    4  A    between atoms: C6_9  and  C7_10
REMARK                            x       y       z     vdW  Elec       q    Type
REMARK                         _______ _______ _______ _____ _____    ______ ____
ROOT
ATOM      1  C2  UNL     1      21.884   3.116  25.496  0.00  0.00    +0.035 A 
ATOM      2  C3  UNL     1      22.544   3.133  26.729  0.00  0.00    +0.027 A 
ATOM      3  C4  UNL     1      22.095   2.336  27.781  0.00  0.00    +0.048 A 
ATOM      4  C5  UNL     1      20.985   1.495  27.617  0.00  0.00    +0.127 A 
ATOM      5  C6  UNL     1      20.310   1.454  26.374  0.00  0.00    +0.050 A 
ATOM      6  C14 UNL     1      20.783   2.260  25.320  0.00  0.00    +0.037 A 
ENDROOT
BRANCH   5   7
ATOM      7  C7  UNL     1      19.130   0.582  26.134  0.00  0.00    +0.113 A 
ATOM      8  N2  UNL     1      19.164  -0.483  25.291  0.00  0.00    -0.239 NA
ATOM      9  C8  UNL     1      17.958  -1.103  25.216  0.00  0.00    +0.079 A 
ATOM     10  C9  UNL     1      17.697  -2.228  24.431  0.00  0.00    +0.029 A 
ATOM     11  C10 UNL     1      16.401  -2.772  24.441  0.00  0.00    +0.002 A 
ATOM     12  C11 UNL     1      15.388  -2.189  25.230  0.00  0.00    +0.001 A 
ATOM     13  C12 UNL     1      15.663  -1.057  26.014  0.00  0.00    +0.017 A 
ATOM     14  C13 UNL     1      16.956  -0.540  25.985  0.00  0.00    +0.040 A 
ATOM     15  S1  UNL     1      17.578   0.786  26.799  0.00  0.00    -0.067 S 
ENDBRANCH   5   7
BRANCH   1  18
ATOM     16  O1  UNL     1      20.912   5.728  24.719  0.00  0.00    -0.266 OA
ATOM     17  C1  UNL     1      21.748   5.144  23.979  0.00  0.00    +0.284 C 
ATOM     18  N1  UNL     1      22.381   3.930  24.420  0.00  0.00    -0.279 N 
ATOM     19  H1  UNL     1      23.307   3.679  24.008  0.00  0.00    +0.155 HD
BRANCH  17  20
ATOM     20  C15 UNL     1      22.091   5.748  22.682  0.00  0.00    +0.191 A 
ATOM     21  C16 UNL     1      21.533   5.420  21.446  0.00  0.00    +0.063 A 
ATOM     22  C17 UNL     1      22.169   6.254  20.555  0.00  0.00    +0.021 A 
ATOM     23  C18 UNL     1      22.031   6.391  19.176  0.00  0.00    +0.011 A 
ATOM     24  C19 UNL     1      22.834   7.350  18.531  0.00  0.00    +0.001 A 
ATOM     25  C20 UNL     1      23.742   8.139  19.273  0.00  0.00    +0.004 A 
ATOM     26  C21 UNL     1      23.855   7.975  20.666  0.00  0.00    +0.047 A 
ATOM     27  C22 UNL     1      23.048   7.018  21.275  0.00  0.00    +0.136 A 
ATOM     28  O3  UNL     1      22.992   6.707  22.547  0.00  0.00    -0.450 OA
ENDBRANCH  17  20
ENDBRANCH   1  18
BRANCH   4  29
ATOM     29  O2  UNL     1      20.577   0.694  28.682  0.00  0.00    -0.506 OA
ATOM     30  H4  UNL     1      20.892   0.866  29.630  0.00  0.00    +0.292 HD
ENDBRANCH   4  29
TORSDOF 4
ENDMDL
MODEL 7
REMARK VINA RESULT:    -6.920     15.088     16.713
REMARK INTER + INTRA:          -9.043
REMARK INTER:                  -8.327
REMARK INTRA:                  -0.716
REMARK UNBOUND:                -0.707
REMARK  Name = /home/qwerty/github/datacon2025hack/step_04_hit_selection/docking/ligands/lig_267.pdb
REMARK  4 active torsions:
REMARK  status: ('A' for Active; 'I' for Inactive)
REMARK    1  A    between atoms: C1_2  and  C15_20
REMARK    2  A    between atoms: N1_3  and  C2_4
REMARK    3  A    between atoms: C5_7  and  O2_8
REMARK    4  A    between atoms: C6_9  and  C7_10
REMARK                            x       y       z     vdW  Elec       q    Type
REMARK                         _______ _______ _______ _____ _____    ______ ____
ROOT
ATOM      1  C2  UNL     1      13.869  13.150  34.361  0.00  0.00    +0.035 A 
ATOM      2  C3  UNL     1      13.911  14.392  35.002  0.00  0.00    +0.027 A 
ATOM      3  C4  UNL     1      14.785  14.608  36.066  0.00  0.00    +0.048 A 
ATOM      4  C5  UNL     1      15.644  13.590  36.503  0.00  0.00    +0.127 A 
ATOM      5  C6  UNL     1      15.625  12.328  35.861  0.00  0.00    +0.050 A 
ATOM      6  C14 UNL     1      14.741  12.132  34.782  0.00  0.00    +0.037 A 
ENDROOT
BRANCH   5   7
ATOM      7  C7  UNL     1      16.513  11.209  36.273  0.00  0.00    +0.113 A 
ATOM      8  N2  UNL     1      17.863  11.251  36.125  0.00  0.00    -0.239 NA
ATOM      9  C8  UNL     1      18.450  10.101  36.545  0.00  0.00    +0.079 A 
ATOM     10  C9  UNL     1      19.825   9.861  36.516  0.00  0.00    +0.029 A 
ATOM     11  C10 UNL     1      20.304   8.623  36.978  0.00  0.00    +0.002 A 
ATOM     12  C11 UNL     1      19.409   7.646  37.462  0.00  0.00    +0.001 A 
ATOM     13  C12 UNL     1      18.029   7.900  37.485  0.00  0.00    +0.017 A 
ATOM     14  C13 UNL     1      17.582   9.134  37.021  0.00  0.00    +0.040 A 
ATOM     15  S1  UNL     1      16.015   9.718  36.923  0.00  0.00    -0.067 S 
ENDBRANCH   5   7
BRANCH   1  18
ATOM     16  O1  UNL     1      14.391  13.811  31.593  0.00  0.00    -0.266 OA
ATOM     17  C1  UNL     1      13.227  13.461  31.927  0.00  0.00    +0.284 C 
ATOM     18  N1  UNL     1      12.974  12.960  33.251  0.00  0.00    -0.279 N 
ATOM     19  H1  UNL     1      12.148  12.336  33.393  0.00  0.00    +0.155 HD
BRANCH  17  20
ATOM     20  C15 UNL     1      12.149  13.538  30.928  0.00  0.00    +0.191 A 
ATOM     21  C16 UNL     1      12.301  13.823  29.571  0.00  0.00    +0.063 A 
ATOM     22  C17 UNL     1      11.021  13.771  29.069  0.00  0.00    +0.021 A 
ATOM     23  C18 UNL     1      10.539  13.967  27.777  0.00  0.00    +0.011 A 
ATOM     24  C19 UNL     1       9.152  13.842  27.570  0.00  0.00    +0.001 A 
ATOM     25  C20 UNL     1       8.293  13.528  28.648  0.00  0.00    +0.004 A 
ATOM     26  C21 UNL     1       8.814  13.335  29.941  0.00  0.00    +0.047 A 
ATOM     27  C22 UNL     1      10.190  13.465  30.114  0.00  0.00    +0.136 A 
ATOM     28  O3  UNL     1      10.877  13.327  31.221  0.00  0.00    -0.450 OA
ENDBRANCH  17  20
ENDBRANCH   1  18
BRANCH   4  29
ATOM     29  O2  UNL     1      16.521  13.847  37.555  0.00  0.00    -0.506 OA
ATOM     30  H4  UNL     1      16.248  14.410  38.352  0.00  0.00    +0.292 HD
ENDBRANCH   4  29
TORSDOF 4
ENDMDL
MODEL 8
REMARK VINA RESULT:    -6.871     10.406     11.609
REMARK INTER + INTRA:          -8.983
REMARK INTER:                  -8.255
REMARK INTRA:                  -0.728
REMARK UNBOUND:                -0.707
REMARK  Name = /home/qwerty/github/datacon2025hack/step_04_hit_selection/docking/ligands/lig_267.pdb
REMARK  4 active torsions:
REMARK  status: ('A' for Active; 'I' for Inactive)
REMARK    1  A    between atoms: C1_2  and  C15_20
REMARK    2  A    between atoms: N1_3  and  C2_4
REMARK    3  A    between atoms: C5_7  and  O2_8
REMARK    4  A    between atoms: C6_9  and  C7_10
REMARK                            x       y       z     vdW  Elec       q    Type
REMARK                         _______ _______ _______ _____ _____    ______ ____
ROOT
ATOM      1  C2  UNL     1      21.360   2.978  27.868  0.00  0.00    +0.035 A 
ATOM      2  C3  UNL     1      22.160   3.379  26.794  0.00  0.00    +0.027 A 
ATOM      3  C4  UNL     1      21.911   2.898  25.509  0.00  0.00    +0.048 A 
ATOM      4  C5  UNL     1      20.847   2.016  25.271  0.00  0.00    +0.127 A 
ATOM      5  C6  UNL     1      20.018   1.606  26.342  0.00  0.00    +0.050 A 
ATOM      6  C14 UNL     1      20.280   2.110  27.632  0.00  0.00    +0.037 A 
ENDROOT
BRANCH   5   7
ATOM      7  C7  UNL     1      18.872   0.677  26.156  0.00  0.00    +0.113 A 
ATOM      8  N2  UNL     1      18.892  -0.340  25.256  0.00  0.00    -0.239 NA
ATOM      9  C8  UNL     1      17.721  -1.028  25.248  0.00  0.00    +0.079 A 
ATOM     10  C9  UNL     1      17.456  -2.126  24.428  0.00  0.00    +0.029 A 
ATOM     11  C10 UNL     1      16.198  -2.747  24.518  0.00  0.00    +0.002 A 
ATOM     12  C11 UNL     1      15.227  -2.266  25.421  0.00  0.00    +0.001 A 
ATOM     13  C12 UNL     1      15.505  -1.161  26.239  0.00  0.00    +0.017 A 
ATOM     14  C13 UNL     1      16.760  -0.565  26.130  0.00  0.00    +0.040 A 
ATOM     15  S1  UNL     1      17.375   0.753  26.960  0.00  0.00    -0.067 S 
ENDBRANCH   5   7
BRANCH   1  18
ATOM     16  O1  UNL     1      20.430   5.505  28.928  0.00  0.00    -0.266 OA
ATOM     17  C1  UNL     1      21.274   4.841  29.587  0.00  0.00    +0.284 C 
ATOM     18  N1  UNL     1      21.624   3.507  29.179  0.00  0.00    -0.279 N 
ATOM     19  H1  UNL     1      21.996   2.852  29.902  0.00  0.00    +0.155 HD
BRANCH  17  20
ATOM     20  C15 UNL     1      21.858   5.439  30.799  0.00  0.00    +0.191 A 
ATOM     21  C16 UNL     1      22.522   6.663  30.876  0.00  0.00    +0.063 A 
ATOM     22  C17 UNL     1      22.867   6.778  32.203  0.00  0.00    +0.021 A 
ATOM     23  C18 UNL     1      23.544   7.786  32.885  0.00  0.00    +0.011 A 
ATOM     24  C19 UNL     1      23.749   7.616  34.267  0.00  0.00    +0.001 A 
ATOM     25  C20 UNL     1      23.277   6.456  34.924  0.00  0.00    +0.004 A 
ATOM     26  C21 UNL     1      22.595   5.458  34.203  0.00  0.00    +0.047 A 
ATOM     27  C22 UNL     1      22.408   5.655  32.838  0.00  0.00    +0.136 A 
ATOM     28  O3  UNL     1      21.805   4.861  31.987  0.00  0.00    -0.450 OA
ENDBRANCH  17  20
ENDBRANCH   1  18
BRANCH   4  29
ATOM     29  O2  UNL     1      20.612   1.572  23.971  0.00  0.00    -0.506 OA
ATOM     30  H4  UNL     1      21.059   0.741  23.602  0.00  0.00    +0.292 HD
ENDBRANCH   4  29
TORSDOF 4
ENDMDL
MODEL 9
REMARK VINA RESULT:    -6.854     11.856     13.370
REMARK INTER + INTRA:          -8.963
REMARK INTER:                  -8.233
REMARK INTRA:                  -0.730
REMARK UNBOUND:                -0.707
REMARK  Name = /home/qwerty/github/datacon2025hack/step_04_hit_selection/docking/ligands/lig_267.pdb
REMARK  4 active torsions:
REMARK  status: ('A' for Active; 'I' for Inactive)
REMARK    1  A    between atoms: C1_2  and  C15_20
REMARK    2  A    between atoms: N1_3  and  C2_4
REMARK    3  A    between atoms: C5_7  and  O2_8
REMARK    4  A    between atoms: C6_9  and  C7_10
REMARK                            x       y       z     vdW  Elec       q    Type
REMARK                         _______ _______ _______ _____ _____    ______ ____
ROOT
ATOM      1  C2  UNL     1      20.732   2.333  29.612  0.00  0.00    +0.035 A 
ATOM      2  C3  UNL     1      20.394   1.062  30.090  0.00  0.00    +0.027 A 
ATOM      3  C4  UNL     1      20.469   0.778  31.453  0.00  0.00    +0.048 A 
ATOM      4  C5  UNL     1      20.869   1.763  32.367  0.00  0.00    +0.127 A 
ATOM      5  C6  UNL     1      21.205   3.058  31.906  0.00  0.00    +0.050 A 
ATOM      6  C14 UNL     1      21.115   3.329  30.526  0.00  0.00    +0.037 A 
ENDROOT
BRANCH   5   7
ATOM      7  C7  UNL     1      21.633   4.146  32.824  0.00  0.00    +0.113 A 
ATOM      8  N2  UNL     1      20.828   4.643  33.799  0.00  0.00    -0.239 NA
ATOM      9  C8  UNL     1      21.430   5.649  34.484  0.00  0.00    +0.079 A 
ATOM     10  C9  UNL     1      20.843   6.344  35.543  0.00  0.00    +0.029 A 
ATOM     11  C10 UNL     1      21.575   7.369  36.166  0.00  0.00    +0.002 A 
ATOM     12  C11 UNL     1      22.877   7.686  35.725  0.00  0.00    +0.001 A 
ATOM     13  C12 UNL     1      23.455   6.981  34.658  0.00  0.00    +0.017 A 
ATOM     14  C13 UNL     1      22.707   5.969  34.060  0.00  0.00    +0.040 A 
ATOM     15  S1  UNL     1      23.121   4.969  32.782  0.00  0.00    -0.067 S 
ENDBRANCH   5   7
BRANCH   1  18
ATOM     16  O1  UNL     1      22.884   2.292  27.678  0.00  0.00    -0.266 OA
ATOM     17  C1  UNL     1      21.757   2.734  27.327  0.00  0.00    +0.284 C 
ATOM     18  N1  UNL     1      20.625   2.607  28.205  0.00  0.00    -0.279 N 
ATOM     19  H1  UNL     1      19.670   2.612  27.782  0.00  0.00    +0.155 HD
BRANCH  17  20
ATOM     20  C15 UNL     1      21.616   3.342  25.994  0.00  0.00    +0.191 A 
ATOM     21  C16 UNL     1      20.843   2.851  24.941  0.00  0.00    +0.063 A 
ATOM     22  C17 UNL     1      21.033   3.762  23.928  0.00  0.00    +0.021 A 
ATOM     23  C18 UNL     1      20.519   3.808  22.634  0.00  0.00    +0.011 A 
ATOM     24  C19 UNL     1      20.903   4.887  21.817  0.00  0.00    +0.001 A 
ATOM     25  C20 UNL     1      21.780   5.881  22.307  0.00  0.00    +0.004 A 
ATOM     26  C21 UNL     1      22.280   5.804  23.621  0.00  0.00    +0.047 A 
ATOM     27  C22 UNL     1      21.882   4.724  24.405  0.00  0.00    +0.136 A 
ATOM     28  O3  UNL     1      22.224   4.462  25.643  0.00  0.00    -0.450 OA
ENDBRANCH  17  20
ENDBRANCH   1  18
BRANCH   4  29
ATOM     29  O2  UNL     1      20.911   1.451  33.725  0.00  0.00    -0.506 OA
ATOM     30  H4  UNL     1      21.766   1.147  34.177  0.00  0.00    +0.292 HD
ENDBRANCH   4  29
TORSDOF 4
ENDMDL
