REMARK  Name = /home/qwerty/github/datacon2025hack/step_04_hit_selection/docking/ligands/lig_56.pdb
REMARK  7 active torsions:
REMARK  status: ('A' for Active; 'I' for Inactive)
REMARK    1  A    between atoms: C1_1  and  C2_2
REMARK    2  A    between atoms: C2_2  and  C3_3
REMARK    3  A    between atoms: C2_2  and  C4_4
REMARK    4  A    between atoms: C6_6  and  C7_7
REMARK    5  A    between atoms: N1_9  and  C8_10
REMARK    6  A    between atoms: C13_15  and  N2_16
REMARK    7  A    between atoms: C16_20  and  C17_22
REMARK                            x       y       z     vdW  Elec       q    Type
REMARK                         _______ _______ _______ _____ _____    ______ ____
ROOT
ATOM      1  C8  UNL     1      -1.788   1.425   2.130  0.00  0.00    +0.055 A 
ATOM      2  C9  UNL     1      -2.390   2.057   3.235  0.00  0.00    +0.025 A 
ATOM      3  C10 UNL     1      -1.617   2.474   4.321  0.00  0.00    +0.002 A 
ATOM      4  C11 UNL     1      -0.240   2.251   4.325  0.00  0.00    +0.002 A 
ATOM      5  C12 UNL     1       0.368   1.611   3.243  0.00  0.00    +0.025 A 
ATOM      6  C13 UNL     1      -0.395   1.197   2.141  0.00  0.00    +0.051 A 
ENDROOT
BRANCH   6   7
ATOM      7  N2  UNL     1       0.263   0.586   1.019  0.00  0.00    -0.325 N 
ATOM      8  C14 UNL     1       0.369   1.329  -0.246  0.00  0.00    +0.124 C 
ATOM      9  C15 UNL     1       1.325   0.630  -1.215  0.00  0.00    +0.127 C 
ATOM     10  N3  UNL     1       2.548   0.245  -0.498  0.00  0.00    -0.295 N 
ATOM     11  C16 UNL     1       3.805   0.869  -0.831  0.00  0.00    +0.247 C 
ATOM     12  O2  UNL     1       3.814   2.039  -1.305  0.00  0.00    -0.270 OA
ATOM     13  C24 UNL     1       2.434  -0.538   0.747  0.00  0.00    +0.127 C 
ATOM     14  C25 UNL     1       0.972  -0.689   1.191  0.00  0.00    +0.124 C 
BRANCH  11  15
ATOM     15  C17 UNL     1       5.093   0.183  -0.597  0.00  0.00    +0.041 A 
ATOM     16  C18 UNL     1       6.220   0.926  -0.161  0.00  0.00    +0.017 A 
ATOM     17  C19 UNL     1       7.453   0.288   0.069  0.00  0.00    +0.050 A 
ATOM     18  C20 UNL     1       7.528  -1.082  -0.163  0.00  0.00    +0.166 A 
ATOM     19  C21 UNL     1       6.462  -1.797  -0.606  0.00  0.00    +0.167 A 
ATOM     20  C22 UNL     1       5.223  -1.206  -0.838  0.00  0.00    +0.062 A 
ATOM     21  O3  UNL     1       6.829  -3.120  -0.766  0.00  0.00    -0.453 OA
ATOM     22  C23 UNL     1       8.210  -3.244  -0.391  0.00  0.00    +0.466 C 
ATOM     23  O4  UNL     1       8.616  -1.921  -0.010  0.00  0.00    -0.453 OA
ENDBRANCH  11  15
ENDBRANCH   6   7
BRANCH   1  26
ATOM     24  C7  UNL     1      -3.696   1.689   0.494  0.00  0.00    +0.286 C 
ATOM     25  O1  UNL     1      -3.841   2.908   0.775  0.00  0.00    -0.266 OA
ATOM     26  N1  UNL     1      -2.593   0.946   1.039  0.00  0.00    -0.277 N 
ATOM     27  H9  UNL     1      -2.287   0.080   0.545  0.00  0.00    +0.155 HD
BRANCH  24  30
ATOM     28  C4  UNL     1      -5.787  -0.330  -1.647  0.00  0.00    +0.087 A 
ATOM     29  C5  UNL     1      -4.723  -0.280  -0.768  0.00  0.00    +0.081 A 
ATOM     30  C6  UNL     1      -4.648   1.057  -0.432  0.00  0.00    +0.222 A 
ATOM     31  O5  UNL     1      -5.597   1.709  -1.066  0.00  0.00    -0.350 OA
ATOM     32  N4  UNL     1      -6.306   0.905  -1.806  0.00  0.00    -0.082 NA
BRANCH  28  34
ATOM     33  C1  UNL     1      -6.364  -1.421  -3.815  0.00  0.00    +0.014 C 
ATOM     34  C2  UNL     1      -6.342  -1.571  -2.291  0.00  0.00    +0.035 C 
ATOM     35  C3  UNL     1      -7.744  -1.866  -1.751  0.00  0.00    +0.014 C 
ENDBRANCH  28  34
ENDBRANCH  24  30
ENDBRANCH   1  26
TORSDOF 5
