MODEL 1
REMARK VINA RESULT:    -6.507      0.000      0.000
REMARK INTER + INTRA:          -8.141
REMARK INTER:                  -7.648
REMARK INTRA:                  -0.493
REMARK UNBOUND:                -0.493
REMARK  Name = /home/qwerty/github/datacon2025hack/step_04_hit_selection/docking/ligands/lig_320.pdb
REMARK  5 active torsions:
REMARK  status: ('A' for Active; 'I' for Inactive)
REMARK    1  A    between atoms: C1_1  and  C2_2
REMARK    2  A    between atoms: C5_5  and  N1_6
REMARK    3  A    between atoms: C6_7  and  C7_9
REMARK    4  A    between atoms: C7_9  and  C8_10
REMARK    5  A    between atoms: C16_19  and  C17_20
REMARK                            x       y       z     vdW  Elec       q    Type
REMARK                         _______ _______ _______ _____ _____    ______ ____
ROOT
ATOM      1  N1  UNL     1      22.721   2.683  27.513  0.00  0.00    -0.283 N 
ATOM      2  C6  UNL     1      22.043   1.459  27.840  0.00  0.00    +0.228 C 
ATOM      3  O1  UNL     1      21.124   1.041  27.084  0.00  0.00    -0.275 OA
ATOM      4  H6  UNL     1      23.734   2.779  27.740  0.00  0.00    +0.155 HD
ENDROOT
BRANCH   1   9
ATOM      5  C1  UNL     1      20.429   6.576  24.009  0.00  0.00    +0.065 C 
ATOM      6  C2  UNL     1      21.030   5.550  24.916  0.00  0.00    +0.039 A 
ATOM      7  C3  UNL     1      21.962   4.631  24.426  0.00  0.00    +0.025 A 
ATOM      8  C4  UNL     1      22.519   3.692  25.295  0.00  0.00    +0.027 A 
ATOM      9  C5  UNL     1      22.140   3.665  26.642  0.00  0.00    +0.055 A 
ATOM     10  C16 UNL     1      21.233   4.642  27.113  0.00  0.00    +0.060 A 
ATOM     11  C17 UNL     1      20.839   4.733  28.558  0.00  0.00    +0.067 C 
ATOM     12  N2  UNL     1      20.703   5.539  26.236  0.00  0.00    -0.255 NA
ENDBRANCH   1   9
BRANCH   2  13
ATOM     13  C7  UNL     1      22.410   0.640  29.058  0.00  0.00    +0.072 C 
ATOM     14  C14 UNL     1      23.834   0.097  29.168  0.00  0.00    +0.022 C 
ATOM     15  C15 UNL     1      22.686  -0.842  28.824  0.00  0.00    +0.022 C 
BRANCH  13  16
ATOM     16  C8  UNL     1      21.760   0.996  30.371  0.00  0.00    -0.032 A 
ATOM     17  C9  UNL     1      20.693   0.231  30.869  0.00  0.00    +0.006 A 
ATOM     18  C10 UNL     1      20.064   0.591  32.064  0.00  0.00    +0.020 A 
ATOM     19  C11 UNL     1      20.487   1.727  32.763  0.00  0.00    +0.041 A 
ATOM     20 CL1  UNL     1      19.696   2.180  34.262  0.00  0.00    -0.084 Cl
ATOM     21  C12 UNL     1      21.536   2.506  32.262  0.00  0.00    +0.020 A 
ATOM     22  C13 UNL     1      22.165   2.147  31.066  0.00  0.00    +0.006 A 
ENDBRANCH  13  16
ENDBRANCH   2  13
TORSDOF 3
ENDMDL
MODEL 2
REMARK VINA RESULT:    -6.418      3.556      6.598
REMARK INTER + INTRA:          -8.037
REMARK INTER:                  -7.522
REMARK INTRA:                  -0.515
REMARK UNBOUND:                -0.493
REMARK  Name = /home/qwerty/github/datacon2025hack/step_04_hit_selection/docking/ligands/lig_320.pdb
REMARK  5 active torsions:
REMARK  status: ('A' for Active; 'I' for Inactive)
REMARK    1  A    between atoms: C1_1  and  C2_2
REMARK    2  A    between atoms: C5_5  and  N1_6
REMARK    3  A    between atoms: C6_7  and  C7_9
REMARK    4  A    between atoms: C7_9  and  C8_10
REMARK    5  A    between atoms: C16_19  and  C17_20
REMARK                            x       y       z     vdW  Elec       q    Type
REMARK                         _______ _______ _______ _____ _____    ______ ____
ROOT
ATOM      1  N1  UNL     1      20.297   0.268  30.484  0.00  0.00    -0.283 N 
ATOM      2  C6  UNL     1      21.520   0.993  30.276  0.00  0.00    +0.228 C 
ATOM      3  O1  UNL     1      21.886   1.846  31.130  0.00  0.00    -0.275 OA
ATOM      4  H6  UNL     1      20.232  -0.722  30.162  0.00  0.00    +0.155 HD
ENDROOT
BRANCH   1   9
ATOM      5  C1  UNL     1      16.203   2.167  33.994  0.00  0.00    +0.065 C 
ATOM      6  C2  UNL     1      17.282   1.668  33.085  0.00  0.00    +0.039 A 
ATOM      7  C3  UNL     1      18.160   0.667  33.512  0.00  0.00    +0.025 A 
ATOM      8  C4  UNL     1      19.148   0.208  32.641  0.00  0.00    +0.027 A 
ATOM      9  C5  UNL     1      19.265   0.751  31.357  0.00  0.00    +0.055 A 
ATOM     10  C16 UNL     1      18.328   1.725  30.943  0.00  0.00    +0.060 A 
ATOM     11  C17 UNL     1      18.333   2.298  29.556  0.00  0.00    +0.067 C 
ATOM     12  N2  UNL     1      17.380   2.157  31.820  0.00  0.00    -0.255 NA
ENDBRANCH   1   9
BRANCH   2  13
ATOM     13  C7  UNL     1      22.400   0.751  29.069  0.00  0.00    +0.072 C 
ATOM     14  C14 UNL     1      23.110  -0.596  28.943  0.00  0.00    +0.022 C 
ATOM     15  C15 UNL     1      23.900   0.647  29.330  0.00  0.00    +0.022 C 
BRANCH  13  16
ATOM     16  C8  UNL     1      21.995   1.383  27.761  0.00  0.00    -0.032 A 
ATOM     17  C9  UNL     1      22.652   2.532  27.291  0.00  0.00    +0.006 A 
ATOM     18  C10 UNL     1      22.243   3.140  26.101  0.00  0.00    +0.020 A 
ATOM     19  C11 UNL     1      21.165   2.614  25.380  0.00  0.00    +0.041 A 
ATOM     20 CL1  UNL     1      20.652   3.380  23.887  0.00  0.00    -0.084 Cl
ATOM     21  C12 UNL     1      20.493   1.482  25.853  0.00  0.00    +0.020 A 
ATOM     22  C13 UNL     1      20.900   0.873  27.044  0.00  0.00    +0.006 A 
ENDBRANCH  13  16
ENDBRANCH   2  13
TORSDOF 3
ENDMDL
MODEL 3
REMARK VINA RESULT:    -6.173     13.036     15.615
REMARK INTER + INTRA:          -7.749
REMARK INTER:                  -7.263
REMARK INTRA:                  -0.485
REMARK UNBOUND:                -0.493
REMARK  Name = /home/qwerty/github/datacon2025hack/step_04_hit_selection/docking/ligands/lig_320.pdb
REMARK  5 active torsions:
REMARK  status: ('A' for Active; 'I' for Inactive)
REMARK    1  A    between atoms: C1_1  and  C2_2
REMARK    2  A    between atoms: C5_5  and  N1_6
REMARK    3  A    between atoms: C6_7  and  C7_9
REMARK    4  A    between atoms: C7_9  and  C8_10
REMARK    5  A    between atoms: C16_19  and  C17_20
REMARK                            x       y       z     vdW  Elec       q    Type
REMARK                         _______ _______ _______ _____ _____    ______ ____
ROOT
ATOM      1  N1  UNL     1      10.722  13.712  27.441  0.00  0.00    -0.283 N 
ATOM      2  C6  UNL     1       9.932  13.556  28.631  0.00  0.00    +0.228 C 
ATOM      3  O1  UNL     1      10.457  13.788  29.755  0.00  0.00    -0.275 OA
ATOM      4  H6  UNL     1      10.263  14.052  26.568  0.00  0.00    +0.155 HD
ENDROOT
BRANCH   1   9
ATOM      5  C1  UNL     1      16.437  13.665  27.563  0.00  0.00    +0.065 C 
ATOM      6  C2  UNL     1      14.942  13.688  27.537  0.00  0.00    +0.039 A 
ATOM      7  C3  UNL     1      14.253  14.904  27.489  0.00  0.00    +0.025 A 
ATOM      8  C4  UNL     1      12.859  14.899  27.451  0.00  0.00    +0.027 A 
ATOM      9  C5  UNL     1      12.156  13.689  27.471  0.00  0.00    +0.055 A 
ATOM     10  C16 UNL     1      12.887  12.479  27.468  0.00  0.00    +0.060 A 
ATOM     11  C17 UNL     1      12.212  11.140  27.407  0.00  0.00    +0.067 C 
ATOM     12  N2  UNL     1      14.247  12.519  27.513  0.00  0.00    -0.255 NA
ENDBRANCH   1   9
BRANCH   2  13
ATOM     13  C7  UNL     1       8.478  13.142  28.581  0.00  0.00    +0.072 C 
ATOM     14  C14 UNL     1       7.452  14.144  28.054  0.00  0.00    +0.022 C 
ATOM     15  C15 UNL     1       7.533  13.851  29.546  0.00  0.00    +0.022 C 
BRANCH  13  16
ATOM     16  C8  UNL     1       8.166  11.696  28.287  0.00  0.00    -0.032 A 
ATOM     17  C9  UNL     1       8.337  11.179  26.992  0.00  0.00    +0.006 A 
ATOM     18  C10 UNL     1       8.005   9.850  26.714  0.00  0.00    +0.020 A 
ATOM     19  C11 UNL     1       7.484   9.033  27.722  0.00  0.00    +0.041 A 
ATOM     20 CL1  UNL     1       7.065   7.366  27.371  0.00  0.00    -0.084 Cl
ATOM     21  C12 UNL     1       7.291   9.547  29.009  0.00  0.00    +0.020 A 
ATOM     22  C13 UNL     1       7.622  10.876  29.289  0.00  0.00    +0.006 A 
ENDBRANCH  13  16
ENDBRANCH   2  13
TORSDOF 3
ENDMDL
MODEL 4
REMARK VINA RESULT:    -5.996     14.955     16.472
REMARK INTER + INTRA:          -7.541
REMARK INTER:                  -7.440
REMARK INTRA:                  -0.100
REMARK UNBOUND:                -0.493
REMARK  Name = /home/qwerty/github/datacon2025hack/step_04_hit_selection/docking/ligands/lig_320.pdb
REMARK  5 active torsions:
REMARK  status: ('A' for Active; 'I' for Inactive)
REMARK    1  A    between atoms: C1_1  and  C2_2
REMARK    2  A    between atoms: C5_5  and  N1_6
REMARK    3  A    between atoms: C6_7  and  C7_9
REMARK    4  A    between atoms: C7_9  and  C8_10
REMARK    5  A    between atoms: C16_19  and  C17_20
REMARK                            x       y       z     vdW  Elec       q    Type
REMARK                         _______ _______ _______ _____ _____    ______ ____
ROOT
ATOM      1  N1  UNL     1       7.502  10.830  28.591  0.00  0.00    -0.283 N 
ATOM      2  C6  UNL     1       8.755  11.515  28.745  0.00  0.00    +0.228 C 
ATOM      3  O1  UNL     1       9.821  10.845  28.815  0.00  0.00    -0.275 OA
ATOM      4  H6  UNL     1       6.746  11.275  28.026  0.00  0.00    +0.155 HD
ENDROOT
BRANCH   1   9
ATOM      5  C1  UNL     1       6.858   5.334  30.029  0.00  0.00    +0.065 C 
ATOM      6  C2  UNL     1       7.020   6.776  29.662  0.00  0.00    +0.039 A 
ATOM      7  C3  UNL     1       7.037   7.761  30.655  0.00  0.00    +0.025 A 
ATOM      8  C4  UNL     1       7.203   9.096  30.289  0.00  0.00    +0.027 A 
ATOM      9  C5  UNL     1       7.342   9.448  28.941  0.00  0.00    +0.055 A 
ATOM     10  C16 UNL     1       7.371   8.420  27.971  0.00  0.00    +0.060 A 
ATOM     11  C17 UNL     1       7.598   8.705  26.515  0.00  0.00    +0.067 C 
ATOM     12  N2  UNL     1       7.198   7.127  28.361  0.00  0.00    -0.255 NA
ENDBRANCH   1   9
BRANCH   2  13
ATOM     13  C7  UNL     1       8.842  13.025  28.808  0.00  0.00    +0.072 C 
ATOM     14  C14 UNL     1       7.652  13.800  29.371  0.00  0.00    +0.022 C 
ATOM     15  C15 UNL     1       7.920  13.799  27.872  0.00  0.00    +0.022 C 
BRANCH  13  16
ATOM     16  C8  UNL     1      10.191  13.644  29.076  0.00  0.00    -0.032 A 
ATOM     17  C9  UNL     1      10.945  14.189  28.024  0.00  0.00    +0.006 A 
ATOM     18  C10 UNL     1      12.214  14.722  28.270  0.00  0.00    +0.020 A 
ATOM     19  C11 UNL     1      12.745  14.700  29.564  0.00  0.00    +0.041 A 
ATOM     20 CL1  UNL     1      14.338  15.367  29.871  0.00  0.00    -0.084 Cl
ATOM     21  C12 UNL     1      12.006  14.139  30.612  0.00  0.00    +0.020 A 
ATOM     22  C13 UNL     1      10.737  13.605  30.368  0.00  0.00    +0.006 A 
ENDBRANCH  13  16
ENDBRANCH   2  13
TORSDOF 3
ENDMDL
MODEL 5
REMARK VINA RESULT:    -5.940     13.536     16.097
REMARK INTER + INTRA:          -7.475
REMARK INTER:                  -7.011
REMARK INTRA:                  -0.464
REMARK UNBOUND:                -0.493
REMARK  Name = /home/qwerty/github/datacon2025hack/step_04_hit_selection/docking/ligands/lig_320.pdb
REMARK  5 active torsions:
REMARK  status: ('A' for Active; 'I' for Inactive)
REMARK    1  A    between atoms: C1_1  and  C2_2
REMARK    2  A    between atoms: C5_5  and  N1_6
REMARK    3  A    between atoms: C6_7  and  C7_9
REMARK    4  A    between atoms: C7_9  and  C8_10
REMARK    5  A    between atoms: C16_19  and  C17_20
REMARK                            x       y       z     vdW  Elec       q    Type
REMARK                         _______ _______ _______ _____ _____    ______ ____
ROOT
ATOM      1  N1  UNL     1       8.325  10.820  29.953  0.00  0.00    -0.283 N 
ATOM      2  C6  UNL     1       8.242  11.581  28.737  0.00  0.00    +0.228 C 
ATOM      3  O1  UNL     1       7.925  10.998  27.664  0.00  0.00    -0.275 OA
ATOM      4  H6  UNL     1       8.053  11.271  30.854  0.00  0.00    +0.155 HD
ENDROOT
BRANCH   1   9
ATOM      5  C1  UNL     1       8.964   5.139  29.937  0.00  0.00    +0.065 C 
ATOM      6  C2  UNL     1       8.785   6.624  29.936  0.00  0.00    +0.039 A 
ATOM      7  C3  UNL     1       7.506   7.184  30.003  0.00  0.00    +0.025 A 
ATOM      8  C4  UNL     1       7.366   8.572  30.014  0.00  0.00    +0.027 A 
ATOM      9  C5  UNL     1       8.496   9.395  29.950  0.00  0.00    +0.055 A 
ATOM     10  C16 UNL     1       9.776   8.794  29.934  0.00  0.00    +0.060 A 
ATOM     11  C17 UNL     1      11.038   9.606  29.948  0.00  0.00    +0.067 C 
ATOM     12  N2  UNL     1       9.876   7.436  29.916  0.00  0.00    -0.255 NA
ENDBRANCH   1   9
BRANCH   2  13
ATOM     13  C7  UNL     1       8.502  13.071  28.704  0.00  0.00    +0.072 C 
ATOM     14  C14 UNL     1       7.385  14.016  29.144  0.00  0.00    +0.022 C 
ATOM     15  C15 UNL     1       7.725  13.875  27.666  0.00  0.00    +0.022 C 
BRANCH  13  16
ATOM     16  C8  UNL     1       9.899  13.550  29.007  0.00  0.00    -0.032 A 
ATOM     17  C9  UNL     1      10.404  13.491  30.317  0.00  0.00    +0.006 A 
ATOM     18  C10 UNL     1      11.683  13.978  30.601  0.00  0.00    +0.020 A 
ATOM     19  C11 UNL     1      12.461  14.541  29.584  0.00  0.00    +0.041 A 
ATOM     20 CL1  UNL     1      14.065  15.153  29.943  0.00  0.00    -0.084 Cl
ATOM     21  C12 UNL     1      11.956  14.622  28.282  0.00  0.00    +0.020 A 
ATOM     22  C13 UNL     1      10.676  14.136  27.995  0.00  0.00    +0.006 A 
ENDBRANCH  13  16
ENDBRANCH   2  13
TORSDOF 3
ENDMDL
MODEL 6
REMARK VINA RESULT:    -5.816      4.747      8.879
REMARK INTER + INTRA:          -7.330
REMARK INTER:                  -7.184
REMARK INTRA:                  -0.146
REMARK UNBOUND:                -0.493
REMARK  Name = /home/qwerty/github/datacon2025hack/step_04_hit_selection/docking/ligands/lig_320.pdb
REMARK  5 active torsions:
REMARK  status: ('A' for Active; 'I' for Inactive)
REMARK    1  A    between atoms: C1_1  and  C2_2
REMARK    2  A    between atoms: C5_5  and  N1_6
REMARK    3  A    between atoms: C6_7  and  C7_9
REMARK    4  A    between atoms: C7_9  and  C8_10
REMARK    5  A    between atoms: C16_19  and  C17_20
REMARK                            x       y       z     vdW  Elec       q    Type
REMARK                         _______ _______ _______ _____ _____    ______ ____
ROOT
ATOM      1  N1  UNL     1      21.684   3.426  24.129  0.00  0.00    -0.283 N 
ATOM      2  C6  UNL     1      20.995   4.673  23.940  0.00  0.00    +0.228 C 
ATOM      3  O1  UNL     1      20.676   5.360  24.948  0.00  0.00    -0.275 OA
ATOM      4  H6  UNL     1      22.392   3.125  23.424  0.00  0.00    +0.155 HD
ENDROOT
BRANCH   1   9
ATOM      5  C1  UNL     1      21.566   0.625  29.111  0.00  0.00    +0.065 C 
ATOM      6  C2  UNL     1      21.601   1.368  27.813  0.00  0.00    +0.039 A 
ATOM      7  C3  UNL     1      22.556   2.365  27.594  0.00  0.00    +0.025 A 
ATOM      8  C4  UNL     1      22.578   3.034  26.370  0.00  0.00    +0.027 A 
ATOM      9  C5  UNL     1      21.647   2.716  25.375  0.00  0.00    +0.055 A 
ATOM     10  C16 UNL     1      20.729   1.667  25.613  0.00  0.00    +0.060 A 
ATOM     11  C17 UNL     1      19.753   1.210  24.569  0.00  0.00    +0.067 C 
ATOM     12  N2  UNL     1      20.729   1.040  26.822  0.00  0.00    -0.255 NA
ENDBRANCH   1   9
BRANCH   2  13
ATOM     13  C7  UNL     1      20.655   5.201  22.564  0.00  0.00    +0.072 C 
ATOM     14  C14 UNL     1      19.287   5.848  22.350  0.00  0.00    +0.022 C 
ATOM     15  C15 UNL     1      19.566   4.456  21.798  0.00  0.00    +0.022 C 
BRANCH  13  16
ATOM     16  C8  UNL     1      21.772   5.783  21.735  0.00  0.00    -0.032 A 
ATOM     17  C9  UNL     1      22.723   6.635  22.320  0.00  0.00    +0.006 A 
ATOM     18  C10 UNL     1      23.731   7.208  21.538  0.00  0.00    +0.020 A 
ATOM     19  C11 UNL     1      23.787   6.946  20.165  0.00  0.00    +0.041 A 
ATOM     20 CL1  UNL     1      25.051   7.667  19.186  0.00  0.00    -0.084 Cl
ATOM     21  C12 UNL     1      22.829   6.115  19.573  0.00  0.00    +0.020 A 
ATOM     22  C13 UNL     1      21.820   5.542  20.353  0.00  0.00    +0.006 A 
ENDBRANCH  13  16
ENDBRANCH   2  13
TORSDOF 3
ENDMDL
MODEL 7
REMARK VINA RESULT:    -5.724     14.729     16.110
REMARK INTER + INTRA:          -7.221
REMARK INTER:                  -7.076
REMARK INTRA:                  -0.145
REMARK UNBOUND:                -0.493
REMARK  Name = /home/qwerty/github/datacon2025hack/step_04_hit_selection/docking/ligands/lig_320.pdb
REMARK  5 active torsions:
REMARK  status: ('A' for Active; 'I' for Inactive)
REMARK    1  A    between atoms: C1_1  and  C2_2
REMARK    2  A    between atoms: C5_5  and  N1_6
REMARK    3  A    between atoms: C6_7  and  C7_9
REMARK    4  A    between atoms: C7_9  and  C8_10
REMARK    5  A    between atoms: C16_19  and  C17_20
REMARK                            x       y       z     vdW  Elec       q    Type
REMARK                         _______ _______ _______ _____ _____    ______ ____
ROOT
ATOM      1  N1  UNL     1       7.968  10.863  27.366  0.00  0.00    -0.283 N 
ATOM      2  C6  UNL     1       9.088  11.518  27.983  0.00  0.00    +0.228 C 
ATOM      3  O1  UNL     1      10.164  10.880  28.145  0.00  0.00    -0.275 OA
ATOM      4  H6  UNL     1       7.325  11.417  26.759  0.00  0.00    +0.155 HD
ENDROOT
BRANCH   1   9
ATOM      5  C1  UNL     1       7.528   5.167  27.146  0.00  0.00    +0.065 C 
ATOM      6  C2  UNL     1       7.653   6.657  27.196  0.00  0.00    +0.039 A 
ATOM      7  C3  UNL     1       8.127   7.365  26.087  0.00  0.00    +0.025 A 
ATOM      8  C4  UNL     1       8.221   8.755  26.153  0.00  0.00    +0.027 A 
ATOM      9  C5  UNL     1       7.853   9.433  27.321  0.00  0.00    +0.055 A 
ATOM     10  C16 UNL     1       7.329   8.688  28.403  0.00  0.00    +0.060 A 
ATOM     11  C17 UNL     1       6.836   9.346  29.658  0.00  0.00    +0.067 C 
ATOM     12  N2  UNL     1       7.258   7.332  28.309  0.00  0.00    -0.255 NA
ENDBRANCH   1   9
BRANCH   2  13
ATOM     13  C7  UNL     1       9.026  12.963  28.429  0.00  0.00    +0.072 C 
ATOM     14  C14 UNL     1       7.793  13.435  29.198  0.00  0.00    +0.022 C 
ATOM     15  C15 UNL     1       7.987  13.843  27.743  0.00  0.00    +0.022 C 
BRANCH  13  16
ATOM     16  C8  UNL     1      10.318  13.637  28.818  0.00  0.00    -0.032 A 
ATOM     17  C9  UNL     1      11.105  14.281  27.849  0.00  0.00    +0.006 A 
ATOM     18  C10 UNL     1      12.323  14.866  28.206  0.00  0.00    +0.020 A 
ATOM     19  C11 UNL     1      12.771  14.799  29.530  0.00  0.00    +0.041 A 
ATOM     20 CL1  UNL     1      14.301  15.532  29.976  0.00  0.00    -0.084 Cl
ATOM     21  C12 UNL     1      12.001  14.141  30.495  0.00  0.00    +0.020 A 
ATOM     22  C13 UNL     1      10.783  13.554  30.140  0.00  0.00    +0.006 A 
ENDBRANCH  13  16
ENDBRANCH   2  13
TORSDOF 3
ENDMDL
MODEL 8
REMARK VINA RESULT:    -5.715      1.768      2.076
REMARK INTER + INTRA:          -7.210
REMARK INTER:                  -7.196
REMARK INTRA:                  -0.015
REMARK UNBOUND:                -0.493
REMARK  Name = /home/qwerty/github/datacon2025hack/step_04_hit_selection/docking/ligands/lig_320.pdb
REMARK  5 active torsions:
REMARK  status: ('A' for Active; 'I' for Inactive)
REMARK    1  A    between atoms: C1_1  and  C2_2
REMARK    2  A    between atoms: C5_5  and  N1_6
REMARK    3  A    between atoms: C6_7  and  C7_9
REMARK    4  A    between atoms: C7_9  and  C8_10
REMARK    5  A    between atoms: C16_19  and  C17_20
REMARK                            x       y       z     vdW  Elec       q    Type
REMARK                         _______ _______ _______ _____ _____    ______ ____
ROOT
ATOM      1  N1  UNL     1      20.834   2.156  27.427  0.00  0.00    -0.283 N 
ATOM      2  C6  UNL     1      22.151   1.891  27.934  0.00  0.00    +0.228 C 
ATOM      3  O1  UNL     1      23.139   2.500  27.439  0.00  0.00    -0.275 OA
ATOM      4  H6  UNL     1      20.022   2.128  28.081  0.00  0.00    +0.155 HD
ENDROOT
BRANCH   1   9
ATOM      5  C1  UNL     1      19.994   4.479  22.271  0.00  0.00    +0.065 C 
ATOM      6  C2  UNL     1      20.223   3.880  23.622  0.00  0.00    +0.039 A 
ATOM      7  C3  UNL     1      20.635   4.681  24.691  0.00  0.00    +0.025 A 
ATOM      8  C4  UNL     1      20.828   4.102  25.945  0.00  0.00    +0.027 A 
ATOM      9  C5  UNL     1      20.619   2.730  26.129  0.00  0.00    +0.055 A 
ATOM     10  C16 UNL     1      20.153   1.961  25.037  0.00  0.00    +0.060 A 
ATOM     11  C17 UNL     1      19.827   0.502  25.171  0.00  0.00    +0.067 C 
ATOM     12  N2  UNL     1      19.983   2.557  23.825  0.00  0.00    -0.255 NA
ENDBRANCH   1   9
BRANCH   2  13
ATOM     13  C7  UNL     1      22.394   0.914  29.064  0.00  0.00    +0.072 C 
ATOM     14  C14 UNL     1      23.763   0.242  29.164  0.00  0.00    +0.022 C 
ATOM     15  C15 UNL     1      22.560  -0.552  28.673  0.00  0.00    +0.022 C 
BRANCH  13  16
ATOM     16  C8  UNL     1      21.715   1.177  30.384  0.00  0.00    -0.032 A 
ATOM     17  C9  UNL     1      20.678   0.342  30.830  0.00  0.00    +0.006 A 
ATOM     18  C10 UNL     1      20.021   0.616  32.033  0.00  0.00    +0.020 A 
ATOM     19  C11 UNL     1      20.383   1.735  32.791  0.00  0.00    +0.041 A 
ATOM     20 CL1  UNL     1      19.557   2.079  34.299  0.00  0.00    -0.084 Cl
ATOM     21  C12 UNL     1      21.401   2.583  32.341  0.00  0.00    +0.020 A 
ATOM     22  C13 UNL     1      22.059   2.311  31.137  0.00  0.00    +0.006 A 
ENDBRANCH  13  16
ENDBRANCH   2  13
TORSDOF 3
ENDMDL
MODEL 9
REMARK VINA RESULT:    -5.643      5.535      7.956
REMARK INTER + INTRA:          -7.125
REMARK INTER:                  -6.816
REMARK INTRA:                  -0.309
REMARK UNBOUND:                -0.493
REMARK  Name = /home/qwerty/github/datacon2025hack/step_04_hit_selection/docking/ligands/lig_320.pdb
REMARK  5 active torsions:
REMARK  status: ('A' for Active; 'I' for Inactive)
REMARK    1  A    between atoms: C1_1  and  C2_2
REMARK    2  A    between atoms: C5_5  and  N1_6
REMARK    3  A    between atoms: C6_7  and  C7_9
REMARK    4  A    between atoms: C7_9  and  C8_10
REMARK    5  A    between atoms: C16_19  and  C17_20
REMARK                            x       y       z     vdW  Elec       q    Type
REMARK                         _______ _______ _______ _____ _____    ______ ____
ROOT
ATOM      1  N1  UNL     1      22.007   4.120  34.199  0.00  0.00    -0.283 N 
ATOM      2  C6  UNL     1      21.633   5.503  34.082  0.00  0.00    +0.228 C 
ATOM      3  O1  UNL     1      20.757   5.836  33.237  0.00  0.00    -0.275 OA
ATOM      4  H6  UNL     1      22.264   3.742  35.137  0.00  0.00    +0.155 HD
ENDROOT
BRANCH   1   9
ATOM      5  C1  UNL     1      21.118   0.374  29.973  0.00  0.00    +0.065 C 
ATOM      6  C2  UNL     1      21.363   1.355  31.076  0.00  0.00    +0.039 A 
ATOM      7  C3  UNL     1      22.394   2.293  30.973  0.00  0.00    +0.025 A 
ATOM      8  C4  UNL     1      22.594   3.206  32.009  0.00  0.00    +0.027 A 
ATOM      9  C5  UNL     1      21.775   3.177  33.144  0.00  0.00    +0.055 A 
ATOM     10  C16 UNL     1      20.711   2.247  33.190  0.00  0.00    +0.060 A 
ATOM     11  C17 UNL     1      19.738   2.205  34.332  0.00  0.00    +0.067 C 
ATOM     12  N2  UNL     1      20.549   1.365  32.165  0.00  0.00    -0.255 NA
ENDBRANCH   1   9
BRANCH   2  13
ATOM     13  C7  UNL     1      22.242   6.576  34.956  0.00  0.00    +0.072 C 
ATOM     14  C14 UNL     1      23.512   7.275  34.474  0.00  0.00    +0.022 C 
ATOM     15  C15 UNL     1      23.587   6.250  35.598  0.00  0.00    +0.022 C 
BRANCH  13  16
ATOM     16  C8  UNL     1      21.310   7.439  35.769  0.00  0.00    -0.032 A 
ATOM     17  C9  UNL     1      20.782   6.969  36.983  0.00  0.00    +0.006 A 
ATOM     18  C10 UNL     1      19.883   7.754  37.711  0.00  0.00    +0.020 A 
ATOM     19  C11 UNL     1      19.492   9.006  37.224  0.00  0.00    +0.041 A 
ATOM     20 CL1  UNL     1      18.363   9.989  38.138  0.00  0.00    -0.084 Cl
ATOM     21  C12 UNL     1      19.998   9.470  36.005  0.00  0.00    +0.020 A 
ATOM     22  C13 UNL     1      20.897   8.686  35.275  0.00  0.00    +0.006 A 
ENDBRANCH  13  16
ENDBRANCH   2  13
TORSDOF 3
ENDMDL
