REMARK  Name = /home/qwerty/github/datacon2025hack/step_04_hit_selection/docking/ligands/lig_456.pdb
REMARK  12 active torsions:
REMARK  status: ('A' for Active; 'I' for Inactive)
REMARK    1  A    between atoms: C1_1  and  C2_2
REMARK    2  A    between atoms: C4_4  and  C5_5
REMARK    3  A    between atoms: C5_5  and  N1_6
REMARK    4  A    between atoms: C9_13  and  C10_14
REMARK    5  A    between atoms: C10_14  and  C11_15
REMARK    6  A    between atoms: C11_15  and  C12_16
REMARK    7  A    between atoms: C11_15  and  C13_17
REMARK    8  A    between atoms: C11_15  and  C14_18
REMARK    9  A    between atoms: N5_19  and  C15_20
REMARK   10  A    between atoms: C15_20  and  C16_21
REMARK   11  A    between atoms: C17_23  and  C18_24
REMARK   12  A    between atoms: C19_25  and  C20_26
REMARK                            x       y       z     vdW  Elec       q    Type
REMARK                         _______ _______ _______ _____ _____    ______ ____
ROOT
ATOM      1  N1  UNL     1       3.466   0.437   0.227  0.00  0.00    -0.294 NA
ATOM      2  C6  UNL     1       2.390   0.607   1.232  0.00  0.00    +0.104 C 
ATOM      3  C7  UNL     1       1.344  -0.509   1.149  0.00  0.00    +0.123 C 
ATOM      4  N2  UNL     1       0.782  -0.579  -0.201  0.00  0.00    -0.297 N 
ATOM      5  C8  UNL     1      -0.405  -1.357  -0.423  0.00  0.00    +0.220 A 
ATOM      6  N3  UNL     1      -0.588  -2.578   0.109  0.00  0.00    -0.113 NA
ATOM      7  N4  UNL     1      -1.821  -2.947  -0.200  0.00  0.00    -0.133 NA
ATOM      8  C9  UNL     1      -2.389  -1.933  -0.886  0.00  0.00    +0.136 A 
ATOM      9  N5  UNL     1      -1.507  -0.921  -1.075  0.00  0.00    -0.293 N 
ATOM     10  C21 UNL     1       1.503   0.039  -1.316  0.00  0.00    +0.123 C 
ATOM     11  C22 UNL     1       3.013  -0.092  -1.090  0.00  0.00    +0.104 C 
ENDROOT
BRANCH   1  12
ATOM     12  C5  UNL     1       4.238   1.688   0.092  0.00  0.00    +0.143 C 
BRANCH  12  16
ATOM     13  C1  UNL     1       8.806  -0.159  -0.990  0.00  0.00    +0.089 C 
ATOM     14  C2  UNL     1       7.551   0.647  -0.961  0.00  0.00    +0.135 A 
ATOM     15  C3  UNL     1       6.468   0.436  -0.136  0.00  0.00    +0.072 A 
ATOM     16  C4  UNL     1       5.582   1.423  -0.518  0.00  0.00    +0.098 A 
ATOM     17  N7  UNL     1       6.126   2.172  -1.498  0.00  0.00    -0.082 NA
ATOM     18  O1  UNL     1       7.303   1.673  -1.742  0.00  0.00    -0.360 OA
ENDBRANCH  12  16
ENDBRANCH   1  12
BRANCH   8  19
ATOM     19  C10 UNL     1      -3.802  -1.971  -1.433  0.00  0.00    +0.082 C 
BRANCH  19  20
ATOM     20  C11 UNL     1      -4.853  -2.756  -0.587  0.00  0.00    -0.031 C 
ATOM     21  C12 UNL     1      -6.247  -2.503  -1.204  0.00  0.00    +0.011 C 
ATOM     22  C13 UNL     1      -4.871  -2.256   0.873  0.00  0.00    +0.011 C 
ATOM     23  C14 UNL     1      -4.588  -4.278  -0.621  0.00  0.00    +0.011 C 
ENDBRANCH  19  20
ENDBRANCH   8  19
BRANCH   9  24
ATOM     24  C15 UNL     1      -1.747   0.410  -1.643  0.00  0.00    +0.189 C 
BRANCH  24  25
ATOM     25  C16 UNL     1      -1.917   1.408  -0.544  0.00  0.00    +0.099 A 
ATOM     26  N6  UNL     1      -0.955   2.283  -0.180  0.00  0.00    -0.247 NA
ATOM     27  C17 UNL     1      -1.309   3.005   0.916  0.00  0.00    +0.049 A 
ATOM     28  C18 UNL     1      -0.412   4.062   1.478  0.00  0.00    +0.066 C 
ATOM     29  C19 UNL     1      -2.570   2.700   1.431  0.00  0.00    +0.009 A 
ATOM     30  C20 UNL     1      -3.235   3.342   2.604  0.00  0.00    +0.053 C 
ATOM     31  S1  UNL     1      -3.244   1.480   0.487  0.00  0.00    -0.075 S 
ENDBRANCH  24  25
ENDBRANCH   9  24
TORSDOF 6
