REMARK  Name = /home/qwerty/github/datacon2025hack/step_04_hit_selection/docking/ligands/lig_120.pdb
REMARK  9 active torsions:
REMARK  status: ('A' for Active; 'I' for Inactive)
REMARK    1  A    between atoms: C1_1  and  O1_2
REMARK    2  A    between atoms: O1_2  and  C2_3
REMARK    3  A    between atoms: C4_5  and  C5_6
REMARK    4  A    between atoms: C9_12  and  C10_13
REMARK    5  A    between atoms: C13_16  and  C14_17
REMARK    6  A    between atoms: C15_19  and  C16_20
REMARK    7  A    between atoms: C17_21  and  C18_22
REMARK    8  A    between atoms: C19_23  and  C20_24
REMARK    9  A    between atoms: C26_35  and  O2_36
REMARK                            x       y       z     vdW  Elec       q    Type
REMARK                         _______ _______ _______ _____ _____    ______ ____
ROOT
ATOM      1  C5  UNL     1      -4.086   0.562   1.163  0.00  0.00    +0.090 A 
ATOM      2  C6  UNL     1      -4.229   0.520   2.581  0.00  0.00    +0.141 A 
ATOM      3  N1  UNL     1      -3.137   0.311   3.377  0.00  0.00    -0.234 NA
ATOM      4  C7  UNL     1      -1.930   0.146   2.786  0.00  0.00    +0.157 A 
ATOM      5  N2  UNL     1      -0.755  -0.056   3.398  0.00  0.00    -0.344 N 
ATOM      6  C8  UNL     1       0.162  -0.139   2.402  0.00  0.00    +0.096 A 
ATOM      7  C9  UNL     1      -0.449   0.015   1.150  0.00  0.00    +0.045 A 
ATOM      8  C23 UNL     1      -1.785   0.194   1.438  0.00  0.00    +0.117 A 
ATOM      9  N8  UNL     1      -2.840   0.403   0.615  0.00  0.00    -0.241 NA
ATOM     10  H6  UNL     1      -0.580  -0.129   4.425  0.00  0.00    +0.167 HD
ENDROOT
BRANCH   7  11
ATOM     11  C10 UNL     1       0.183  -0.003  -0.187  0.00  0.00    +0.075 A 
ATOM     12  C11 UNL     1       1.584  -0.140  -0.334  0.00  0.00    +0.040 A 
ATOM     13  C12 UNL     1       2.093  -0.143  -1.633  0.00  0.00    +0.034 A 
ATOM     14  C13 UNL     1       3.370  -0.248  -2.165  0.00  0.00    +0.137 A 
ATOM     15  N5  UNL     1       3.279  -0.185  -3.517  0.00  0.00    -0.170 NA
ATOM     16  N6  UNL     1       2.000  -0.046  -3.845  0.00  0.00    -0.275 N 
ATOM     17  C21 UNL     1       1.276  -0.019  -2.716  0.00  0.00    +0.085 A 
ATOM     18  C22 UNL     1      -0.098   0.115  -2.570  0.00  0.00    +0.139 A 
ATOM     19  N7  UNL     1      -0.608   0.120  -1.304  0.00  0.00    -0.253 NA
ATOM     20  H18 UNL     1       1.642   0.028  -4.823  0.00  0.00    +0.189 HD
BRANCH  14  21
ATOM     21  C14 UNL     1       4.647  -0.400  -1.446  0.00  0.00    +0.181 A 
ATOM     22  N3  UNL     1       4.677  -0.474  -0.093  0.00  0.00    -0.231 NA
ATOM     23  C15 UNL     1       5.841  -0.613   0.593  0.00  0.00    +0.045 A 
ATOM     24  C16 UNL     1       5.774  -0.698   2.090  0.00  0.00    +0.066 C 
ATOM     25  C17 UNL     1       7.066  -0.656  -0.113  0.00  0.00    -0.008 A 
ATOM     26  C18 UNL     1       8.383  -0.827   0.611  0.00  0.00    +0.047 C 
ATOM     27  C19 UNL     1       7.008  -0.616  -1.526  0.00  0.00    +0.045 A 
ATOM     28  C20 UNL     1       8.240  -0.705  -2.379  0.00  0.00    +0.066 C 
ATOM     29  N4  UNL     1       5.806  -0.477  -2.145  0.00  0.00    -0.231 NA
ENDBRANCH  14  21
ENDBRANCH   7  11
BRANCH   1  32
ATOM     30  C2  UNL     1      -7.637   0.623  -0.239  0.00  0.00    +0.162 A 
ATOM     31  C3  UNL     1      -6.546   0.393   0.624  0.00  0.00    +0.059 A 
ATOM     32  C4  UNL     1      -5.246   0.800   0.266  0.00  0.00    +0.006 A 
ATOM     33  C24 UNL     1      -5.048   1.422  -0.977  0.00  0.00    +0.014 A 
ATOM     34  C25 UNL     1      -6.124   1.652  -1.835  0.00  0.00    +0.050 A 
ATOM     35  C26 UNL     1      -7.415   1.259  -1.473  0.00  0.00    +0.158 A 
BRANCH  30  37
ATOM     36  C1  UNL     1      -9.312  -0.408   1.312  0.00  0.00    +0.277 C 
ATOM     37  O1  UNL     1      -8.944   0.233   0.094  0.00  0.00    -0.491 OA
ENDBRANCH  30  37
BRANCH  35  38
ATOM     38  O2  UNL     1      -8.466   1.509  -2.355  0.00  0.00    -0.503 OA
ATOM     39  H22 UNL     1      -9.421   1.245  -2.145  0.00  0.00    +0.292 HD
ENDBRANCH  35  38
ENDBRANCH   1  32
TORSDOF 5
