MODEL 1
REMARK VINA RESULT:    -7.060      0.000      0.000
REMARK INTER + INTRA:          -7.948
REMARK INTER:                  -7.472
REMARK INTRA:                  -0.475
REMARK UNBOUND:                -0.475
REMARK  Name = /home/qwerty/github/datacon2025hack/step_04_hit_selection/docking/ligands/lig_169.pdb
REMARK  2 active torsions:
REMARK  status: ('A' for Active; 'I' for Inactive)
REMARK    1  A    between atoms: C1_1  and  C2_2
REMARK    2  A    between atoms: C10_10  and  C11_11
REMARK                            x       y       z     vdW  Elec       q    Type
REMARK                         _______ _______ _______ _____ _____    ______ ____
ROOT
ATOM      1  C11 UNL     1      19.690  12.617  19.426  0.00  0.00    +0.256 C 
ATOM      2  O1  UNL     1      18.435  12.726  19.481  0.00  0.00    -0.272 OA
ATOM      3  N1  UNL     1      20.292  11.338  19.675  0.00  0.00    -0.298 N 
ATOM      4  C12 UNL     1      21.223  10.749  18.702  0.00  0.00    +0.111 C 
ATOM      5  C13 UNL     1      21.189   9.219  18.785  0.00  0.00    +0.059 C 
ATOM      6  C14 UNL     1      21.472   8.671  20.220  0.00  0.00    +0.103 C 
ATOM      7  C15 UNL     1      21.099   9.711  21.317  0.00  0.00    +0.059 C 
ATOM      8  C16 UNL     1      19.933  10.604  20.891  0.00  0.00    +0.111 C 
ATOM      9  O2  UNL     1      20.657   7.517  20.459  0.00  0.00    -0.368 OA
ATOM     10  C17 UNL     1      21.113   6.356  19.775  0.00  0.00    +0.165 C 
ATOM     11  C18 UNL     1      22.459   5.875  20.335  0.00  0.00    +0.064 C 
ATOM     12  C19 UNL     1      23.410   7.024  20.364  0.00  0.00    -0.032 A 
ATOM     13  C20 UNL     1      24.805   6.919  20.423  0.00  0.00    +0.011 A 
ATOM     14  C21 UNL     1      25.444   8.154  20.429  0.00  0.00    +0.046 A 
ATOM     15  S1  UNL     1      24.272   9.362  20.369  0.00  0.00    -0.098 S 
ATOM     16  C22 UNL     1      22.944   8.323  20.363  0.00  0.00    +0.025 A 
ENDROOT
BRANCH   1  26
ATOM     17  C1  UNL     1      23.616  14.220  24.916  0.00  0.00    +0.044 C 
ATOM     18  C2  UNL     1      23.172  14.106  23.487  0.00  0.00    -0.050 A 
ATOM     19  C3  UNL     1      23.987  13.456  22.548  0.00  0.00    +0.007 A 
ATOM     20  C4  UNL     1      23.563  13.317  21.225  0.00  0.00    +0.046 A 
ATOM     21  C5  UNL     1      22.312  13.801  20.833  0.00  0.00    +0.125 A 
ATOM     22  C6  UNL     1      21.488  14.461  21.764  0.00  0.00    -0.005 A 
ATOM     23  C7  UNL     1      21.915  14.593  23.094  0.00  0.00    +0.010 A 
ATOM     24  C8  UNL     1      20.126  14.965  21.354  0.00  0.00    +0.043 C 
ATOM     25  C9  UNL     1      19.990  15.091  19.828  0.00  0.00    +0.059 C 
ATOM     26  C10 UNL     1      20.530  13.837  19.116  0.00  0.00    +0.259 C 
ATOM     27  O3  UNL     1      21.887  13.627  19.511  0.00  0.00    -0.479 OA
ENDBRANCH   1  26
TORSDOF 1
ENDMDL
MODEL 2
REMARK VINA RESULT:    -6.619     11.732     14.396
REMARK INTER + INTRA:          -7.481
REMARK INTER:                  -7.014
REMARK INTRA:                  -0.467
REMARK UNBOUND:                -0.475
REMARK  Name = /home/qwerty/github/datacon2025hack/step_04_hit_selection/docking/ligands/lig_169.pdb
REMARK  2 active torsions:
REMARK  status: ('A' for Active; 'I' for Inactive)
REMARK    1  A    between atoms: C1_1  and  C2_2
REMARK    2  A    between atoms: C10_10  and  C11_11
REMARK                            x       y       z     vdW  Elec       q    Type
REMARK                         _______ _______ _______ _____ _____    ______ ____
ROOT
ATOM      1  C11 UNL     1      14.200   0.343  25.190  0.00  0.00    +0.256 C 
ATOM      2  O1  UNL     1      13.810  -0.588  25.946  0.00  0.00    -0.272 OA
ATOM      3  N1  UNL     1      13.235   1.049  24.395  0.00  0.00    -0.298 N 
ATOM      4  C12 UNL     1      13.148   2.515  24.454  0.00  0.00    +0.111 C 
ATOM      5  C13 UNL     1      11.724   2.981  24.135  0.00  0.00    +0.059 C 
ATOM      6  C14 UNL     1      11.191   2.452  22.766  0.00  0.00    +0.103 C 
ATOM      7  C15 UNL     1      11.895   1.128  22.347  0.00  0.00    +0.059 C 
ATOM      8  C16 UNL     1      12.305   0.287  23.557  0.00  0.00    +0.111 C 
ATOM      9  O2  UNL     1       9.795   2.152  22.880  0.00  0.00    -0.368 OA
ATOM     10  C17 UNL     1       8.972   3.313  22.910  0.00  0.00    +0.165 C 
ATOM     11  C18 UNL     1       8.996   4.045  21.560  0.00  0.00    +0.064 C 
ATOM     12  C19 UNL     1      10.415   4.268  21.156  0.00  0.00    -0.032 A 
ATOM     13  C20 UNL     1      10.851   5.219  20.227  0.00  0.00    +0.011 A 
ATOM     14  C21 UNL     1      12.230   5.214  20.048  0.00  0.00    +0.046 A 
ATOM     15  S1  UNL     1      12.892   4.023  21.040  0.00  0.00    -0.098 S 
ATOM     16  C22 UNL     1      11.427   3.489  21.680  0.00  0.00    +0.025 A 
ENDROOT
BRANCH   1  26
ATOM     17  C1  UNL     1      16.711  -1.280  18.931  0.00  0.00    +0.044 C 
ATOM     18  C2  UNL     1      16.561  -0.581  20.249  0.00  0.00    -0.050 A 
ATOM     19  C3  UNL     1      16.368   0.808  20.291  0.00  0.00    +0.007 A 
ATOM     20  C4  UNL     1      16.193   1.458  21.514  0.00  0.00    +0.046 A 
ATOM     21  C5  UNL     1      16.183   0.726  22.704  0.00  0.00    +0.125 A 
ATOM     22  C6  UNL     1      16.383  -0.668  22.677  0.00  0.00    -0.005 A 
ATOM     23  C7  UNL     1      16.551  -1.317  21.445  0.00  0.00    +0.010 A 
ATOM     24  C8  UNL     1      16.349  -1.467  23.956  0.00  0.00    +0.043 C 
ATOM     25  C9  UNL     1      16.548  -0.583  25.198  0.00  0.00    +0.059 C 
ATOM     26  C10 UNL     1      15.673   0.682  25.126  0.00  0.00    +0.259 C 
ATOM     27  O3  UNL     1      15.975   1.387  23.921  0.00  0.00    -0.479 OA
ENDBRANCH   1  26
TORSDOF 1
ENDMDL
MODEL 3
REMARK VINA RESULT:    -6.567      9.332     12.049
REMARK INTER + INTRA:          -7.426
REMARK INTER:                  -7.033
REMARK INTRA:                  -0.393
REMARK UNBOUND:                -0.475
REMARK  Name = /home/qwerty/github/datacon2025hack/step_04_hit_selection/docking/ligands/lig_169.pdb
REMARK  2 active torsions:
REMARK  status: ('A' for Active; 'I' for Inactive)
REMARK    1  A    between atoms: C1_1  and  C2_2
REMARK    2  A    between atoms: C10_10  and  C11_11
REMARK                            x       y       z     vdW  Elec       q    Type
REMARK                         _______ _______ _______ _____ _____    ______ ____
ROOT
ATOM      1  C11 UNL     1      19.917   3.863  25.090  0.00  0.00    +0.256 C 
ATOM      2  O1  UNL     1      19.628   5.089  25.163  0.00  0.00    -0.272 OA
ATOM      3  N1  UNL     1      18.860   2.903  24.951  0.00  0.00    -0.298 N 
ATOM      4  C12 UNL     1      18.880   1.923  23.856  0.00  0.00    +0.111 C 
ATOM      5  C13 UNL     1      17.453   1.511  23.477  0.00  0.00    +0.059 C 
ATOM      6  C14 UNL     1      16.625   0.970  24.686  0.00  0.00    +0.103 C 
ATOM      7  C15 UNL     1      17.145   1.535  26.041  0.00  0.00    +0.059 C 
ATOM      8  C16 UNL     1      17.735   2.938  25.890  0.00  0.00    +0.111 C 
ATOM      9  O2  UNL     1      15.263   1.398  24.562  0.00  0.00    -0.368 OA
ATOM     10  C17 UNL     1      14.538   0.686  23.566  0.00  0.00    +0.165 C 
ATOM     11  C18 UNL     1      14.339  -0.782  23.970  0.00  0.00    +0.064 C 
ATOM     12  C19 UNL     1      15.659  -1.364  24.349  0.00  0.00    -0.032 A 
ATOM     13  C20 UNL     1      15.960  -2.730  24.388  0.00  0.00    +0.011 A 
ATOM     14  C21 UNL     1      17.272  -2.988  24.768  0.00  0.00    +0.046 A 
ATOM     15  S1  UNL     1      18.043  -1.518  25.060  0.00  0.00    -0.098 S 
ATOM     16  C22 UNL     1      16.704  -0.547  24.732  0.00  0.00    +0.025 A 
ENDROOT
BRANCH   1  26
ATOM     17  C1  UNL     1      21.382   1.667  31.505  0.00  0.00    +0.044 C 
ATOM     18  C2  UNL     1      21.452   1.802  30.013  0.00  0.00    -0.050 A 
ATOM     19  C3  UNL     1      21.288   0.673  29.196  0.00  0.00    +0.007 A 
ATOM     20  C4  UNL     1      21.318   0.799  27.806  0.00  0.00    +0.046 A 
ATOM     21  C5  UNL     1      21.486   2.055  27.218  0.00  0.00    +0.125 A 
ATOM     22  C6  UNL     1      21.660   3.195  28.026  0.00  0.00    -0.005 A 
ATOM     23  C7  UNL     1      21.622   3.064  29.422  0.00  0.00    +0.010 A 
ATOM     24  C8  UNL     1      21.818   4.558  27.397  0.00  0.00    +0.043 C 
ATOM     25  C9  UNL     1      22.224   4.470  25.917  0.00  0.00    +0.059 C 
ATOM     26  C10 UNL     1      21.367   3.435  25.166  0.00  0.00    +0.259 C 
ATOM     27  O3  UNL     1      21.484   2.172  25.823  0.00  0.00    -0.479 OA
ENDBRANCH   1  26
TORSDOF 1
ENDMDL
MODEL 4
REMARK VINA RESULT:    -6.558     11.046     12.807
REMARK INTER + INTRA:          -7.416
REMARK INTER:                  -6.980
REMARK INTRA:                  -0.437
REMARK UNBOUND:                -0.475
REMARK  Name = /home/qwerty/github/datacon2025hack/step_04_hit_selection/docking/ligands/lig_169.pdb
REMARK  2 active torsions:
REMARK  status: ('A' for Active; 'I' for Inactive)
REMARK    1  A    between atoms: C1_1  and  C2_2
REMARK    2  A    between atoms: C10_10  and  C11_11
REMARK                            x       y       z     vdW  Elec       q    Type
REMARK                         _______ _______ _______ _____ _____    ______ ____
ROOT
ATOM      1  C11 UNL     1      19.797   5.244  33.829  0.00  0.00    +0.256 C 
ATOM      2  O1  UNL     1      19.771   4.813  35.013  0.00  0.00    -0.272 OA
ATOM      3  N1  UNL     1      20.287   4.390  32.784  0.00  0.00    -0.298 N 
ATOM      4  C12 UNL     1      19.474   4.133  31.587  0.00  0.00    +0.111 C 
ATOM      5  C13 UNL     1      19.810   2.761  30.994  0.00  0.00    +0.059 C 
ATOM      6  C14 UNL     1      21.329   2.579  30.678  0.00  0.00    +0.103 C 
ATOM      7  C15 UNL     1      22.217   3.494  31.572  0.00  0.00    +0.059 C 
ATOM      8  C16 UNL     1      21.590   3.739  32.945  0.00  0.00    +0.111 C 
ATOM      9  O2  UNL     1      21.718   1.230  30.963  0.00  0.00    -0.368 OA
ATOM     10  C17 UNL     1      21.261   0.296  29.991  0.00  0.00    +0.165 C 
ATOM     11  C18 UNL     1      21.960   0.514  28.641  0.00  0.00    +0.064 C 
ATOM     12  C19 UNL     1      21.843   1.952  28.262  0.00  0.00    -0.032 A 
ATOM     13  C20 UNL     1      21.987   2.462  26.967  0.00  0.00    +0.011 A 
ATOM     14  C21 UNL     1      21.818   3.840  26.901  0.00  0.00    +0.046 A 
ATOM     15  S1  UNL     1      21.498   4.413  28.453  0.00  0.00    -0.098 S 
ATOM     16  C22 UNL     1      21.601   2.916  29.221  0.00  0.00    +0.025 A 
ENDROOT
BRANCH   1  26
ATOM     17  C1  UNL     1      25.259   9.302  32.478  0.00  0.00    +0.044 C 
ATOM     18  C2  UNL     1      23.853   8.781  32.456  0.00  0.00    -0.050 A 
ATOM     19  C3  UNL     1      23.242   8.458  31.235  0.00  0.00    +0.007 A 
ATOM     20  C4  UNL     1      21.946   7.940  31.212  0.00  0.00    +0.046 A 
ATOM     21  C5  UNL     1      21.257   7.715  32.407  0.00  0.00    +0.125 A 
ATOM     22  C6  UNL     1      21.856   8.042  33.639  0.00  0.00    -0.005 A 
ATOM     23  C7  UNL     1      23.161   8.556  33.657  0.00  0.00    +0.010 A 
ATOM     24  C8  UNL     1      21.127   7.780  34.933  0.00  0.00    +0.043 C 
ATOM     25  C9  UNL     1      19.615   7.598  34.721  0.00  0.00    +0.059 C 
ATOM     26  C10 UNL     1      19.329   6.654  33.539  0.00  0.00    +0.259 C 
ATOM     27  O3  UNL     1      19.969   7.167  32.370  0.00  0.00    -0.479 OA
ENDBRANCH   1  26
TORSDOF 1
ENDMDL
MODEL 5
REMARK VINA RESULT:    -6.539     12.197     15.035
REMARK INTER + INTRA:          -7.397
REMARK INTER:                  -6.978
REMARK INTRA:                  -0.419
REMARK UNBOUND:                -0.475
REMARK  Name = /home/qwerty/github/datacon2025hack/step_04_hit_selection/docking/ligands/lig_169.pdb
REMARK  2 active torsions:
REMARK  status: ('A' for Active; 'I' for Inactive)
REMARK    1  A    between atoms: C1_1  and  C2_2
REMARK    2  A    between atoms: C10_10  and  C11_11
REMARK                            x       y       z     vdW  Elec       q    Type
REMARK                         _______ _______ _______ _____ _____    ______ ____
ROOT
ATOM      1  C11 UNL     1      18.819   2.836  33.293  0.00  0.00    +0.256 C 
ATOM      2  O1  UNL     1      17.560   2.910  33.263  0.00  0.00    -0.272 OA
ATOM      3  N1  UNL     1      19.591   4.045  33.288  0.00  0.00    -0.298 N 
ATOM      4  C12 UNL     1      20.603   4.289  34.326  0.00  0.00    +0.111 C 
ATOM      5  C13 UNL     1      20.781   5.793  34.559  0.00  0.00    +0.059 C 
ATOM      6  C14 UNL     1      21.125   6.584  33.257  0.00  0.00    +0.103 C 
ATOM      7  C15 UNL     1      20.603   5.855  31.985  0.00  0.00    +0.059 C 
ATOM      8  C16 UNL     1      19.327   5.058  32.262  0.00  0.00    +0.111 C 
ATOM      9  O2  UNL     1      20.477   7.862  33.290  0.00  0.00    -0.368 OA
ATOM     10  C17 UNL     1      21.096   8.783  34.181  0.00  0.00    +0.165 C 
ATOM     11  C18 UNL     1      22.491   9.185  33.681  0.00  0.00    +0.064 C 
ATOM     12  C19 UNL     1      23.273   7.950  33.382  0.00  0.00    -0.032 A 
ATOM     13  C20 UNL     1      24.668   7.877  33.294  0.00  0.00    +0.011 A 
ATOM     14  C21 UNL     1      25.129   6.596  33.011  0.00  0.00    +0.046 A 
ATOM     15  S1  UNL     1      23.801   5.570  32.867  0.00  0.00    -0.098 S 
ATOM     16  C22 UNL     1      22.631   6.753  33.134  0.00  0.00    +0.025 A 
ENDROOT
BRANCH   1  26
ATOM     17  C1  UNL     1      21.432   1.398  27.029  0.00  0.00    +0.044 C 
ATOM     18  C2  UNL     1      21.263   1.390  28.520  0.00  0.00    -0.050 A 
ATOM     19  C3  UNL     1      22.322   1.787  29.350  0.00  0.00    +0.007 A 
ATOM     20  C4  UNL     1      22.158   1.815  30.736  0.00  0.00    +0.046 A 
ATOM     21  C5  UNL     1      20.929   1.473  31.305  0.00  0.00    +0.125 A 
ATOM     22  C6  UNL     1      19.860   1.066  30.484  0.00  0.00    -0.005 A 
ATOM     23  C7  UNL     1      20.027   1.046  29.092  0.00  0.00    +0.010 A 
ATOM     24  C8  UNL     1      18.523   0.718  31.091  0.00  0.00    +0.043 C 
ATOM     25  C9  UNL     1      18.629   0.417  32.595  0.00  0.00    +0.059 C 
ATOM     26  C10 UNL     1      19.484   1.476  33.315  0.00  0.00    +0.259 C 
ATOM     27  O3  UNL     1      20.769   1.535  32.695  0.00  0.00    -0.479 OA
ENDBRANCH   1  26
TORSDOF 1
ENDMDL
MODEL 6
REMARK VINA RESULT:    -6.508      4.184      7.141
REMARK INTER + INTRA:          -7.364
REMARK INTER:                  -7.085
REMARK INTRA:                  -0.280
REMARK UNBOUND:                -0.475
REMARK  Name = /home/qwerty/github/datacon2025hack/step_04_hit_selection/docking/ligands/lig_169.pdb
REMARK  2 active torsions:
REMARK  status: ('A' for Active; 'I' for Inactive)
REMARK    1  A    between atoms: C1_1  and  C2_2
REMARK    2  A    between atoms: C10_10  and  C11_11
REMARK                            x       y       z     vdW  Elec       q    Type
REMARK                         _______ _______ _______ _____ _____    ______ ____
ROOT
ATOM      1  C11 UNL     1      22.672  14.865  25.467  0.00  0.00    +0.256 C 
ATOM      2  O1  UNL     1      23.403  15.856  25.740  0.00  0.00    -0.272 OA
ATOM      3  N1  UNL     1      22.179  14.707  24.129  0.00  0.00    -0.298 N 
ATOM      4  C12 UNL     1      22.395  13.451  23.397  0.00  0.00    +0.111 C 
ATOM      5  C13 UNL     1      22.443  13.710  21.887  0.00  0.00    +0.059 C 
ATOM      6  C14 UNL     1      21.179  14.453  21.347  0.00  0.00    +0.103 C 
ATOM      7  C15 UNL     1      20.492  15.302  22.456  0.00  0.00    +0.059 C 
ATOM      8  C16 UNL     1      21.496  15.831  23.481  0.00  0.00    +0.111 C 
ATOM      9  O2  UNL     1      21.567  15.368  20.315  0.00  0.00    -0.368 OA
ATOM     10  C17 UNL     1      21.888  14.727  19.086  0.00  0.00    +0.165 C 
ATOM     11  C18 UNL     1      20.642  14.094  18.450  0.00  0.00    +0.064 C 
ATOM     12  C19 UNL     1      19.959  13.241  19.466  0.00  0.00    -0.032 A 
ATOM     13  C20 UNL     1      19.052  12.214  19.183  0.00  0.00    +0.011 A 
ATOM     14  C21 UNL     1      18.576  11.578  20.324  0.00  0.00    +0.046 A 
ATOM     15  S1  UNL     1      19.280  12.302  21.673  0.00  0.00    -0.098 S 
ATOM     16  C22 UNL     1      20.172  13.446  20.815  0.00  0.00    +0.025 A 
ENDROOT
BRANCH   1  26
ATOM     17  C1  UNL     1      16.963  16.983  28.790  0.00  0.00    +0.044 C 
ATOM     18  C2  UNL     1      18.006  16.062  28.231  0.00  0.00    -0.050 A 
ATOM     19  C3  UNL     1      17.638  15.034  27.350  0.00  0.00    +0.007 A 
ATOM     20  C4  UNL     1      18.610  14.196  26.800  0.00  0.00    +0.046 A 
ATOM     21  C5  UNL     1      19.959  14.392  27.103  0.00  0.00    +0.125 A 
ATOM     22  C6  UNL     1      20.342  15.415  27.991  0.00  0.00    -0.005 A 
ATOM     23  C7  UNL     1      19.363  16.259  28.536  0.00  0.00    +0.010 A 
ATOM     24  C8  UNL     1      21.800  15.647  28.304  0.00  0.00    +0.043 C 
ATOM     25  C9  UNL     1      22.669  14.428  27.953  0.00  0.00    +0.059 C 
ATOM     26  C10 UNL     1      22.319  13.878  26.559  0.00  0.00    +0.259 C 
ATOM     27  O3  UNL     1      20.926  13.564  26.521  0.00  0.00    -0.479 OA
ENDBRANCH   1  26
TORSDOF 1
ENDMDL
MODEL 7
REMARK VINA RESULT:    -6.495     13.530     15.542
REMARK INTER + INTRA:          -7.350
REMARK INTER:                  -6.903
REMARK INTRA:                  -0.447
REMARK UNBOUND:                -0.475
REMARK  Name = /home/qwerty/github/datacon2025hack/step_04_hit_selection/docking/ligands/lig_169.pdb
REMARK  2 active torsions:
REMARK  status: ('A' for Active; 'I' for Inactive)
REMARK    1  A    between atoms: C1_1  and  C2_2
REMARK    2  A    between atoms: C10_10  and  C11_11
REMARK                            x       y       z     vdW  Elec       q    Type
REMARK                         _______ _______ _______ _____ _____    ______ ____
ROOT
ATOM      1  C11 UNL     1      18.256  10.787  35.454  0.00  0.00    +0.256 C 
ATOM      2  O1  UNL     1      17.327  11.400  34.862  0.00  0.00    -0.272 OA
ATOM      3  N1  UNL     1      19.231  10.076  34.677  0.00  0.00    -0.298 N 
ATOM      4  C12 UNL     1      20.666  10.333  34.863  0.00  0.00    +0.111 C 
ATOM      5  C13 UNL     1      21.434  10.051  33.567  0.00  0.00    +0.059 C 
ATOM      6  C14 UNL     1      21.199   8.611  33.010  0.00  0.00    +0.103 C 
ATOM      7  C15 UNL     1      19.831   8.030  33.473  0.00  0.00    +0.059 C 
ATOM      8  C16 UNL     1      18.777   9.122  33.661  0.00  0.00    +0.111 C 
ATOM      9  O2  UNL     1      21.161   8.653  31.578  0.00  0.00    -0.368 OA
ATOM     10  C17 UNL     1      22.443   8.825  30.986  0.00  0.00    +0.165 C 
ATOM     11  C18 UNL     1      23.327   7.589  31.210  0.00  0.00    +0.064 C 
ATOM     12  C19 UNL     1      23.325   7.249  32.662  0.00  0.00    -0.032 A 
ATOM     13  C20 UNL     1      24.288   6.468  33.312  0.00  0.00    +0.011 A 
ATOM     14  C21 UNL     1      24.041   6.320  34.672  0.00  0.00    +0.046 A 
ATOM     15  S1  UNL     1      22.628   7.153  35.053  0.00  0.00    -0.098 S 
ATOM     16  C22 UNL     1      22.305   7.683  33.486  0.00  0.00    +0.025 A 
ENDROOT
BRANCH   1  26
ATOM     17  C1  UNL     1      16.553   4.532  37.924  0.00  0.00    +0.044 C 
ATOM     18  C2  UNL     1      17.190   5.888  37.843  0.00  0.00    -0.050 A 
ATOM     19  C3  UNL     1      18.585   6.015  37.911  0.00  0.00    +0.007 A 
ATOM     20  C4  UNL     1      19.184   7.271  37.800  0.00  0.00    +0.046 A 
ATOM     21  C5  UNL     1      18.400   8.408  37.594  0.00  0.00    +0.125 A 
ATOM     22  C6  UNL     1      16.997   8.296  37.531  0.00  0.00    -0.005 A 
ATOM     23  C7  UNL     1      16.401   7.031  37.636  0.00  0.00    +0.010 A 
ATOM     24  C8  UNL     1      16.146   9.516  37.285  0.00  0.00    +0.043 C 
ATOM     25  C9  UNL     1      16.902  10.821  37.584  0.00  0.00    +0.059 C 
ATOM     26  C10 UNL     1      18.312  10.801  36.967  0.00  0.00    +0.259 C 
ATOM     27  O3  UNL     1      19.016   9.657  37.454  0.00  0.00    -0.479 OA
ENDBRANCH   1  26
TORSDOF 1
ENDMDL
MODEL 8
REMARK VINA RESULT:    -6.469     10.350     12.470
REMARK INTER + INTRA:          -7.323
REMARK INTER:                  -6.905
REMARK INTRA:                  -0.418
REMARK UNBOUND:                -0.475
REMARK  Name = /home/qwerty/github/datacon2025hack/step_04_hit_selection/docking/ligands/lig_169.pdb
REMARK  2 active torsions:
REMARK  status: ('A' for Active; 'I' for Inactive)
REMARK    1  A    between atoms: C1_1  and  C2_2
REMARK    2  A    between atoms: C10_10  and  C11_11
REMARK                            x       y       z     vdW  Elec       q    Type
REMARK                         _______ _______ _______ _____ _____    ______ ____
ROOT
ATOM      1  C11 UNL     1       9.245   3.721  22.139  0.00  0.00    +0.256 C 
ATOM      2  O1  UNL     1       8.468   3.452  23.095  0.00  0.00    -0.272 OA
ATOM      3  N1  UNL     1      10.629   3.356  22.238  0.00  0.00    -0.298 N 
ATOM      4  C12 UNL     1      11.268   2.553  21.186  0.00  0.00    +0.111 C 
ATOM      5  C13 UNL     1      12.421   1.727  21.765  0.00  0.00    +0.059 C 
ATOM      6  C14 UNL     1      13.482   2.591  22.519  0.00  0.00    +0.103 C 
ATOM      7  C15 UNL     1      12.867   3.914  23.063  0.00  0.00    +0.059 C 
ATOM      8  C16 UNL     1      11.390   3.754  23.426  0.00  0.00    +0.111 C 
ATOM      9  O2  UNL     1      13.964   1.868  23.658  0.00  0.00    -0.368 OA
ATOM     10  C17 UNL     1      14.858   0.814  23.318  0.00  0.00    +0.165 C 
ATOM     11  C18 UNL     1      16.175   1.366  22.753  0.00  0.00    +0.064 C 
ATOM     12  C19 UNL     1      15.867   2.332  21.659  0.00  0.00    -0.032 A 
ATOM     13  C20 UNL     1      16.758   2.732  20.657  0.00  0.00    +0.011 A 
ATOM     14  C21 UNL     1      16.200   3.637  19.761  0.00  0.00    +0.046 A 
ATOM     15  S1  UNL     1      14.608   3.935  20.225  0.00  0.00    -0.098 S 
ATOM     16  C22 UNL     1      14.629   2.939  21.584  0.00  0.00    +0.025 A 
ENDROOT
BRANCH   1  26
ATOM     17  C1  UNL     1      11.093  10.405  22.324  0.00  0.00    +0.044 C 
ATOM     18  C2  UNL     1      10.703   9.067  21.769  0.00  0.00    -0.050 A 
ATOM     19  C3  UNL     1      11.546   8.410  20.860  0.00  0.00    +0.007 A 
ATOM     20  C4  UNL     1      11.204   7.149  20.368  0.00  0.00    +0.046 A 
ATOM     21  C5  UNL     1      10.033   6.521  20.797  0.00  0.00    +0.125 A 
ATOM     22  C6  UNL     1       9.174   7.172  21.704  0.00  0.00    -0.005 A 
ATOM     23  C7  UNL     1       9.525   8.436  22.201  0.00  0.00    +0.010 A 
ATOM     24  C8  UNL     1       7.920   6.489  22.190  0.00  0.00    +0.043 C 
ATOM     25  C9  UNL     1       7.500   5.327  21.274  0.00  0.00    +0.059 C 
ATOM     26  C10 UNL     1       8.704   4.436  20.919  0.00  0.00    +0.259 C 
ATOM     27  O3  UNL     1       9.718   5.243  20.319  0.00  0.00    -0.479 OA
ENDBRANCH   1  26
TORSDOF 1
ENDMDL
MODEL 9
REMARK VINA RESULT:    -6.347     12.492     14.214
REMARK INTER + INTRA:          -7.193
REMARK INTER:                  -6.873
REMARK INTRA:                  -0.320
REMARK UNBOUND:                -0.475
REMARK  Name = /home/qwerty/github/datacon2025hack/step_04_hit_selection/docking/ligands/lig_169.pdb
REMARK  2 active torsions:
REMARK  status: ('A' for Active; 'I' for Inactive)
REMARK    1  A    between atoms: C1_1  and  C2_2
REMARK    2  A    between atoms: C10_10  and  C11_11
REMARK                            x       y       z     vdW  Elec       q    Type
REMARK                         _______ _______ _______ _____ _____    ______ ____
ROOT
ATOM      1  C11 UNL     1       8.504   7.720  27.630  0.00  0.00    +0.256 C 
ATOM      2  O1  UNL     1       8.972   6.941  28.504  0.00  0.00    -0.272 OA
ATOM      3  N1  UNL     1       9.098   7.742  26.323  0.00  0.00    -0.298 N 
ATOM      4  C12 UNL     1       8.271   7.550  25.124  0.00  0.00    +0.111 C 
ATOM      5  C13 UNL     1       9.101   6.932  23.993  0.00  0.00    +0.059 C 
ATOM      6  C14 UNL     1      10.386   7.750  23.651  0.00  0.00    +0.103 C 
ATOM      7  C15 UNL     1      10.877   8.588  24.868  0.00  0.00    +0.059 C 
ATOM      8  C16 UNL     1      10.549   7.913  26.200  0.00  0.00    +0.111 C 
ATOM      9  O2  UNL     1      11.451   6.850  23.320  0.00  0.00    -0.368 OA
ATOM     10  C17 UNL     1      11.312   6.264  22.031  0.00  0.00    +0.165 C 
ATOM     11  C18 UNL     1      11.474   7.315  20.924  0.00  0.00    +0.064 C 
ATOM     12  C19 UNL     1      10.571   8.466  21.212  0.00  0.00    -0.032 A 
ATOM     13  C20 UNL     1      10.138   9.411  20.274  0.00  0.00    +0.011 A 
ATOM     14  C21 UNL     1       9.293  10.371  20.819  0.00  0.00    +0.046 A 
ATOM     15  S1  UNL     1       9.097  10.043  22.460  0.00  0.00    -0.098 S 
ATOM     16  C22 UNL     1      10.109   8.695  22.493  0.00  0.00    +0.025 A 
ENDROOT
BRANCH   1  26
ATOM     17  C1  UNL     1      10.883  13.828  29.903  0.00  0.00    +0.044 C 
ATOM     18  C2  UNL     1       9.967  12.819  29.274  0.00  0.00    -0.050 A 
ATOM     19  C3  UNL     1       9.539  12.988  27.949  0.00  0.00    +0.007 A 
ATOM     20  C4  UNL     1       8.716  12.034  27.348  0.00  0.00    +0.046 A 
ATOM     21  C5  UNL     1       8.334  10.891  28.055  0.00  0.00    +0.125 A 
ATOM     22  C6  UNL     1       8.750  10.712  29.388  0.00  0.00    -0.005 A 
ATOM     23  C7  UNL     1       9.583  11.670  29.985  0.00  0.00    +0.010 A 
ATOM     24  C8  UNL     1       8.361   9.469  30.148  0.00  0.00    +0.043 C 
ATOM     25  C9  UNL     1       7.164   8.747  29.506  0.00  0.00    +0.059 C 
ATOM     26  C10 UNL     1       7.342   8.624  27.982  0.00  0.00    +0.259 C 
ATOM     27  O3  UNL     1       7.533   9.927  27.430  0.00  0.00    -0.479 OA
ENDBRANCH   1  26
TORSDOF 1
ENDMDL
