MODEL 1
REMARK VINA RESULT:    -7.164      0.000      0.000
REMARK INTER + INTRA:          -9.987
REMARK INTER:                  -9.257
REMARK INTRA:                  -0.729
REMARK UNBOUND:                -0.729
REMARK  Name = /home/qwerty/github/datacon2025hack/step_04_hit_selection/docking/ligands/lig_220.pdb
REMARK  8 active torsions:
REMARK  status: ('A' for Active; 'I' for Inactive)
REMARK    1  A    between atoms: C1_1  and  C2_2
REMARK    2  A    between atoms: C2_2  and  C3_3
REMARK    3  A    between atoms: C2_2  and  N4_14
REMARK    4  A    between atoms: C6_6  and  N1_7
REMARK    5  A    between atoms: N4_14  and  C11_15
REMARK    6  A    between atoms: C12_16  and  C13_18
REMARK    7  A    between atoms: N5_20  and  C14_21
REMARK    8  A    between atoms: N6_29  and  C21_30
REMARK                            x       y       z     vdW  Elec       q    Type
REMARK                         _______ _______ _______ _____ _____    ______ ____
ROOT
ATOM      1  N4  UNL     1      16.041  -0.241  22.125  0.00  0.00    -0.290 N 
ATOM      2  C11 UNL     1      16.667  -1.204  21.213  0.00  0.00    +0.133 C 
ATOM      3  C12 UNL     1      15.454   0.947  21.556  0.00  0.00    +0.302 C 
ATOM      4  O1  UNL     1      16.010   1.497  20.566  0.00  0.00    -0.265 OA
ENDROOT
BRANCH   3   5
ATOM      5  C13 UNL     1      14.200   1.522  22.085  0.00  0.00    +0.303 C 
ATOM      6  O2  UNL     1      14.245   2.327  23.054  0.00  0.00    -0.265 OA
ATOM      7  N5  UNL     1      12.931   1.118  21.543  0.00  0.00    -0.278 N 
ATOM      8  H14 UNL     1      12.887   0.231  20.992  0.00  0.00    +0.155 HD
BRANCH   7   9
ATOM      9  C14 UNL     1      11.696   1.809  21.794  0.00  0.00    +0.035 A 
ATOM     10  C15 UNL     1      10.760   1.326  22.748  0.00  0.00    +0.024 A 
ATOM     11  C16 UNL     1       9.565   2.023  23.001  0.00  0.00    +0.015 A 
ATOM     12  C17 UNL     1       9.339   3.206  22.304  0.00  0.00    +0.050 A 
ATOM     13  C18 UNL     1      10.249   3.694  21.395  0.00  0.00    +0.051 A 
ATOM     14  C19 UNL     1      11.439   3.022  21.120  0.00  0.00    +0.037 A 
ATOM     15  C20 UNL     1       9.706   4.932  20.848  0.00  0.00    +0.254 C 
ATOM     16  O3  UNL     1      10.240   5.631  19.945  0.00  0.00    -0.270 OA
ATOM     17  N6  UNL     1       8.451   5.234  21.461  0.00  0.00    -0.237 N 
ATOM     18  C21 UNL     1       7.434   6.128  20.924  0.00  0.00    +0.142 C 
ATOM     19  C22 UNL     1       8.213   4.133  22.342  0.00  0.00    +0.254 C 
ATOM     20  O4  UNL     1       7.164   3.985  23.024  0.00  0.00    -0.270 OA
ENDBRANCH   7   9
ENDBRANCH   3   5
BRANCH   1  22
ATOM     21  C1  UNL     1      16.007  -1.869  24.003  0.00  0.00    +0.033 C 
ATOM     22  C2  UNL     1      16.155  -0.395  23.589  0.00  0.00    +0.103 C 
BRANCH  22  23
ATOM     23  C3  UNL     1      17.424   0.274  24.094  0.00  0.00    -0.027 A 
ATOM     24  C4  UNL     1      17.720   1.628  23.848  0.00  0.00    +0.007 A 
ATOM     25  C5  UNL     1      18.878   2.209  24.369  0.00  0.00    +0.028 A 
ATOM     26  C6  UNL     1      19.767   1.459  25.158  0.00  0.00    +0.067 A 
ATOM     27  C9  UNL     1      19.460   0.112  25.423  0.00  0.00    +0.028 A 
ATOM     28  C10 UNL     1      18.301  -0.469  24.902  0.00  0.00    +0.007 A 
BRANCH  26  29
ATOM     29  N1  UNL     1      20.958   2.078  25.689  0.00  0.00    -0.220 N 
ATOM     30  C7  UNL     1      21.737   3.015  25.114  0.00  0.00    +0.225 A 
ATOM     31  N2  UNL     1      22.763   3.360  25.917  0.00  0.00    -0.222 NA
ATOM     32  C8  UNL     1      22.560   2.584  27.002  0.00  0.00    +0.245 A 
ATOM     33  N3  UNL     1      21.469   1.804  26.877  0.00  0.00    -0.154 NA
ENDBRANCH  26  29
ENDBRANCH  22  23
ENDBRANCH   1  22
TORSDOF 5
ENDMDL
MODEL 2
REMARK VINA RESULT:    -6.994     11.770     15.608
REMARK INTER + INTRA:          -9.768
REMARK INTER:                  -8.804
REMARK INTRA:                  -0.964
REMARK UNBOUND:                -0.729
REMARK  Name = /home/qwerty/github/datacon2025hack/step_04_hit_selection/docking/ligands/lig_220.pdb
REMARK  8 active torsions:
REMARK  status: ('A' for Active; 'I' for Inactive)
REMARK    1  A    between atoms: C1_1  and  C2_2
REMARK    2  A    between atoms: C2_2  and  C3_3
REMARK    3  A    between atoms: C2_2  and  N4_14
REMARK    4  A    between atoms: C6_6  and  N1_7
REMARK    5  A    between atoms: N4_14  and  C11_15
REMARK    6  A    between atoms: C12_16  and  C13_18
REMARK    7  A    between atoms: N5_20  and  C14_21
REMARK    8  A    between atoms: N6_29  and  C21_30
REMARK                            x       y       z     vdW  Elec       q    Type
REMARK                         _______ _______ _______ _____ _____    ______ ____
ROOT
ATOM      1  N4  UNL     1       9.190  13.044  28.225  0.00  0.00    -0.290 N 
ATOM      2  C11 UNL     1       8.112  13.801  27.579  0.00  0.00    +0.133 C 
ATOM      3  C12 UNL     1      10.438  13.724  28.474  0.00  0.00    +0.302 C 
ATOM      4  O1  UNL     1      10.861  14.564  27.634  0.00  0.00    -0.265 OA
ENDROOT
BRANCH   3   5
ATOM      5  C13 UNL     1      11.221  13.481  29.704  0.00  0.00    +0.303 C 
ATOM      6  O2  UNL     1      12.390  13.021  29.615  0.00  0.00    -0.265 OA
ATOM      7  N5  UNL     1      10.630  13.706  30.995  0.00  0.00    -0.278 N 
ATOM      8  H14 UNL     1       9.589  13.760  31.062  0.00  0.00    +0.155 HD
BRANCH   7   9
ATOM      9  C14 UNL     1      11.382  13.763  32.219  0.00  0.00    +0.035 A 
ATOM     10  C15 UNL     1      11.951  14.981  32.680  0.00  0.00    +0.024 A 
ATOM     11  C16 UNL     1      12.667  15.028  33.890  0.00  0.00    +0.015 A 
ATOM     12  C17 UNL     1      12.783  13.854  34.628  0.00  0.00    +0.050 A 
ATOM     13  C18 UNL     1      12.217  12.675  34.200  0.00  0.00    +0.051 A 
ATOM     14  C19 UNL     1      11.507  12.596  33.004  0.00  0.00    +0.037 A 
ATOM     15  C20 UNL     1      12.529  11.651  35.192  0.00  0.00    +0.254 C 
ATOM     16  O3  UNL     1      12.220  10.432  35.109  0.00  0.00    -0.270 OA
ATOM     17  N6  UNL     1      13.271  12.221  36.272  0.00  0.00    -0.237 N 
ATOM     18  C21 UNL     1      14.092  11.483  37.222  0.00  0.00    +0.142 C 
ATOM     19  C22 UNL     1      13.456  13.587  35.893  0.00  0.00    +0.254 C 
ATOM     20  O4  UNL     1      14.130  14.421  36.556  0.00  0.00    -0.270 OA
ENDBRANCH   7   9
ENDBRANCH   3   5
BRANCH   1  22
ATOM     21  C1  UNL     1       7.905  11.284  29.419  0.00  0.00    +0.033 C 
ATOM     22  C2  UNL     1       9.065  11.592  28.460  0.00  0.00    +0.103 C 
BRANCH  22  23
ATOM     23  C3  UNL     1       8.999  10.847  27.135  0.00  0.00    -0.027 A 
ATOM     24  C4  UNL     1      10.093  10.762  26.254  0.00  0.00    +0.007 A 
ATOM     25  C5  UNL     1       9.997  10.029  25.068  0.00  0.00    +0.028 A 
ATOM     26  C6  UNL     1       8.810   9.354  24.734  0.00  0.00    +0.067 A 
ATOM     27  C9  UNL     1       7.724   9.421  25.625  0.00  0.00    +0.028 A 
ATOM     28  C10 UNL     1       7.821  10.153  26.811  0.00  0.00    +0.007 A 
BRANCH  26  29
ATOM     29  N1  UNL     1       8.731   8.602  23.505  0.00  0.00    -0.220 N 
ATOM     30  C7  UNL     1       9.410   7.489  23.164  0.00  0.00    +0.225 A 
ATOM     31  N2  UNL     1       9.065   7.062  21.933  0.00  0.00    -0.222 NA
ATOM     32  C8  UNL     1       8.145   7.974  21.554  0.00  0.00    +0.245 A 
ATOM     33  N3  UNL     1       7.932   8.910  22.498  0.00  0.00    -0.154 NA
ENDBRANCH  26  29
ENDBRANCH  22  23
ENDBRANCH   1  22
TORSDOF 5
ENDMDL
MODEL 3
REMARK VINA RESULT:    -6.715      7.005     12.776
REMARK INTER + INTRA:          -9.407
REMARK INTER:                  -8.781
REMARK INTRA:                  -0.626
REMARK UNBOUND:                -0.729
REMARK  Name = /home/qwerty/github/datacon2025hack/step_04_hit_selection/docking/ligands/lig_220.pdb
REMARK  8 active torsions:
REMARK  status: ('A' for Active; 'I' for Inactive)
REMARK    1  A    between atoms: C1_1  and  C2_2
REMARK    2  A    between atoms: C2_2  and  C3_3
REMARK    3  A    between atoms: C2_2  and  N4_14
REMARK    4  A    between atoms: C6_6  and  N1_7
REMARK    5  A    between atoms: N4_14  and  C11_15
REMARK    6  A    between atoms: C12_16  and  C13_18
REMARK    7  A    between atoms: N5_20  and  C14_21
REMARK    8  A    between atoms: N6_29  and  C21_30
REMARK                            x       y       z     vdW  Elec       q    Type
REMARK                         _______ _______ _______ _____ _____    ______ ____
ROOT
ATOM      1  N4  UNL     1      21.660   1.082  29.160  0.00  0.00    -0.290 N 
ATOM      2  C11 UNL     1      22.356  -0.180  28.883  0.00  0.00    +0.133 C 
ATOM      3  C12 UNL     1      21.212   1.324  30.509  0.00  0.00    +0.302 C 
ATOM      4  O1  UNL     1      20.777   0.361  31.198  0.00  0.00    -0.265 OA
ENDROOT
BRANCH   3   5
ATOM      5  C13 UNL     1      21.275   2.670  31.117  0.00  0.00    +0.303 C 
ATOM      6  O2  UNL     1      20.496   3.573  30.710  0.00  0.00    -0.265 OA
ATOM      7  N5  UNL     1      22.261   2.967  32.120  0.00  0.00    -0.278 N 
ATOM      8  H14 UNL     1      23.090   2.337  32.202  0.00  0.00    +0.155 HD
BRANCH   7   9
ATOM      9  C14 UNL     1      22.227   4.139  32.953  0.00  0.00    +0.035 A 
ATOM     10  C15 UNL     1      23.266   5.107  32.908  0.00  0.00    +0.024 A 
ATOM     11  C16 UNL     1      23.210   6.259  33.712  0.00  0.00    +0.015 A 
ATOM     12  C17 UNL     1      22.102   6.429  34.536  0.00  0.00    +0.050 A 
ATOM     13  C18 UNL     1      21.080   5.507  34.571  0.00  0.00    +0.051 A 
ATOM     14  C19 UNL     1      21.110   4.354  33.788  0.00  0.00    +0.037 A 
ATOM     15  C20 UNL     1      20.090   5.982  35.531  0.00  0.00    +0.254 C 
ATOM     16  O3  UNL     1      19.042   5.368  35.866  0.00  0.00    -0.270 OA
ATOM     17  N6  UNL     1      20.492   7.242  36.072  0.00  0.00    -0.237 N 
ATOM     18  C21 UNL     1      20.004   7.830  37.312  0.00  0.00    +0.142 C 
ATOM     19  C22 UNL     1      21.766   7.495  35.473  0.00  0.00    +0.254 C 
ATOM     20  O4  UNL     1      22.493   8.487  35.746  0.00  0.00    -0.270 OA
ENDBRANCH   7   9
ENDBRANCH   3   5
BRANCH   1  22
ATOM     21  C1  UNL     1      22.516   2.459  27.276  0.00  0.00    +0.033 C 
ATOM     22  C2  UNL     1      21.280   1.997  28.066  0.00  0.00    +0.103 C 
BRANCH  22  23
ATOM     23  C3  UNL     1      20.187   1.373  27.211  0.00  0.00    -0.027 A 
ATOM     24  C4  UNL     1      18.856   1.247  27.651  0.00  0.00    +0.007 A 
ATOM     25  C5  UNL     1      17.878   0.707  26.813  0.00  0.00    +0.028 A 
ATOM     26  C6  UNL     1      18.199   0.287  25.510  0.00  0.00    +0.067 A 
ATOM     27  C9  UNL     1      19.524   0.433  25.063  0.00  0.00    +0.028 A 
ATOM     28  C10 UNL     1      20.502   0.974  25.901  0.00  0.00    +0.007 A 
BRANCH  26  29
ATOM     29  N1  UNL     1      17.174  -0.269  24.659  0.00  0.00    -0.220 N 
ATOM     30  C7  UNL     1      17.266  -0.611  23.358  0.00  0.00    +0.225 A 
ATOM     31  N2  UNL     1      16.101  -1.107  22.898  0.00  0.00    -0.222 NA
ATOM     32  C8  UNL     1      15.306  -1.045  23.987  0.00  0.00    +0.245 A 
ATOM     33  N3  UNL     1      15.945  -0.541  25.060  0.00  0.00    -0.154 NA
ENDBRANCH  26  29
ENDBRANCH  22  23
ENDBRANCH   1  22
TORSDOF 5
ENDMDL
MODEL 4
REMARK VINA RESULT:    -6.714     10.007     12.716
REMARK INTER + INTRA:          -9.406
REMARK INTER:                  -8.960
REMARK INTRA:                  -0.446
REMARK UNBOUND:                -0.729
REMARK  Name = /home/qwerty/github/datacon2025hack/step_04_hit_selection/docking/ligands/lig_220.pdb
REMARK  8 active torsions:
REMARK  status: ('A' for Active; 'I' for Inactive)
REMARK    1  A    between atoms: C1_1  and  C2_2
REMARK    2  A    between atoms: C2_2  and  C3_3
REMARK    3  A    between atoms: C2_2  and  N4_14
REMARK    4  A    between atoms: C6_6  and  N1_7
REMARK    5  A    between atoms: N4_14  and  C11_15
REMARK    6  A    between atoms: C12_16  and  C13_18
REMARK    7  A    between atoms: N5_20  and  C14_21
REMARK    8  A    between atoms: N6_29  and  C21_30
REMARK                            x       y       z     vdW  Elec       q    Type
REMARK                         _______ _______ _______ _____ _____    ______ ____
ROOT
ATOM      1  N4  UNL     1       8.585  12.258  28.855  0.00  0.00    -0.290 N 
ATOM      2  C11 UNL     1       7.650  13.114  29.594  0.00  0.00    +0.133 C 
ATOM      3  C12 UNL     1       8.075  11.036  28.284  0.00  0.00    +0.302 C 
ATOM      4  O1  UNL     1       7.197  10.381  28.910  0.00  0.00    -0.265 OA
ENDROOT
BRANCH   3   5
ATOM      5  C13 UNL     1       8.535  10.545  26.968  0.00  0.00    +0.303 C 
ATOM      6  O2  UNL     1       9.767  10.540  26.702  0.00  0.00    -0.265 OA
ATOM      7  N5  UNL     1       7.582  10.137  25.973  0.00  0.00    -0.278 N 
ATOM      8  H14 UNL     1       6.591  10.453  26.076  0.00  0.00    +0.155 HD
BRANCH   7   9
ATOM      9  C14 UNL     1       7.928   9.399  24.788  0.00  0.00    +0.035 A 
ATOM     10  C15 UNL     1       7.936  10.018  23.509  0.00  0.00    +0.024 A 
ATOM     11  C16 UNL     1       8.297   9.292  22.360  0.00  0.00    +0.015 A 
ATOM     12  C17 UNL     1       8.663   7.958  22.518  0.00  0.00    +0.050 A 
ATOM     13  C18 UNL     1       8.679   7.356  23.755  0.00  0.00    +0.051 A 
ATOM     14  C19 UNL     1       8.321   8.049  24.910  0.00  0.00    +0.037 A 
ATOM     15  C20 UNL     1       9.097   5.971  23.567  0.00  0.00    +0.254 C 
ATOM     16  O3  UNL     1       9.175   5.099  24.473  0.00  0.00    -0.270 OA
ATOM     17  N6  UNL     1       9.382   5.726  22.188  0.00  0.00    -0.237 N 
ATOM     18  C21 UNL     1       9.433   4.418  21.549  0.00  0.00    +0.142 C 
ATOM     19  C22 UNL     1       9.073   6.961  21.537  0.00  0.00    +0.254 C 
ATOM     20  O4  UNL     1       9.126   7.137  20.290  0.00  0.00    -0.270 OA
ENDBRANCH   7   9
ENDBRANCH   3   5
BRANCH   1  22
ATOM     21  C1  UNL     1      10.335  13.808  28.013  0.00  0.00    +0.033 C 
ATOM     22  C2  UNL     1      10.032  12.548  28.841  0.00  0.00    +0.103 C 
BRANCH  22  23
ATOM     23  C3  UNL     1      10.579  12.584  30.260  0.00  0.00    -0.027 A 
ATOM     24  C4  UNL     1      10.802  11.419  31.019  0.00  0.00    +0.007 A 
ATOM     25  C5  UNL     1      11.346  11.500  32.303  0.00  0.00    +0.028 A 
ATOM     26  C6  UNL     1      11.691  12.743  32.860  0.00  0.00    +0.067 A 
ATOM     27  C9  UNL     1      11.489  13.905  32.094  0.00  0.00    +0.028 A 
ATOM     28  C10 UNL     1      10.946  13.824  30.810  0.00  0.00    +0.007 A 
BRANCH  26  29
ATOM     29  N1  UNL     1      12.254  12.806  34.188  0.00  0.00    -0.220 N 
ATOM     30  C7  UNL     1      12.211  13.830  35.064  0.00  0.00    +0.225 A 
ATOM     31  N2  UNL     1      12.842  13.519  36.213  0.00  0.00    -0.222 NA
ATOM     32  C8  UNL     1      13.263  12.258  35.984  0.00  0.00    +0.245 A 
ATOM     33  N3  UNL     1      12.912  11.815  34.762  0.00  0.00    -0.154 NA
ENDBRANCH  26  29
ENDBRANCH  22  23
ENDBRANCH   1  22
TORSDOF 5
ENDMDL
MODEL 5
REMARK VINA RESULT:    -6.711      4.655      8.458
REMARK INTER + INTRA:          -9.402
REMARK INTER:                  -8.806
REMARK INTRA:                  -0.596
REMARK UNBOUND:                -0.729
REMARK  Name = /home/qwerty/github/datacon2025hack/step_04_hit_selection/docking/ligands/lig_220.pdb
REMARK  8 active torsions:
REMARK  status: ('A' for Active; 'I' for Inactive)
REMARK    1  A    between atoms: C1_1  and  C2_2
REMARK    2  A    between atoms: C2_2  and  C3_3
REMARK    3  A    between atoms: C2_2  and  N4_14
REMARK    4  A    between atoms: C6_6  and  N1_7
REMARK    5  A    between atoms: N4_14  and  C11_15
REMARK    6  A    between atoms: C12_16  and  C13_18
REMARK    7  A    between atoms: N5_20  and  C14_21
REMARK    8  A    between atoms: N6_29  and  C21_30
REMARK                            x       y       z     vdW  Elec       q    Type
REMARK                         _______ _______ _______ _____ _____    ______ ____
ROOT
ATOM      1  N4  UNL     1      22.043   1.470  28.741  0.00  0.00    -0.290 N 
ATOM      2  C11 UNL     1      23.440   1.096  28.991  0.00  0.00    +0.133 C 
ATOM      3  C12 UNL     1      21.661   1.797  27.389  0.00  0.00    +0.302 C 
ATOM      4  O1  UNL     1      22.476   2.415  26.651  0.00  0.00    -0.265 OA
ENDROOT
BRANCH   3   5
ATOM      5  C13 UNL     1      20.349   1.401  26.837  0.00  0.00    +0.303 C 
ATOM      6  O2  UNL     1      19.294   1.750  27.430  0.00  0.00    -0.265 OA
ATOM      7  N5  UNL     1      20.276   0.567  25.668  0.00  0.00    -0.278 N 
ATOM      8  H14 UNL     1      21.125   0.024  25.393  0.00  0.00    +0.155 HD
BRANCH   7   9
ATOM      9  C14 UNL     1      19.074   0.359  24.908  0.00  0.00    +0.035 A 
ATOM     10  C15 UNL     1      18.269  -0.796  25.100  0.00  0.00    +0.024 A 
ATOM     11  C16 UNL     1      17.084  -0.978  24.365  0.00  0.00    +0.015 A 
ATOM     12  C17 UNL     1      16.716   0.014  23.461  0.00  0.00    +0.050 A 
ATOM     13  C18 UNL     1      17.478   1.147  23.284  0.00  0.00    +0.051 A 
ATOM     14  C19 UNL     1      18.659   1.352  23.994  0.00  0.00    +0.037 A 
ATOM     15  C20 UNL     1      16.820   1.967  22.273  0.00  0.00    +0.254 C 
ATOM     16  O3  UNL     1      17.258   3.055  21.812  0.00  0.00    -0.270 OA
ATOM     17  N6  UNL     1      15.606   1.344  21.846  0.00  0.00    -0.237 N 
ATOM     18  C21 UNL     1      14.895   1.627  20.606  0.00  0.00    +0.142 C 
ATOM     19  C22 UNL     1      15.569   0.109  22.566  0.00  0.00    +0.254 C 
ATOM     20  O4  UNL     1      14.681  -0.772  22.416  0.00  0.00    -0.270 OA
ENDBRANCH   7   9
ENDBRANCH   3   5
BRANCH   1  22
ATOM     21  C1  UNL     1      20.940   0.385  30.687  0.00  0.00    +0.033 C 
ATOM     22  C2  UNL     1      21.099   1.671  29.858  0.00  0.00    +0.103 C 
BRANCH  22  23
ATOM     23  C3  UNL     1      21.493   2.895  30.671  0.00  0.00    -0.027 A 
ATOM     24  C4  UNL     1      22.084   2.805  31.945  0.00  0.00    +0.007 A 
ATOM     25  C5  UNL     1      22.469   3.957  32.634  0.00  0.00    +0.028 A 
ATOM     26  C6  UNL     1      22.283   5.230  32.067  0.00  0.00    +0.067 A 
ATOM     27  C9  UNL     1      21.713   5.320  30.784  0.00  0.00    +0.028 A 
ATOM     28  C10 UNL     1      21.329   4.166  30.095  0.00  0.00    +0.007 A 
BRANCH  26  29
ATOM     29  N1  UNL     1      22.688   6.409  32.794  0.00  0.00    -0.220 N 
ATOM     30  C7  UNL     1      23.615   6.511  33.767  0.00  0.00    +0.225 A 
ATOM     31  N2  UNL     1      23.726   7.780  34.207  0.00  0.00    -0.222 NA
ATOM     32  C8  UNL     1      22.822   8.434  33.448  0.00  0.00    +0.245 A 
ATOM     33  N3  UNL     1      22.188   7.615  32.588  0.00  0.00    -0.154 NA
ENDBRANCH  26  29
ENDBRANCH  22  23
ENDBRANCH   1  22
TORSDOF 5
ENDMDL
MODEL 6
REMARK VINA RESULT:    -6.673      7.057     10.981
REMARK INTER + INTRA:          -9.353
REMARK INTER:                  -8.236
REMARK INTRA:                  -1.117
REMARK UNBOUND:                -0.729
REMARK  Name = /home/qwerty/github/datacon2025hack/step_04_hit_selection/docking/ligands/lig_220.pdb
REMARK  8 active torsions:
REMARK  status: ('A' for Active; 'I' for Inactive)
REMARK    1  A    between atoms: C1_1  and  C2_2
REMARK    2  A    between atoms: C2_2  and  C3_3
REMARK    3  A    between atoms: C2_2  and  N4_14
REMARK    4  A    between atoms: C6_6  and  N1_7
REMARK    5  A    between atoms: N4_14  and  C11_15
REMARK    6  A    between atoms: C12_16  and  C13_18
REMARK    7  A    between atoms: N5_20  and  C14_21
REMARK    8  A    between atoms: N6_29  and  C21_30
REMARK                            x       y       z     vdW  Elec       q    Type
REMARK                         _______ _______ _______ _____ _____    ______ ____
ROOT
ATOM      1  N4  UNL     1      21.801   1.637  28.739  0.00  0.00    -0.290 N 
ATOM      2  C11 UNL     1      23.148   1.595  28.160  0.00  0.00    +0.133 C 
ATOM      3  C12 UNL     1      21.492   0.710  29.800  0.00  0.00    +0.302 C 
ATOM      4  O1  UNL     1      21.976  -0.453  29.764  0.00  0.00    -0.265 OA
ENDROOT
BRANCH   3   5
ATOM      5  C13 UNL     1      20.644   1.099  30.946  0.00  0.00    +0.303 C 
ATOM      6  O2  UNL     1      21.131   1.805  31.869  0.00  0.00    -0.265 OA
ATOM      7  N5  UNL     1      19.291   0.622  31.043  0.00  0.00    -0.278 N 
ATOM      8  H14 UNL     1      19.016  -0.207  30.469  0.00  0.00    +0.155 HD
BRANCH   7   9
ATOM      9  C14 UNL     1      18.318   1.155  31.956  0.00  0.00    +0.035 A 
ATOM     10  C15 UNL     1      17.589   2.336  31.651  0.00  0.00    +0.024 A 
ATOM     11  C16 UNL     1      16.624   2.837  32.544  0.00  0.00    +0.015 A 
ATOM     12  C17 UNL     1      16.393   2.131  33.721  0.00  0.00    +0.050 A 
ATOM     13  C18 UNL     1      17.079   0.975  34.015  0.00  0.00    +0.051 A 
ATOM     14  C19 UNL     1      18.044   0.458  33.152  0.00  0.00    +0.037 A 
ATOM     15  C20 UNL     1      16.606   0.499  35.310  0.00  0.00    +0.254 C 
ATOM     16  O3  UNL     1      17.048  -0.507  35.927  0.00  0.00    -0.270 OA
ATOM     17  N6  UNL     1      15.580   1.360  35.807  0.00  0.00    -0.237 N 
ATOM     18  C21 UNL     1      15.152   1.461  37.196  0.00  0.00    +0.142 C 
ATOM     19  C22 UNL     1      15.480   2.395  34.826  0.00  0.00    +0.254 C 
ATOM     20  O4  UNL     1      14.725   3.400  34.930  0.00  0.00    -0.270 OA
ENDBRANCH   7   9
ENDBRANCH   3   5
BRANCH   1  22
ATOM     21  C1  UNL     1      21.337   3.747  27.510  0.00  0.00    +0.033 C 
ATOM     22  C2  UNL     1      20.743   2.479  28.145  0.00  0.00    +0.103 C 
BRANCH  22  23
ATOM     23  C3  UNL     1      19.877   1.654  27.204  0.00  0.00    -0.027 A 
ATOM     24  C4  UNL     1      20.375   1.079  26.020  0.00  0.00    +0.007 A 
ATOM     25  C5  UNL     1      19.551   0.293  25.210  0.00  0.00    +0.028 A 
ATOM     26  C6  UNL     1      18.213   0.051  25.565  0.00  0.00    +0.067 A 
ATOM     27  C9  UNL     1      17.722   0.607  26.760  0.00  0.00    +0.028 A 
ATOM     28  C10 UNL     1      18.546   1.393  27.570  0.00  0.00    +0.007 A 
BRANCH  26  29
ATOM     29  N1  UNL     1      17.377  -0.764  24.717  0.00  0.00    -0.220 N 
ATOM     30  C7  UNL     1      17.227  -0.694  23.379  0.00  0.00    +0.225 A 
ATOM     31  N2  UNL     1      16.364  -1.628  22.932  0.00  0.00    -0.222 NA
ATOM     32  C8  UNL     1      16.006  -2.262  24.068  0.00  0.00    +0.245 A 
ATOM     33  N3  UNL     1      16.614  -1.749  25.155  0.00  0.00    -0.154 NA
ENDBRANCH  26  29
ENDBRANCH  22  23
ENDBRANCH   1  22
TORSDOF 5
ENDMDL
MODEL 7
REMARK VINA RESULT:    -6.503      1.220      2.002
REMARK INTER + INTRA:          -9.133
REMARK INTER:                  -9.002
REMARK INTRA:                  -0.131
REMARK UNBOUND:                -0.729
REMARK  Name = /home/qwerty/github/datacon2025hack/step_04_hit_selection/docking/ligands/lig_220.pdb
REMARK  8 active torsions:
REMARK  status: ('A' for Active; 'I' for Inactive)
REMARK    1  A    between atoms: C1_1  and  C2_2
REMARK    2  A    between atoms: C2_2  and  C3_3
REMARK    3  A    between atoms: C2_2  and  N4_14
REMARK    4  A    between atoms: C6_6  and  N1_7
REMARK    5  A    between atoms: N4_14  and  C11_15
REMARK    6  A    between atoms: C12_16  and  C13_18
REMARK    7  A    between atoms: N5_20  and  C14_21
REMARK    8  A    between atoms: N6_29  and  C21_30
REMARK                            x       y       z     vdW  Elec       q    Type
REMARK                         _______ _______ _______ _____ _____    ______ ____
ROOT
ATOM      1  N4  UNL     1      16.106  -0.113  21.997  0.00  0.00    -0.290 N 
ATOM      2  C11 UNL     1      16.940  -1.293  21.745  0.00  0.00    +0.133 C 
ATOM      3  C12 UNL     1      15.605   0.617  20.858  0.00  0.00    +0.302 C 
ATOM      4  O1  UNL     1      16.331   0.737  19.834  0.00  0.00    -0.265 OA
ENDROOT
BRANCH   3   5
ATOM      5  C13 UNL     1      14.249   1.205  20.850  0.00  0.00    +0.303 C 
ATOM      6  O2  UNL     1      13.291   0.565  21.359  0.00  0.00    -0.265 OA
ATOM      7  N5  UNL     1      14.010   2.468  20.207  0.00  0.00    -0.278 N 
ATOM      8  H14 UNL     1      14.715   2.816  19.519  0.00  0.00    +0.155 HD
BRANCH   7   9
ATOM      9  C14 UNL     1      12.809   3.240  20.381  0.00  0.00    +0.035 A 
ATOM     10  C15 UNL     1      12.620   4.473  19.701  0.00  0.00    +0.024 A 
ATOM     11  C16 UNL     1      11.432   5.208  19.862  0.00  0.00    +0.015 A 
ATOM     12  C17 UNL     1      10.445   4.682  20.690  0.00  0.00    +0.050 A 
ATOM     13  C18 UNL     1      10.611   3.479  21.336  0.00  0.00    +0.051 A 
ATOM     14  C19 UNL     1      11.779   2.731  21.199  0.00  0.00    +0.037 A 
ATOM     15  C20 UNL     1       9.405   3.227  22.118  0.00  0.00    +0.254 C 
ATOM     16  O3  UNL     1       9.219   2.244  22.883  0.00  0.00    -0.270 OA
ATOM     17  N6  UNL     1       8.460   4.281  21.919  0.00  0.00    -0.237 N 
ATOM     18  C21 UNL     1       7.344   4.601  22.800  0.00  0.00    +0.142 C 
ATOM     19  C22 UNL     1       9.132   5.202  21.056  0.00  0.00    +0.254 C 
ATOM     20  O4  UNL     1       8.656   6.312  20.696  0.00  0.00    -0.270 OA
ENDBRANCH   7   9
ENDBRANCH   3   5
BRANCH   1  22
ATOM     21  C1  UNL     1      15.212  -0.614  24.261  0.00  0.00    +0.033 C 
ATOM     22  C2  UNL     1      15.925   0.412  23.365  0.00  0.00    +0.103 C 
BRANCH  22  23
ATOM     23  C3  UNL     1      17.250   0.914  23.919  0.00  0.00    -0.027 A 
ATOM     24  C4  UNL     1      17.851   2.110  23.483  0.00  0.00    +0.007 A 
ATOM     25  C5  UNL     1      19.048   2.553  24.053  0.00  0.00    +0.028 A 
ATOM     26  C6  UNL     1      19.671   1.820  25.077  0.00  0.00    +0.067 A 
ATOM     27  C9  UNL     1      19.059   0.636  25.528  0.00  0.00    +0.028 A 
ATOM     28  C10 UNL     1      17.862   0.194  24.958  0.00  0.00    +0.007 A 
BRANCH  26  29
ATOM     29  N1  UNL     1      20.907   2.293  25.654  0.00  0.00    -0.220 N 
ATOM     30  C7  UNL     1      21.792   3.163  25.128  0.00  0.00    +0.225 A 
ATOM     31  N2  UNL     1      22.829   3.372  25.964  0.00  0.00    -0.222 NA
ATOM     32  C8  UNL     1      22.520   2.586  27.016  0.00  0.00    +0.245 A 
ATOM     33  N3  UNL     1      21.358   1.929  26.841  0.00  0.00    -0.154 NA
ENDBRANCH  26  29
ENDBRANCH  22  23
ENDBRANCH   1  22
TORSDOF 5
ENDMDL
MODEL 8
REMARK VINA RESULT:    -6.475      6.170     10.405
REMARK INTER + INTRA:          -9.097
REMARK INTER:                  -7.973
REMARK INTRA:                  -1.124
REMARK UNBOUND:                -0.729
REMARK  Name = /home/qwerty/github/datacon2025hack/step_04_hit_selection/docking/ligands/lig_220.pdb
REMARK  8 active torsions:
REMARK  status: ('A' for Active; 'I' for Inactive)
REMARK    1  A    between atoms: C1_1  and  C2_2
REMARK    2  A    between atoms: C2_2  and  C3_3
REMARK    3  A    between atoms: C2_2  and  N4_14
REMARK    4  A    between atoms: C6_6  and  N1_7
REMARK    5  A    between atoms: N4_14  and  C11_15
REMARK    6  A    between atoms: C12_16  and  C13_18
REMARK    7  A    between atoms: N5_20  and  C14_21
REMARK    8  A    between atoms: N6_29  and  C21_30
REMARK                            x       y       z     vdW  Elec       q    Type
REMARK                         _______ _______ _______ _____ _____    ______ ____
ROOT
ATOM      1  N4  UNL     1      19.457   6.578  22.785  0.00  0.00    -0.290 N 
ATOM      2  C11 UNL     1      18.546   7.396  21.977  0.00  0.00    +0.133 C 
ATOM      3  C12 UNL     1      19.786   7.041  24.111  0.00  0.00    +0.302 C 
ATOM      4  O1  UNL     1      19.922   8.278  24.316  0.00  0.00    -0.265 OA
ENDROOT
BRANCH   3   5
ATOM      5  C13 UNL     1      19.941   6.103  25.243  0.00  0.00    +0.303 C 
ATOM      6  O2  UNL     1      18.921   5.557  25.741  0.00  0.00    -0.265 OA
ATOM      7  N5  UNL     1      21.238   5.866  25.816  0.00  0.00    -0.278 N 
ATOM      8  H14 UNL     1      21.999   6.556  25.624  0.00  0.00    +0.155 HD
BRANCH   7   9
ATOM      9  C14 UNL     1      21.528   4.786  26.719  0.00  0.00    +0.035 A 
ATOM     10  C15 UNL     1      22.323   3.679  26.316  0.00  0.00    +0.024 A 
ATOM     11  C16 UNL     1      22.617   2.639  27.215  0.00  0.00    +0.015 A 
ATOM     12  C17 UNL     1      22.123   2.737  28.513  0.00  0.00    +0.050 A 
ATOM     13  C18 UNL     1      21.371   3.815  28.919  0.00  0.00    +0.051 A 
ATOM     14  C19 UNL     1      21.059   4.858  28.048  0.00  0.00    +0.037 A 
ATOM     15  C20 UNL     1      21.013   3.603  30.317  0.00  0.00    +0.254 C 
ATOM     16  O3  UNL     1      20.280   4.358  31.009  0.00  0.00    -0.270 OA
ATOM     17  N6  UNL     1      21.590   2.385  30.793  0.00  0.00    -0.237 N 
ATOM     18  C21 UNL     1      21.152   1.637  31.965  0.00  0.00    +0.142 C 
ATOM     19  C22 UNL     1      22.250   1.834  29.651  0.00  0.00    +0.254 C 
ATOM     20  O4  UNL     1      22.829   0.715  29.638  0.00  0.00    -0.270 OA
ENDBRANCH   7   9
ENDBRANCH   3   5
BRANCH   1  22
ATOM     21  C1  UNL     1      21.674   5.558  22.315  0.00  0.00    +0.033 C 
ATOM     22  C2  UNL     1      20.148   5.410  22.203  0.00  0.00    +0.103 C 
BRANCH  22  23
ATOM     23  C3  UNL     1      19.598   4.121  22.795  0.00  0.00    -0.027 A 
ATOM     24  C4  UNL     1      20.407   3.188  23.470  0.00  0.00    +0.007 A 
ATOM     25  C5  UNL     1      19.848   2.039  24.034  0.00  0.00    +0.028 A 
ATOM     26  C6  UNL     1      18.467   1.795  23.950  0.00  0.00    +0.067 A 
ATOM     27  C9  UNL     1      17.655   2.738  23.295  0.00  0.00    +0.028 A 
ATOM     28  C10 UNL     1      18.214   3.888  22.731  0.00  0.00    +0.007 A 
BRANCH  26  29
ATOM     29  N1  UNL     1      17.908   0.602  24.541  0.00  0.00    -0.220 N 
ATOM     30  C7  UNL     1      17.425   0.438  25.788  0.00  0.00    +0.225 A 
ATOM     31  N2  UNL     1      16.977  -0.819  25.978  0.00  0.00    -0.222 NA
ATOM     32  C8  UNL     1      17.215  -1.399  24.784  0.00  0.00    +0.245 A 
ATOM     33  N3  UNL     1      17.777  -0.548  23.904  0.00  0.00    -0.154 NA
ENDBRANCH  26  29
ENDBRANCH  22  23
ENDBRANCH   1  22
TORSDOF 5
ENDMDL
MODEL 9
REMARK VINA RESULT:    -6.450      6.648     12.351
REMARK INTER + INTRA:          -9.065
REMARK INTER:                  -8.145
REMARK INTRA:                  -0.920
REMARK UNBOUND:                -0.729
REMARK  Name = /home/qwerty/github/datacon2025hack/step_04_hit_selection/docking/ligands/lig_220.pdb
REMARK  8 active torsions:
REMARK  status: ('A' for Active; 'I' for Inactive)
REMARK    1  A    between atoms: C1_1  and  C2_2
REMARK    2  A    between atoms: C2_2  and  C3_3
REMARK    3  A    between atoms: C2_2  and  N4_14
REMARK    4  A    between atoms: C6_6  and  N1_7
REMARK    5  A    between atoms: N4_14  and  C11_15
REMARK    6  A    between atoms: C12_16  and  C13_18
REMARK    7  A    between atoms: N5_20  and  C14_21
REMARK    8  A    between atoms: N6_29  and  C21_30
REMARK                            x       y       z     vdW  Elec       q    Type
REMARK                         _______ _______ _______ _____ _____    ______ ____
ROOT
ATOM      1  N4  UNL     1      21.567   1.176  29.193  0.00  0.00    -0.290 N 
ATOM      2  C11 UNL     1      22.448   0.037  28.909  0.00  0.00    +0.133 C 
ATOM      3  C12 UNL     1      20.998   1.279  30.514  0.00  0.00    +0.302 C 
ATOM      4  O1  UNL     1      20.655   0.228  31.121  0.00  0.00    -0.265 OA
ENDROOT
BRANCH   3   5
ATOM      5  C13 UNL     1      20.833   2.584  31.187  0.00  0.00    +0.303 C 
ATOM      6  O2  UNL     1      19.675   2.996  31.468  0.00  0.00    -0.265 OA
ATOM      7  N5  UNL     1      21.978   3.409  31.461  0.00  0.00    -0.278 N 
ATOM      8  H14 UNL     1      22.862   3.219  30.939  0.00  0.00    +0.155 HD
BRANCH   7   9
ATOM      9  C14 UNL     1      21.952   4.546  32.341  0.00  0.00    +0.035 A 
ATOM     10  C15 UNL     1      22.225   4.411  33.729  0.00  0.00    +0.024 A 
ATOM     11  C16 UNL     1      22.218   5.534  34.576  0.00  0.00    +0.015 A 
ATOM     12  C17 UNL     1      21.955   6.778  34.010  0.00  0.00    +0.050 A 
ATOM     13  C18 UNL     1      21.711   6.921  32.664  0.00  0.00    +0.051 A 
ATOM     14  C19 UNL     1      21.707   5.826  31.801  0.00  0.00    +0.037 A 
ATOM     15  C20 UNL     1      21.471   8.337  32.407  0.00  0.00    +0.254 C 
ATOM     16  O3  UNL     1      21.159   8.837  31.293  0.00  0.00    -0.270 OA
ATOM     17  N6  UNL     1      21.607   9.087  33.616  0.00  0.00    -0.237 N 
ATOM     18  C21 UNL     1      21.068  10.419  33.856  0.00  0.00    +0.142 C 
ATOM     19  C22 UNL     1      21.874   8.101  34.617  0.00  0.00    +0.254 C 
ATOM     20  O4  UNL     1      21.990   8.353  35.846  0.00  0.00    -0.270 OA
ENDBRANCH   7   9
ENDBRANCH   3   5
BRANCH   1  22
ATOM     21  C1  UNL     1      22.347   2.605  27.315  0.00  0.00    +0.033 C 
ATOM     22  C2  UNL     1      21.140   2.093  28.117  0.00  0.00    +0.103 C 
BRANCH  22  23
ATOM     23  C3  UNL     1      20.054   1.444  27.270  0.00  0.00    -0.027 A 
ATOM     24  C4  UNL     1      20.323   0.817  26.039  0.00  0.00    +0.007 A 
ATOM     25  C5  UNL     1      19.300   0.197  25.318  0.00  0.00    +0.028 A 
ATOM     26  C6  UNL     1      17.983   0.179  25.810  0.00  0.00    +0.067 A 
ATOM     27  C9  UNL     1      17.718   0.787  27.051  0.00  0.00    +0.028 A 
ATOM     28  C10 UNL     1      18.743   1.405  27.772  0.00  0.00    +0.007 A 
BRANCH  26  29
ATOM     29  N1  UNL     1      16.939  -0.467  25.051  0.00  0.00    -0.220 N 
ATOM     30  C7  UNL     1      15.814   0.079  24.548  0.00  0.00    +0.225 A 
ATOM     31  N2  UNL     1      15.078  -0.836  23.887  0.00  0.00    -0.222 NA
ATOM     32  C8  UNL     1      15.817  -1.957  24.018  0.00  0.00    +0.245 A 
ATOM     33  N3  UNL     1      16.947  -1.746  24.720  0.00  0.00    -0.154 NA
ENDBRANCH  26  29
ENDBRANCH  22  23
ENDBRANCH   1  22
TORSDOF 5
ENDMDL
