MODEL 1
REMARK VINA RESULT:    -8.111      0.000      0.000
REMARK INTER + INTRA:         -11.257
REMARK INTER:                 -10.245
REMARK INTRA:                  -1.011
REMARK UNBOUND:                -1.011
REMARK  Name = /home/qwerty/github/datacon2025hack/step_04_hit_selection/docking/ligands/lig_558.pdb
REMARK  6 active torsions:
REMARK  status: ('A' for Active; 'I' for Inactive)
REMARK    1  A    between atoms: C1_1  and  O1_2
REMARK    2  A    between atoms: O1_2  and  C2_3
REMARK    3  A    between atoms: C5_6  and  C6_7
REMARK    4  A    between atoms: C10_13  and  C11_14
REMARK    5  A    between atoms: C15_20  and  C16_21
REMARK    6  A    between atoms: C19_25  and  N6_26
REMARK                            x       y       z     vdW  Elec       q    Type
REMARK                         _______ _______ _______ _____ _____    ______ ____
ROOT
ATOM      1  C11 UNL     1      12.021  14.309  33.147  0.00  0.00    +0.122 A 
ATOM      2  N3  UNL     1      10.855  14.416  33.830  0.00  0.00    -0.171 NA
ATOM      3  N4  UNL     1      11.097  14.168  35.112  0.00  0.00    -0.276 N 
ATOM      4  C12 UNL     1      12.405  13.904  35.254  0.00  0.00    +0.066 A 
ATOM      5  C13 UNL     1      13.095  13.588  36.420  0.00  0.00    +0.028 A 
ATOM      6  C14 UNL     1      14.477  13.347  36.317  0.00  0.00    +0.010 A 
ATOM      7  C15 UNL     1      15.140  13.422  35.061  0.00  0.00    -0.016 A 
ATOM      8  C21 UNL     1      14.395  13.747  33.899  0.00  0.00    +0.020 A 
ATOM      9  C22 UNL     1      13.027  13.981  34.041  0.00  0.00    +0.030 A 
ATOM     10  H9  UNL     1      10.375  14.182  35.865  0.00  0.00    +0.189 HD
ENDROOT
BRANCH   1  17
ATOM     11  C6  UNL     1      10.235  12.163  29.599  0.00  0.00    +0.072 A 
ATOM     12  C7  UNL     1      10.644  12.713  28.348  0.00  0.00    +0.030 A 
ATOM     13  C8  UNL     1      11.506  13.824  28.311  0.00  0.00    +0.031 A 
ATOM     14  C9  UNL     1      11.931  14.335  29.529  0.00  0.00    +0.085 A 
ATOM     15  N1  UNL     1      12.750  15.369  29.781  0.00  0.00    -0.275 N 
ATOM     16  N2  UNL     1      12.882  15.487  31.101  0.00  0.00    -0.169 NA
ATOM     17  C10 UNL     1      12.139  14.518  31.695  0.00  0.00    +0.139 A 
ATOM     18  C23 UNL     1      11.533  13.784  30.701  0.00  0.00    +0.118 A 
ATOM     19  N7  UNL     1      10.703  12.715  30.764  0.00  0.00    -0.243 NA
ATOM     20  H8  UNL     1      13.216  15.986  29.081  0.00  0.00    +0.189 HD
BRANCH  11  24
ATOM     21  C2  UNL     1       7.629   8.738  29.844  0.00  0.00    +0.120 A 
ATOM     22  C3  UNL     1       8.994   8.626  30.165  0.00  0.00    +0.046 A 
ATOM     23  C4  UNL     1       9.833   9.741  30.082  0.00  0.00    +0.013 A 
ATOM     24  C5  UNL     1       9.330  10.988  29.671  0.00  0.00    +0.001 A 
ATOM     25  C24 UNL     1       7.960  11.096  29.363  0.00  0.00    +0.013 A 
ATOM     26  C25 UNL     1       7.124   9.980  29.447  0.00  0.00    +0.046 A 
BRANCH  21  28
ATOM     27  C1  UNL     1       7.151   6.284  29.866  0.00  0.00    +0.277 C 
ATOM     28  O1  UNL     1       6.747   7.649  29.911  0.00  0.00    -0.495 OA
ENDBRANCH  21  28
ENDBRANCH  11  24
ENDBRANCH   1  17
BRANCH   7  29
ATOM     29  C16 UNL     1      16.600  13.166  34.965  0.00  0.00    +0.002 A 
ATOM     30  C17 UNL     1      17.288  13.361  33.755  0.00  0.00    +0.119 A 
ATOM     31  N5  UNL     1      18.624  13.127  33.678  0.00  0.00    -0.261 NA
ATOM     32  C18 UNL     1      19.339  12.698  34.751  0.00  0.00    +0.133 A 
ATOM     33  C19 UNL     1      18.705  12.486  35.980  0.00  0.00    +0.043 A 
ATOM     34  C20 UNL     1      17.329  12.724  36.082  0.00  0.00    +0.034 A 
BRANCH  33  35
ATOM     35  N6  UNL     1      19.449  12.032  37.112  0.00  0.00    -0.357 N 
ATOM     36  H14 UNL     1      19.824  12.710  37.813  0.00  0.00    +0.142 HD
ATOM     37  H15 UNL     1      19.631  11.013  37.258  0.00  0.00    +0.142 HD
ENDBRANCH  33  35
ENDBRANCH   7  29
TORSDOF 5
ENDMDL
MODEL 2
REMARK VINA RESULT:    -7.942      3.260      9.451
REMARK INTER + INTRA:         -11.043
REMARK INTER:                 -10.047
REMARK INTRA:                  -0.995
REMARK UNBOUND:                -1.011
REMARK  Name = /home/qwerty/github/datacon2025hack/step_04_hit_selection/docking/ligands/lig_558.pdb
REMARK  6 active torsions:
REMARK  status: ('A' for Active; 'I' for Inactive)
REMARK    1  A    between atoms: C1_1  and  O1_2
REMARK    2  A    between atoms: O1_2  and  C2_3
REMARK    3  A    between atoms: C5_6  and  C6_7
REMARK    4  A    between atoms: C10_13  and  C11_14
REMARK    5  A    between atoms: C15_20  and  C16_21
REMARK    6  A    between atoms: C19_25  and  N6_26
REMARK                            x       y       z     vdW  Elec       q    Type
REMARK                         _______ _______ _______ _____ _____    ______ ____
ROOT
ATOM      1  C11 UNL     1      12.135  14.698  31.668  0.00  0.00    +0.122 A 
ATOM      2  N3  UNL     1      13.071  15.623  31.337  0.00  0.00    -0.171 NA
ATOM      3  N4  UNL     1      13.160  15.670  30.013  0.00  0.00    -0.276 N 
ATOM      4  C12 UNL     1      12.293  14.787  29.496  0.00  0.00    +0.066 A 
ATOM      5  C13 UNL     1      12.056  14.502  28.155  0.00  0.00    +0.028 A 
ATOM      6  C14 UNL     1      11.090  13.524  27.856  0.00  0.00    +0.010 A 
ATOM      7  C15 UNL     1      10.386  12.852  28.893  0.00  0.00    -0.016 A 
ATOM      8  C21 UNL     1      10.662  13.175  30.245  0.00  0.00    +0.020 A 
ATOM      9  C22 UNL     1      11.625  14.151  30.502  0.00  0.00    +0.030 A 
ATOM     10  H9  UNL     1      13.806  16.299  29.486  0.00  0.00    +0.189 HD
ENDROOT
BRANCH   1  17
ATOM     11  C6  UNL     1      14.552  13.374  35.245  0.00  0.00    +0.072 A 
ATOM     12  C7  UNL     1      13.757  13.155  36.408  0.00  0.00    +0.030 A 
ATOM     13  C8  UNL     1      12.366  13.368  36.366  0.00  0.00    +0.031 A 
ATOM     14  C9  UNL     1      11.827  13.786  35.157  0.00  0.00    +0.085 A 
ATOM     15  N1  UNL     1      10.550  14.052  34.839  0.00  0.00    -0.275 N 
ATOM     16  N2  UNL     1      10.504  14.411  33.557  0.00  0.00    -0.169 NA
ATOM     17  C10 UNL     1      11.764  14.372  33.055  0.00  0.00    +0.139 A 
ATOM     18  C23 UNL     1      12.609  13.976  34.066  0.00  0.00    +0.118 A 
ATOM     19  N7  UNL     1      13.949  13.779  34.081  0.00  0.00    -0.243 NA
ATOM     20  H8  UNL     1       9.721  13.994  35.469  0.00  0.00    +0.189 HD
BRANCH  11  24
ATOM     21  C2  UNL     1      18.820  12.771  35.256  0.00  0.00    +0.120 A 
ATOM     22  C3  UNL     1      18.189  13.415  34.176  0.00  0.00    +0.046 A 
ATOM     23  C4  UNL     1      16.804  13.606  34.180  0.00  0.00    +0.013 A 
ATOM     24  C5  UNL     1      16.020  13.153  35.256  0.00  0.00    +0.001 A 
ATOM     25  C24 UNL     1      16.660  12.521  36.339  0.00  0.00    +0.013 A 
ATOM     26  C25 UNL     1      18.045  12.331  36.333  0.00  0.00    +0.046 A 
BRANCH  21  28
ATOM     27  C1  UNL     1      20.815  11.296  35.569  0.00  0.00    +0.277 C 
ATOM     28  O1  UNL     1      20.206  12.555  35.299  0.00  0.00    -0.495 OA
ENDBRANCH  21  28
ENDBRANCH  11  24
ENDBRANCH   1  17
BRANCH   7  29
ATOM     29  C16 UNL     1       9.368  11.821  28.563  0.00  0.00    +0.002 A 
ATOM     30  C17 UNL     1       9.199  11.372  27.242  0.00  0.00    +0.119 A 
ATOM     31  N5  UNL     1       8.268  10.426  26.951  0.00  0.00    -0.261 NA
ATOM     32  C18 UNL     1       7.472   9.885  27.910  0.00  0.00    +0.133 A 
ATOM     33  C19 UNL     1       7.597  10.296  29.241  0.00  0.00    +0.043 A 
ATOM     34  C20 UNL     1       8.552  11.267  29.564  0.00  0.00    +0.034 A 
BRANCH  33  35
ATOM     35  N6  UNL     1       6.761   9.734  30.256  0.00  0.00    -0.357 N 
ATOM     36  H14 UNL     1       7.017   8.835  30.723  0.00  0.00    +0.142 HD
ATOM     37  H15 UNL     1       5.880  10.213  30.547  0.00  0.00    +0.142 HD
ENDBRANCH  33  35
ENDBRANCH   7  29
TORSDOF 5
ENDMDL
MODEL 3
REMARK VINA RESULT:    -7.923      9.530     13.556
REMARK INTER + INTRA:         -11.018
REMARK INTER:                 -10.050
REMARK INTRA:                  -0.968
REMARK UNBOUND:                -1.011
REMARK  Name = /home/qwerty/github/datacon2025hack/step_04_hit_selection/docking/ligands/lig_558.pdb
REMARK  6 active torsions:
REMARK  status: ('A' for Active; 'I' for Inactive)
REMARK    1  A    between atoms: C1_1  and  O1_2
REMARK    2  A    between atoms: O1_2  and  C2_3
REMARK    3  A    between atoms: C5_6  and  C6_7
REMARK    4  A    between atoms: C10_13  and  C11_14
REMARK    5  A    between atoms: C15_20  and  C16_21
REMARK    6  A    between atoms: C19_25  and  N6_26
REMARK                            x       y       z     vdW  Elec       q    Type
REMARK                         _______ _______ _______ _____ _____    ______ ____
ROOT
ATOM      1  C11 UNL     1       9.268   4.952  21.993  0.00  0.00    +0.122 A 
ATOM      2  N3  UNL     1       8.117   4.510  22.559  0.00  0.00    -0.171 NA
ATOM      3  N4  UNL     1       8.277   3.234  22.888  0.00  0.00    -0.276 N 
ATOM      4  C12 UNL     1       9.516   2.856  22.539  0.00  0.00    +0.066 A 
ATOM      5  C13 UNL     1      10.108   1.607  22.694  0.00  0.00    +0.028 A 
ATOM      6  C14 UNL     1      11.431   1.450  22.244  0.00  0.00    +0.010 A 
ATOM      7  C15 UNL     1      12.133   2.535  21.649  0.00  0.00    -0.016 A 
ATOM      8  C21 UNL     1      11.489   3.789  21.512  0.00  0.00    +0.020 A 
ATOM      9  C22 UNL     1      10.177   3.906  21.971  0.00  0.00    +0.030 A 
ATOM     10  H9  UNL     1       7.545   2.643  23.342  0.00  0.00    +0.189 HD
ENDROOT
BRANCH   1  17
ATOM     11  C6  UNL     1       8.761   8.990  23.947  0.00  0.00    +0.072 A 
ATOM     12  C7  UNL     1       9.054  10.077  23.071  0.00  0.00    +0.030 A 
ATOM     13  C8  UNL     1       9.469   9.829  21.750  0.00  0.00    +0.031 A 
ATOM     14  C9  UNL     1       9.567   8.502  21.356  0.00  0.00    +0.085 A 
ATOM     15  N1  UNL     1       9.925   7.988  20.168  0.00  0.00    -0.275 N 
ATOM     16  N2  UNL     1       9.864   6.660  20.251  0.00  0.00    -0.169 NA
ATOM     17  C10 UNL     1       9.461   6.326  21.503  0.00  0.00    +0.139 A 
ATOM     18  C23 UNL     1       9.272   7.491  22.210  0.00  0.00    +0.118 A 
ATOM     19  N7  UNL     1       8.871   7.703  23.487  0.00  0.00    -0.243 NA
ATOM     20  H8  UNL     1      10.206   8.518  19.314  0.00  0.00    +0.189 HD
BRANCH  11  24
ATOM     21  C2  UNL     1       7.465   9.697  27.997  0.00  0.00    +0.120 A 
ATOM     22  C3  UNL     1       8.220  10.662  27.306  0.00  0.00    +0.046 A 
ATOM     23  C4  UNL     1       8.636  10.425  25.993  0.00  0.00    +0.013 A 
ATOM     24  C5  UNL     1       8.317   9.219  25.345  0.00  0.00    +0.001 A 
ATOM     25  C24 UNL     1       7.551   8.262  26.039  0.00  0.00    +0.013 A 
ATOM     26  C25 UNL     1       7.135   8.501  27.351  0.00  0.00    +0.046 A 
BRANCH  21  28
ATOM     27  C1  UNL     1       7.174   8.929  30.359  0.00  0.00    +0.277 C 
ATOM     28  O1  UNL     1       7.024   9.887  29.316  0.00  0.00    -0.495 OA
ENDBRANCH  21  28
ENDBRANCH  11  24
ENDBRANCH   1  17
BRANCH   7  29
ATOM     29  C16 UNL     1      13.531   2.357  21.178  0.00  0.00    +0.002 A 
ATOM     30  C17 UNL     1      14.524   3.300  21.495  0.00  0.00    +0.119 A 
ATOM     31  N5  UNL     1      15.800   3.126  21.062  0.00  0.00    -0.261 NA
ATOM     32  C18 UNL     1      16.163   2.052  20.314  0.00  0.00    +0.133 A 
ATOM     33  C19 UNL     1      15.215   1.083  19.969  0.00  0.00    +0.043 A 
ATOM     34  C20 UNL     1      13.895   1.240  20.406  0.00  0.00    +0.034 A 
BRANCH  33  35
ATOM     35  N6  UNL     1      15.589  -0.049  19.179  0.00  0.00    -0.357 N 
ATOM     36  H14 UNL     1      16.028  -0.888  19.621  0.00  0.00    +0.142 HD
ATOM     37  H15 UNL     1      15.429  -0.056  18.147  0.00  0.00    +0.142 HD
ENDBRANCH  33  35
ENDBRANCH   7  29
TORSDOF 5
ENDMDL
MODEL 4
REMARK VINA RESULT:    -7.882     10.083     13.180
REMARK INTER + INTRA:         -10.967
REMARK INTER:                 -10.036
REMARK INTRA:                  -0.931
REMARK UNBOUND:                -1.011
REMARK  Name = /home/qwerty/github/datacon2025hack/step_04_hit_selection/docking/ligands/lig_558.pdb
REMARK  6 active torsions:
REMARK  status: ('A' for Active; 'I' for Inactive)
REMARK    1  A    between atoms: C1_1  and  O1_2
REMARK    2  A    between atoms: O1_2  and  C2_3
REMARK    3  A    between atoms: C5_6  and  C6_7
REMARK    4  A    between atoms: C10_13  and  C11_14
REMARK    5  A    between atoms: C15_20  and  C16_21
REMARK    6  A    between atoms: C19_25  and  N6_26
REMARK                            x       y       z     vdW  Elec       q    Type
REMARK                         _______ _______ _______ _____ _____    ______ ____
ROOT
ATOM      1  C11 UNL     1      22.574   4.432  33.223  0.00  0.00    +0.122 A 
ATOM      2  N3  UNL     1      23.703   4.574  32.484  0.00  0.00    -0.171 NA
ATOM      3  N4  UNL     1      24.171   5.802  32.667  0.00  0.00    -0.276 N 
ATOM      4  C12 UNL     1      23.354   6.447  33.515  0.00  0.00    +0.066 A 
ATOM      5  C13 UNL     1      23.460   7.752  33.983  0.00  0.00    +0.028 A 
ATOM      6  C14 UNL     1      22.471   8.211  34.872  0.00  0.00    +0.010 A 
ATOM      7  C15 UNL     1      21.401   7.364  35.273  0.00  0.00    -0.016 A 
ATOM      8  C21 UNL     1      21.334   6.041  34.769  0.00  0.00    +0.020 A 
ATOM      9  C22 UNL     1      22.333   5.622  33.891  0.00  0.00    +0.030 A 
ATOM     10  H9  UNL     1      25.033   6.181  32.217  0.00  0.00    +0.189 HD
ENDROOT
BRANCH   1  17
ATOM     11  C6  UNL     1      20.874   1.774  29.993  0.00  0.00    +0.072 A 
ATOM     12  C7  UNL     1      20.141   0.665  30.510  0.00  0.00    +0.030 A 
ATOM     13  C8  UNL     1      20.021   0.480  31.900  0.00  0.00    +0.031 A 
ATOM     14  C9  UNL     1      20.634   1.419  32.717  0.00  0.00    +0.085 A 
ATOM     15  N1  UNL     1      20.670   1.489  34.058  0.00  0.00    -0.275 N 
ATOM     16  N2  UNL     1      21.367   2.571  34.402  0.00  0.00    -0.169 NA
ATOM     17  C10 UNL     1      21.778   3.195  33.268  0.00  0.00    +0.139 A 
ATOM     18  C23 UNL     1      21.315   2.468  32.196  0.00  0.00    +0.118 A 
ATOM     19  N7  UNL     1      21.447   2.668  30.862  0.00  0.00    -0.243 NA
ATOM     20  H8  UNL     1      20.234   0.824  34.733  0.00  0.00    +0.189 HD
BRANCH  11  24
ATOM     21  C2  UNL     1      21.328   2.423  25.756  0.00  0.00    +0.120 A 
ATOM     22  C3  UNL     1      22.280   2.920  26.664  0.00  0.00    +0.046 A 
ATOM     23  C4  UNL     1      22.125   2.706  28.037  0.00  0.00    +0.013 A 
ATOM     24  C5  UNL     1      21.015   1.999  28.533  0.00  0.00    +0.001 A 
ATOM     25  C24 UNL     1      20.072   1.493  27.617  0.00  0.00    +0.013 A 
ATOM     26  C25 UNL     1      20.229   1.708  26.245  0.00  0.00    +0.046 A 
BRANCH  21  28
ATOM     27  C1  UNL     1      20.545   3.406  23.595  0.00  0.00    +0.277 C 
ATOM     28  O1  UNL     1      21.437   2.612  24.370  0.00  0.00    -0.495 OA
ENDBRANCH  21  28
ENDBRANCH  11  24
ENDBRANCH   1  17
BRANCH   7  29
ATOM     29  C16 UNL     1      20.362   7.859  36.212  0.00  0.00    +0.002 A 
ATOM     30  C17 UNL     1      19.494   6.966  36.863  0.00  0.00    +0.119 A 
ATOM     31  N5  UNL     1      18.550   7.429  37.724  0.00  0.00    -0.261 NA
ATOM     32  C18 UNL     1      18.405   8.754  37.984  0.00  0.00    +0.133 A 
ATOM     33  C19 UNL     1      19.242   9.687  37.363  0.00  0.00    +0.043 A 
ATOM     34  C20 UNL     1      20.224   9.233  36.475  0.00  0.00    +0.034 A 
BRANCH  33  35
ATOM     35  N6  UNL     1      19.094  11.085  37.629  0.00  0.00    -0.357 N 
ATOM     36  H14 UNL     1      18.496  11.685  37.019  0.00  0.00    +0.142 HD
ATOM     37  H15 UNL     1      19.583  11.529  38.439  0.00  0.00    +0.142 HD
ENDBRANCH  33  35
ENDBRANCH   7  29
TORSDOF 5
ENDMDL
MODEL 5
REMARK VINA RESULT:    -7.867      3.464      6.215
REMARK INTER + INTRA:         -10.948
REMARK INTER:                  -9.963
REMARK INTRA:                  -0.985
REMARK UNBOUND:                -1.011
REMARK  Name = /home/qwerty/github/datacon2025hack/step_04_hit_selection/docking/ligands/lig_558.pdb
REMARK  6 active torsions:
REMARK  status: ('A' for Active; 'I' for Inactive)
REMARK    1  A    between atoms: C1_1  and  O1_2
REMARK    2  A    between atoms: O1_2  and  C2_3
REMARK    3  A    between atoms: C5_6  and  C6_7
REMARK    4  A    between atoms: C10_13  and  C11_14
REMARK    5  A    between atoms: C15_20  and  C16_21
REMARK    6  A    between atoms: C19_25  and  N6_26
REMARK                            x       y       z     vdW  Elec       q    Type
REMARK                         _______ _______ _______ _____ _____    ______ ____
ROOT
ATOM      1  C11 UNL     1      16.333  13.254  35.566  0.00  0.00    +0.122 A 
ATOM      2  N3  UNL     1      16.705  14.456  35.057  0.00  0.00    -0.171 NA
ATOM      3  N4  UNL     1      18.004  14.411  34.788  0.00  0.00    -0.276 N 
ATOM      4  C12 UNL     1      18.466  13.196  35.118  0.00  0.00    +0.066 A 
ATOM      5  C13 UNL     1      19.765  12.713  35.008  0.00  0.00    +0.028 A 
ATOM      6  C14 UNL     1      20.010  11.392  35.426  0.00  0.00    +0.010 A 
ATOM      7  C15 UNL     1      18.960  10.584  35.945  0.00  0.00    -0.016 A 
ATOM      8  C21 UNL     1      17.652  11.120  36.039  0.00  0.00    +0.020 A 
ATOM      9  C22 UNL     1      17.448  12.433  35.613  0.00  0.00    +0.030 A 
ATOM     10  H9  UNL     1      18.553  15.203  34.386  0.00  0.00    +0.189 HD
ENDROOT
BRANCH   1  17
ATOM     11  C6  UNL     1      12.382  13.358  33.384  0.00  0.00    +0.072 A 
ATOM     12  C7  UNL     1      11.280  12.968  34.202  0.00  0.00    +0.030 A 
ATOM     13  C8  UNL     1      11.492  12.588  35.540  0.00  0.00    +0.031 A 
ATOM     14  C9  UNL     1      12.797  12.621  36.008  0.00  0.00    +0.085 A 
ATOM     15  N1  UNL     1      13.275  12.321  37.227  0.00  0.00    -0.275 N 
ATOM     16  N2  UNL     1      14.593  12.509  37.218  0.00  0.00    -0.169 NA
ATOM     17  C10 UNL     1      14.958  12.933  35.981  0.00  0.00    +0.139 A 
ATOM     18  C23 UNL     1      13.822  13.005  35.208  0.00  0.00    +0.118 A 
ATOM     19  N7  UNL     1      13.646  13.375  33.917  0.00  0.00    -0.243 NA
ATOM     20  H8  UNL     1      12.727  11.997  38.053  0.00  0.00    +0.189 HD
BRANCH  11  24
ATOM     21  C2  UNL     1      11.873  14.546  29.272  0.00  0.00    +0.120 A 
ATOM     22  C3  UNL     1      13.018  14.929  29.993  0.00  0.00    +0.046 A 
ATOM     23  C4  UNL     1      13.176  14.540  31.326  0.00  0.00    +0.013 A 
ATOM     24  C5  UNL     1      12.192  13.768  31.970  0.00  0.00    +0.001 A 
ATOM     25  C24 UNL     1      11.053  13.379  31.238  0.00  0.00    +0.013 A 
ATOM     26  C25 UNL     1      10.899  13.768  29.905  0.00  0.00    +0.046 A 
BRANCH  21  28
ATOM     27  C1  UNL     1      12.537  14.557  26.861  0.00  0.00    +0.277 C 
ATOM     28  O1  UNL     1      11.668  14.912  27.933  0.00  0.00    -0.495 OA
ENDBRANCH  21  28
ENDBRANCH  11  24
ENDBRANCH   1  17
BRANCH   7  29
ATOM     29  C16 UNL     1      19.231   9.191  36.383  0.00  0.00    +0.002 A 
ATOM     30  C17 UNL     1      18.375   8.140  36.011  0.00  0.00    +0.119 A 
ATOM     31  N5  UNL     1      18.633   6.868  36.414  0.00  0.00    -0.261 NA
ATOM     32  C18 UNL     1      19.711   6.564  37.183  0.00  0.00    +0.133 A 
ATOM     33  C19 UNL     1      20.595   7.572  37.582  0.00  0.00    +0.043 A 
ATOM     34  C20 UNL     1      20.350   8.889  37.177  0.00  0.00    +0.034 A 
BRANCH  33  35
ATOM     35  N6  UNL     1      21.730   7.262  38.395  0.00  0.00    -0.357 N 
ATOM     36  H14 UNL     1      21.896   6.286  38.731  0.00  0.00    +0.142 HD
ATOM     37  H15 UNL     1      22.412   8.005  38.667  0.00  0.00    +0.142 HD
ENDBRANCH  33  35
ENDBRANCH   7  29
TORSDOF 5
ENDMDL
MODEL 6
REMARK VINA RESULT:    -7.783      2.524      4.598
REMARK INTER + INTRA:         -10.842
REMARK INTER:                  -9.560
REMARK INTRA:                  -1.282
REMARK UNBOUND:                -1.011
REMARK  Name = /home/qwerty/github/datacon2025hack/step_04_hit_selection/docking/ligands/lig_558.pdb
REMARK  6 active torsions:
REMARK  status: ('A' for Active; 'I' for Inactive)
REMARK    1  A    between atoms: C1_1  and  O1_2
REMARK    2  A    between atoms: O1_2  and  C2_3
REMARK    3  A    between atoms: C5_6  and  C6_7
REMARK    4  A    between atoms: C10_13  and  C11_14
REMARK    5  A    between atoms: C15_20  and  C16_21
REMARK    6  A    between atoms: C19_25  and  N6_26
REMARK                            x       y       z     vdW  Elec       q    Type
REMARK                         _______ _______ _______ _____ _____    ______ ____
ROOT
ATOM      1  C11 UNL     1      13.615  13.185  30.052  0.00  0.00    +0.122 A 
ATOM      2  N3  UNL     1      14.832  12.776  29.614  0.00  0.00    -0.171 NA
ATOM      3  N4  UNL     1      15.513  12.306  30.653  0.00  0.00    -0.276 N 
ATOM      4  C12 UNL     1      14.745  12.410  31.748  0.00  0.00    +0.066 A 
ATOM      5  C13 UNL     1      15.057  12.043  33.053  0.00  0.00    +0.028 A 
ATOM      6  C14 UNL     1      14.080  12.254  34.043  0.00  0.00    +0.010 A 
ATOM      7  C15 UNL     1      12.819  12.826  33.714  0.00  0.00    -0.016 A 
ATOM      8  C21 UNL     1      12.547  13.185  32.371  0.00  0.00    +0.020 A 
ATOM      9  C22 UNL     1      13.539  12.959  31.417  0.00  0.00    +0.030 A 
ATOM     10  H9  UNL     1      16.483  11.924  30.601  0.00  0.00    +0.189 HD
ENDROOT
BRANCH   1  17
ATOM     11  C6  UNL     1       9.469  11.820  28.898  0.00  0.00    +0.072 A 
ATOM     12  C7  UNL     1       8.819  12.709  27.991  0.00  0.00    +0.030 A 
ATOM     13  C8  UNL     1       9.468  13.881  27.561  0.00  0.00    +0.031 A 
ATOM     14  C9  UNL     1      10.746  14.113  28.051  0.00  0.00    +0.085 A 
ATOM     15  N1  UNL     1      11.583  15.132  27.802  0.00  0.00    -0.275 N 
ATOM     16  N2  UNL     1      12.707  14.927  28.486  0.00  0.00    -0.169 NA
ATOM     17  C10 UNL     1      12.584  13.765  29.176  0.00  0.00    +0.139 A 
ATOM     18  C23 UNL     1      11.340  13.243  28.904  0.00  0.00    +0.118 A 
ATOM     19  N7  UNL     1      10.737  12.109  29.334  0.00  0.00    -0.243 NA
ATOM     20  H8  UNL     1      11.406  15.953  27.183  0.00  0.00    +0.189 HD
BRANCH  11  24
ATOM     21  C2  UNL     1       7.531   8.208  30.230  0.00  0.00    +0.120 A 
ATOM     22  C3  UNL     1       6.774   9.327  29.842  0.00  0.00    +0.046 A 
ATOM     23  C4  UNL     1       7.410  10.495  29.411  0.00  0.00    +0.013 A 
ATOM     24  C5  UNL     1       8.813  10.574  29.367  0.00  0.00    +0.001 A 
ATOM     25  C24 UNL     1       9.565   9.445  29.746  0.00  0.00    +0.013 A 
ATOM     26  C25 UNL     1       8.927   8.279  30.175  0.00  0.00    +0.046 A 
BRANCH  21  28
ATOM     27  C1  UNL     1       6.594   5.927  29.817  0.00  0.00    +0.277 C 
ATOM     28  O1  UNL     1       6.941   7.013  30.670  0.00  0.00    -0.495 OA
ENDBRANCH  21  28
ENDBRANCH  11  24
ENDBRANCH   1  17
BRANCH   7  29
ATOM     29  C16 UNL     1      11.796  13.043  34.769  0.00  0.00    +0.002 A 
ATOM     30  C17 UNL     1      11.685  12.161  35.857  0.00  0.00    +0.119 A 
ATOM     31  N5  UNL     1      10.747  12.370  36.819  0.00  0.00    -0.261 NA
ATOM     32  C18 UNL     1       9.890  13.423  36.767  0.00  0.00    +0.133 A 
ATOM     33  C19 UNL     1       9.956  14.332  35.706  0.00  0.00    +0.043 A 
ATOM     34  C20 UNL     1      10.916  14.137  34.705  0.00  0.00    +0.034 A 
BRANCH  33  35
ATOM     35  N6  UNL     1       9.056  15.440  35.642  0.00  0.00    -0.357 N 
ATOM     36  H14 UNL     1       9.095  16.202  36.356  0.00  0.00    +0.142 HD
ATOM     37  H15 UNL     1       8.344  15.507  34.881  0.00  0.00    +0.142 HD
ENDBRANCH  33  35
ENDBRANCH   7  29
TORSDOF 5
ENDMDL
MODEL 7
REMARK VINA RESULT:    -7.693      4.401      9.571
REMARK INTER + INTRA:         -10.728
REMARK INTER:                 -10.047
REMARK INTRA:                  -0.681
REMARK UNBOUND:                -1.011
REMARK  Name = /home/qwerty/github/datacon2025hack/step_04_hit_selection/docking/ligands/lig_558.pdb
REMARK  6 active torsions:
REMARK  status: ('A' for Active; 'I' for Inactive)
REMARK    1  A    between atoms: C1_1  and  O1_2
REMARK    2  A    between atoms: O1_2  and  C2_3
REMARK    3  A    between atoms: C5_6  and  C6_7
REMARK    4  A    between atoms: C10_13  and  C11_14
REMARK    5  A    between atoms: C15_20  and  C16_21
REMARK    6  A    between atoms: C19_25  and  N6_26
REMARK                            x       y       z     vdW  Elec       q    Type
REMARK                         _______ _______ _______ _____ _____    ______ ____
ROOT
ATOM      1  C11 UNL     1       9.207  11.837  28.463  0.00  0.00    +0.122 A 
ATOM      2  N3  UNL     1       8.358  11.529  29.476  0.00  0.00    -0.171 NA
ATOM      3  N4  UNL     1       7.577  10.533  29.077  0.00  0.00    -0.276 N 
ATOM      4  C12 UNL     1       7.917  10.201  27.822  0.00  0.00    +0.066 A 
ATOM      5  C13 UNL     1       7.360   9.215  27.015  0.00  0.00    +0.028 A 
ATOM      6  C14 UNL     1       7.888   9.053  25.721  0.00  0.00    +0.010 A 
ATOM      7  C15 UNL     1       8.953   9.876  25.260  0.00  0.00    -0.016 A 
ATOM      8  C21 UNL     1       9.488  10.868  26.118  0.00  0.00    +0.020 A 
ATOM      9  C22 UNL     1       8.940  10.997  27.394  0.00  0.00    +0.030 A 
ATOM     10  H9  UNL     1       6.830  10.096  29.661  0.00  0.00    +0.189 HD
ENDROOT
BRANCH   1  17
ATOM     11  C6  UNL     1      11.517  13.596  31.921  0.00  0.00    +0.072 A 
ATOM     12  C7  UNL     1      12.407  14.639  31.527  0.00  0.00    +0.030 A 
ATOM     13  C8  UNL     1      12.507  15.011  30.173  0.00  0.00    +0.031 A 
ATOM     14  C9  UNL     1      11.706  14.328  29.269  0.00  0.00    +0.085 A 
ATOM     15  N1  UNL     1      11.597  14.482  27.940  0.00  0.00    -0.275 N 
ATOM     16  N2  UNL     1      10.694  13.613  27.490  0.00  0.00    -0.169 NA
ATOM     17  C10 UNL     1      10.223  12.898  28.544  0.00  0.00    +0.139 A 
ATOM     18  C23 UNL     1      10.863  13.348  29.676  0.00  0.00    +0.118 A 
ATOM     19  N7  UNL     1      10.748  12.970  30.972  0.00  0.00    -0.243 NA
ATOM     20  H8  UNL     1      12.118  15.160  27.341  0.00  0.00    +0.189 HD
BRANCH  11  24
ATOM     21  C2  UNL     1      11.165  12.370  36.038  0.00  0.00    +0.120 A 
ATOM     22  C3  UNL     1      11.474  11.434  35.034  0.00  0.00    +0.046 A 
ATOM     23  C4  UNL     1      11.586  11.840  33.701  0.00  0.00    +0.013 A 
ATOM     24  C5  UNL     1      11.384  13.184  33.341  0.00  0.00    +0.001 A 
ATOM     25  C24 UNL     1      11.088  14.118  34.352  0.00  0.00    +0.013 A 
ATOM     26  C25 UNL     1      10.977  13.710  35.684  0.00  0.00    +0.046 A 
BRANCH  21  28
ATOM     27  C1  UNL     1      10.967  10.672  37.862  0.00  0.00    +0.277 C 
ATOM     28  O1  UNL     1      11.042  12.013  37.389  0.00  0.00    -0.495 OA
ENDBRANCH  21  28
ENDBRANCH  11  24
ENDBRANCH   1  17
BRANCH   7  29
ATOM     29  C16 UNL     1       9.502   9.696  23.892  0.00  0.00    +0.002 A 
ATOM     30  C17 UNL     1       8.799   8.956  22.925  0.00  0.00    +0.119 A 
ATOM     31  N5  UNL     1       9.308   8.800  21.674  0.00  0.00    -0.261 NA
ATOM     32  C18 UNL     1      10.501   9.341  21.313  0.00  0.00    +0.133 A 
ATOM     33  C19 UNL     1      11.243  10.086  22.236  0.00  0.00    +0.043 A 
ATOM     34  C20 UNL     1      10.736  10.262  23.529  0.00  0.00    +0.034 A 
BRANCH  33  35
ATOM     35  N6  UNL     1      12.501  10.655  21.865  0.00  0.00    -0.357 N 
ATOM     36  H14 UNL     1      13.393  10.288  22.265  0.00  0.00    +0.142 HD
ATOM     37  H15 UNL     1      12.548  11.449  21.187  0.00  0.00    +0.142 HD
ENDBRANCH  33  35
ENDBRANCH   7  29
TORSDOF 5
ENDMDL
MODEL 8
REMARK VINA RESULT:    -7.681     12.610     15.386
REMARK INTER + INTRA:         -10.713
REMARK INTER:                  -9.983
REMARK INTRA:                  -0.730
REMARK UNBOUND:                -1.011
REMARK  Name = /home/qwerty/github/datacon2025hack/step_04_hit_selection/docking/ligands/lig_558.pdb
REMARK  6 active torsions:
REMARK  status: ('A' for Active; 'I' for Inactive)
REMARK    1  A    between atoms: C1_1  and  O1_2
REMARK    2  A    between atoms: O1_2  and  C2_3
REMARK    3  A    between atoms: C5_6  and  C6_7
REMARK    4  A    between atoms: C10_13  and  C11_14
REMARK    5  A    between atoms: C15_20  and  C16_21
REMARK    6  A    between atoms: C19_25  and  N6_26
REMARK                            x       y       z     vdW  Elec       q    Type
REMARK                         _______ _______ _______ _____ _____    ______ ____
ROOT
ATOM      1  C11 UNL     1      12.197   2.531  21.106  0.00  0.00    +0.122 A 
ATOM      2  N3  UNL     1      12.314   3.459  20.125  0.00  0.00    -0.171 NA
ATOM      3  N4  UNL     1      13.539   3.380  19.620  0.00  0.00    -0.276 N 
ATOM      4  C12 UNL     1      14.205   2.412  20.267  0.00  0.00    +0.066 A 
ATOM      5  C13 UNL     1      15.515   1.990  20.067  0.00  0.00    +0.028 A 
ATOM      6  C14 UNL     1      15.998   0.948  20.879  0.00  0.00    +0.010 A 
ATOM      7  C15 UNL     1      15.170   0.351  21.870  0.00  0.00    -0.016 A 
ATOM      8  C21 UNL     1      13.841   0.814  22.037  0.00  0.00    +0.020 A 
ATOM      9  C22 UNL     1      13.398   1.848  21.213  0.00  0.00    +0.030 A 
ATOM     10  H9  UNL     1      13.902   3.982  18.847  0.00  0.00    +0.189 HD
ENDROOT
BRANCH   1  17
ATOM     11  C6  UNL     1       8.939   5.343  22.472  0.00  0.00    +0.072 A 
ATOM     12  C7  UNL     1       7.928   4.696  23.242  0.00  0.00    +0.030 A 
ATOM     13  C8  UNL     1       8.004   3.313  23.492  0.00  0.00    +0.031 A 
ATOM     14  C9  UNL     1       9.094   2.635  22.967  0.00  0.00    +0.085 A 
ATOM     15  N1  UNL     1       9.415   1.334  23.058  0.00  0.00    -0.275 N 
ATOM     16  N2  UNL     1      10.559   1.137  22.405  0.00  0.00    -0.169 NA
ATOM     17  C10 UNL     1      10.970   2.326  21.894  0.00  0.00    +0.139 A 
ATOM     18  C23 UNL     1      10.044   3.280  22.247  0.00  0.00    +0.118 A 
ATOM     19  N7  UNL     1       9.994   4.609  21.991  0.00  0.00    -0.243 NA
ATOM     20  H8  UNL     1       8.877   0.588  23.551  0.00  0.00    +0.189 HD
BRANCH  11  24
ATOM     21  C2  UNL     1       8.787   9.566  21.624  0.00  0.00    +0.120 A 
ATOM     22  C3  UNL     1       9.275   8.659  20.666  0.00  0.00    +0.046 A 
ATOM     23  C4  UNL     1       9.321   7.291  20.949  0.00  0.00    +0.013 A 
ATOM     24  C5  UNL     1       8.890   6.800  22.194  0.00  0.00    +0.001 A 
ATOM     25  C24 UNL     1       8.392   7.713  23.144  0.00  0.00    +0.013 A 
ATOM     26  C25 UNL     1       8.346   9.080  22.859  0.00  0.00    +0.046 A 
BRANCH  21  28
ATOM     27  C1  UNL     1       7.570  11.750  21.634  0.00  0.00    +0.277 C 
ATOM     28  O1  UNL     1       8.721  10.948  21.389  0.00  0.00    -0.495 OA
ENDBRANCH  21  28
ENDBRANCH  11  24
ENDBRANCH   1  17
BRANCH   7  29
ATOM     29  C16 UNL     1      15.691  -0.750  22.721  0.00  0.00    +0.002 A 
ATOM     30  C17 UNL     1      16.973  -1.283  22.503  0.00  0.00    +0.119 A 
ATOM     31  N5  UNL     1      17.442  -2.288  23.289  0.00  0.00    -0.261 NA
ATOM     32  C18 UNL     1      16.702  -2.812  24.300  0.00  0.00    +0.133 A 
ATOM     33  C19 UNL     1      15.419  -2.319  24.560  0.00  0.00    +0.043 A 
ATOM     34  C20 UNL     1      14.916  -1.283  23.765  0.00  0.00    +0.034 A 
BRANCH  33  35
ATOM     35  N6  UNL     1      14.632  -2.868  25.621  0.00  0.00    -0.357 N 
ATOM     36  H14 UNL     1      13.695  -2.468  25.853  0.00  0.00    +0.142 HD
ATOM     37  H15 UNL     1      14.981  -3.677  26.181  0.00  0.00    +0.142 HD
ENDBRANCH  33  35
ENDBRANCH   7  29
TORSDOF 5
ENDMDL
MODEL 9
REMARK VINA RESULT:    -7.193     10.917     14.668
REMARK INTER + INTRA:         -10.097
REMARK INTER:                  -9.327
REMARK INTRA:                  -0.770
REMARK UNBOUND:                -1.011
REMARK  Name = /home/qwerty/github/datacon2025hack/step_04_hit_selection/docking/ligands/lig_558.pdb
REMARK  6 active torsions:
REMARK  status: ('A' for Active; 'I' for Inactive)
REMARK    1  A    between atoms: C1_1  and  O1_2
REMARK    2  A    between atoms: O1_2  and  C2_3
REMARK    3  A    between atoms: C5_6  and  C6_7
REMARK    4  A    between atoms: C10_13  and  C11_14
REMARK    5  A    between atoms: C15_20  and  C16_21
REMARK    6  A    between atoms: C19_25  and  N6_26
REMARK                            x       y       z     vdW  Elec       q    Type
REMARK                         _______ _______ _______ _____ _____    ______ ____
ROOT
ATOM      1  C11 UNL     1      11.747   4.465  21.203  0.00  0.00    +0.122 A 
ATOM      2  N3  UNL     1      11.673   5.757  20.799  0.00  0.00    -0.171 NA
ATOM      3  N4  UNL     1      12.822   6.080  20.219  0.00  0.00    -0.276 N 
ATOM      4  C12 UNL     1      13.630   5.009  20.247  0.00  0.00    +0.066 A 
ATOM      5  C13 UNL     1      14.926   4.898  19.756  0.00  0.00    +0.028 A 
ATOM      6  C14 UNL     1      15.579   3.662  19.906  0.00  0.00    +0.010 A 
ATOM      7  C15 UNL     1      14.930   2.566  20.541  0.00  0.00    -0.016 A 
ATOM      8  C21 UNL     1      13.609   2.727  21.027  0.00  0.00    +0.020 A 
ATOM      9  C22 UNL     1      12.994   3.967  20.858  0.00  0.00    +0.030 A 
ATOM     10  H9  UNL     1      13.039   7.019  19.815  0.00  0.00    +0.189 HD
ENDROOT
BRANCH   1  17
ATOM     11  C6  UNL     1       8.713   5.786  24.273  0.00  0.00    +0.072 A 
ATOM     12  C7  UNL     1       7.830   4.739  24.675  0.00  0.00    +0.030 A 
ATOM     13  C8  UNL     1       7.951   3.456  24.110  0.00  0.00    +0.031 A 
ATOM     14  C9  UNL     1       8.954   3.270  23.171  0.00  0.00    +0.085 A 
ATOM     15  N1  UNL     1       9.293   2.163  22.491  0.00  0.00    -0.275 N 
ATOM     16  N2  UNL     1      10.328   2.453  21.705  0.00  0.00    -0.169 NA
ATOM     17  C10 UNL     1      10.653   3.759  21.888  0.00  0.00    +0.139 A 
ATOM     18  C23 UNL     1       9.784   4.283  22.817  0.00  0.00    +0.118 A 
ATOM     19  N7  UNL     1       9.689   5.527  23.345  0.00  0.00    -0.243 NA
ATOM     20  H8  UNL     1       8.838   1.225  22.552  0.00  0.00    +0.189 HD
BRANCH  11  24
ATOM     21  C2  UNL     1       8.445   9.728  25.996  0.00  0.00    +0.120 A 
ATOM     22  C3  UNL     1       8.209   8.584  26.780  0.00  0.00    +0.046 A 
ATOM     23  C4  UNL     1       8.298   7.309  26.214  0.00  0.00    +0.013 A 
ATOM     24  C5  UNL     1       8.615   7.149  24.853  0.00  0.00    +0.001 A 
ATOM     25  C24 UNL     1       8.861   8.297  24.077  0.00  0.00    +0.013 A 
ATOM     26  C25 UNL     1       8.773   9.571  24.646  0.00  0.00    +0.046 A 
BRANCH  21  28
ATOM     27  C1  UNL     1       8.210  11.332  27.899  0.00  0.00    +0.277 C 
ATOM     28  O1  UNL     1       8.368  11.028  26.517  0.00  0.00    -0.495 OA
ENDBRANCH  21  28
ENDBRANCH  11  24
ENDBRANCH   1  17
BRANCH   7  29
ATOM     29  C16 UNL     1      15.630   1.265  20.694  0.00  0.00    +0.002 A 
ATOM     30  C17 UNL     1      15.890   0.732  21.968  0.00  0.00    +0.119 A 
ATOM     31  N5  UNL     1      16.529  -0.461  22.097  0.00  0.00    -0.261 NA
ATOM     32  C18 UNL     1      16.938  -1.176  21.016  0.00  0.00    +0.133 A 
ATOM     33  C19 UNL     1      16.705  -0.692  19.725  0.00  0.00    +0.043 A 
ATOM     34  C20 UNL     1      16.047   0.534  19.568  0.00  0.00    +0.034 A 
BRANCH  33  35
ATOM     35  N6  UNL     1      17.136  -1.436  18.582  0.00  0.00    -0.357 N 
ATOM     36  H14 UNL     1      16.847  -1.151  17.619  0.00  0.00    +0.142 HD
ATOM     37  H15 UNL     1      17.746  -2.277  18.692  0.00  0.00    +0.142 HD
ENDBRANCH  33  35
ENDBRANCH   7  29
TORSDOF 5
ENDMDL
