REMARK  Name = /home/qwerty/github/datacon2025hack/step_04_hit_selection/docking/ligands/lig_629.pdb
REMARK  7 active torsions:
REMARK  status: ('A' for Active; 'I' for Inactive)
REMARK    1  A    between atoms: C1_1  and  N1_2
REMARK    2  A    between atoms: N1_2  and  C2_3
REMARK    3  A    between atoms: N1_2  and  C3_4
REMARK    4  A    between atoms: C6_7  and  C7_8
REMARK    5  A    between atoms: C11_14  and  C12_15
REMARK    6  A    between atoms: C16_21  and  C17_22
REMARK    7  A    between atoms: C20_26  and  N7_27
REMARK                            x       y       z     vdW  Elec       q    Type
REMARK                         _______ _______ _______ _____ _____    ______ ____
ROOT
ATOM      1  C7  UNL     1       2.395   1.906   0.476  0.00  0.00    +0.009 A 
ATOM      2  C8  UNL     1       2.374   3.318   0.426  0.00  0.00    +0.120 A 
ATOM      3  N2  UNL     1       1.198   4.006   0.568  0.00  0.00    -0.261 NA
ATOM      4  C9  UNL     1       0.004   3.371   0.752  0.00  0.00    +0.137 A 
ATOM      5  C10 UNL     1      -0.002   1.981   0.789  0.00  0.00    +0.066 A 
ATOM      6  N3  UNL     1      -1.062   1.172   0.938  0.00  0.00    -0.352 N 
ATOM      7  C11 UNL     1      -0.567  -0.087   0.882  0.00  0.00    +0.068 A 
ATOM      8  C24 UNL     1       0.815  -0.070   0.714  0.00  0.00    +0.038 A 
ATOM      9  C25 UNL     1       1.159   1.268   0.657  0.00  0.00    +0.011 A 
ATOM     10  H11 UNL     1      -2.048   1.467   1.108  0.00  0.00    +0.166 HD
ENDROOT
BRANCH   7  11
ATOM     11  C12 UNL     1      -1.370  -1.312   1.034  0.00  0.00    +0.116 A 
ATOM     12  N4  UNL     1      -0.869  -2.474   1.521  0.00  0.00    -0.171 NA
ATOM     13  N5  UNL     1      -1.845  -3.374   1.544  0.00  0.00    -0.276 N 
ATOM     14  C13 UNL     1      -2.962  -2.802   1.068  0.00  0.00    +0.066 A 
ATOM     15  C14 UNL     1      -4.210  -3.385   0.882  0.00  0.00    +0.028 A 
ATOM     16  C15 UNL     1      -5.225  -2.593   0.316  0.00  0.00    +0.010 A 
ATOM     17  C16 UNL     1      -4.971  -1.248  -0.067  0.00  0.00    -0.016 A 
ATOM     18  C22 UNL     1      -3.682  -0.698   0.136  0.00  0.00    +0.020 A 
ATOM     19  C23 UNL     1      -2.709  -1.503   0.729  0.00  0.00    +0.029 A 
ATOM     20  H12 UNL     1      -1.735  -4.359   1.869  0.00  0.00    +0.189 HD
BRANCH  17  21
ATOM     21  C17 UNL     1      -6.044  -0.427  -0.686  0.00  0.00    +0.002 A 
ATOM     22  C18 UNL     1      -6.937  -0.988  -1.615  0.00  0.00    +0.119 A 
ATOM     23  N6  UNL     1      -7.912  -0.226  -2.177  0.00  0.00    -0.261 NA
ATOM     24  C19 UNL     1      -8.063   1.088  -1.868  0.00  0.00    +0.133 A 
ATOM     25  C20 UNL     1      -7.202   1.697  -0.949  0.00  0.00    +0.043 A 
ATOM     26  C21 UNL     1      -6.189   0.932  -0.359  0.00  0.00    +0.034 A 
BRANCH  25  27
ATOM     27  N7  UNL     1      -7.356   3.079  -0.616  0.00  0.00    -0.357 N 
ATOM     28  H17 UNL     1      -8.111   3.653  -1.054  0.00  0.00    +0.142 HD
ATOM     29  H18 UNL     1      -6.717   3.538   0.070  0.00  0.00    +0.142 HD
ENDBRANCH  25  27
ENDBRANCH  17  21
ENDBRANCH   7  11
BRANCH   1  33
ATOM     30  C3  UNL     1       6.112  -0.249   0.093  0.00  0.00    +0.029 A 
ATOM     31  C4  UNL     1       5.211  -0.541   1.138  0.00  0.00    +0.024 A 
ATOM     32  C5  UNL     1       4.007   0.157   1.262  0.00  0.00    +0.010 A 
ATOM     33  C6  UNL     1       3.666   1.159   0.342  0.00  0.00    -0.016 A 
ATOM     34  C26 UNL     1       4.560   1.465  -0.694  0.00  0.00    +0.010 A 
ATOM     35  C27 UNL     1       5.765   0.769  -0.820  0.00  0.00    +0.024 A 
BRANCH  30  37
ATOM     36  C1  UNL     1       8.479  -0.405  -0.802  0.00  0.00    +0.129 C 
ATOM     37  N1  UNL     1       7.363  -0.974  -0.038  0.00  0.00    -0.336 N 
ATOM     38  C2  UNL     1       7.532  -2.289   0.592  0.00  0.00    +0.129 C 
ENDBRANCH  30  37
ENDBRANCH   1  33
TORSDOF 5
