REMARK  Name = /home/qwerty/github/datacon2025hack/step_04_hit_selection/docking/ligands/lig_734.pdb
REMARK  5 active torsions:
REMARK  status: ('A' for Active; 'I' for Inactive)
REMARK    1  A    between atoms: C1_1  and  O1_2
REMARK    2  A    between atoms: O1_2  and  C2_3
REMARK    3  A    between atoms: C7_9  and  C8_10
REMARK    4  A    between atoms: C8_10  and  N1_11
REMARK    5  A    between atoms: C12_18  and  C13_19
REMARK                            x       y       z     vdW  Elec       q    Type
REMARK                         _______ _______ _______ _____ _____    ______ ____
ROOT
ATOM      1  N1  UNL     1       0.674  -0.640  -0.332  0.00  0.00    -0.295 NA
ATOM      2  C9  UNL     1      -0.280  -1.748  -0.591  0.00  0.00    +0.103 C 
ATOM      3  C10 UNL     1      -1.694  -1.457  -0.070  0.00  0.00    +0.122 C 
ATOM      4  N2  UNL     1      -2.192  -0.184  -0.606  0.00  0.00    -0.306 N 
ATOM      5  C11 UNL     1      -3.601   0.109  -0.599  0.00  0.00    +0.184 A 
ATOM      6  N3  UNL     1      -4.143   1.187  -1.210  0.00  0.00    -0.126 NA
ATOM      7  N4  UNL     1      -5.465   1.265  -1.065  0.00  0.00    -0.136 NA
ATOM      8  C12 UNL     1      -5.988   0.244  -0.350  0.00  0.00    +0.206 A 
ATOM      9  S1  UNL     1      -4.785  -0.813   0.176  0.00  0.00    -0.027 S 
ATOM     10  C14 UNL     1      -1.235   0.771  -1.173  0.00  0.00    +0.122 C 
ATOM     11  C15 UNL     1       0.069   0.718  -0.370  0.00  0.00    +0.103 C 
ENDROOT
BRANCH   8  12
ATOM     12  C13 UNL     1      -7.433   0.145   0.016  0.00  0.00    +0.443 C 
ATOM     13  F2  UNL     1      -7.626   0.685   1.274  0.00  0.00    -0.164 F 
ATOM     14  F3  UNL     1      -7.828  -1.180   0.023  0.00  0.00    -0.164 F 
ATOM     15  F4  UNL     1      -8.203   0.838  -0.900  0.00  0.00    -0.164 F 
ENDBRANCH   8  12
BRANCH   1  16
ATOM     16  C8  UNL     1       1.438  -0.862   0.915  0.00  0.00    +0.123 C 
BRANCH  16  23
ATOM     17  C2  UNL     1       3.694  -0.038   0.102  0.00  0.00    +0.125 A 
ATOM     18  C3  UNL     1       4.770   0.868   0.192  0.00  0.00    +0.049 A 
ATOM     19  C4  UNL     1       4.766   1.876   1.159  0.00  0.00    +0.042 A 
ATOM     20  C5  UNL     1       3.693   1.995   2.044  0.00  0.00    +0.124 A 
ATOM     21  F1  UNL     1       3.691   2.977   2.978  0.00  0.00    -0.205 F 
ATOM     22  C6  UNL     1       2.621   1.103   1.966  0.00  0.00    +0.046 A 
ATOM     23  C7  UNL     1       2.614   0.081   1.002  0.00  0.00    +0.011 A 
BRANCH  17  25
ATOM     24  C1  UNL     1       4.679  -1.280  -1.837  0.00  0.00    +0.277 C 
ATOM     25  O1  UNL     1       3.664  -1.058  -0.863  0.00  0.00    -0.495 OA
ENDBRANCH  17  25
ENDBRANCH  16  23
ENDBRANCH   1  16
TORSDOF 4
