REMARK  Name = /home/qwerty/github/datacon2025hack/step_04_hit_selection/docking/ligands/lig_610.pdb
REMARK  6 active torsions:
REMARK  status: ('A' for Active; 'I' for Inactive)
REMARK    1  A    between atoms: C1_1  and  C2_2
REMARK    2  A    between atoms: C5_5  and  C6_6
REMARK    3  A    between atoms: C9_11  and  N2_12
REMARK    4  A    between atoms: N2_12  and  C10_13
REMARK    5  A    between atoms: C13_17  and  C14_18
REMARK    6  A    between atoms: C16_25  and  C17_26
REMARK                            x       y       z     vdW  Elec       q    Type
REMARK                         _______ _______ _______ _____ _____    ______ ____
ROOT
ATOM      1  C6  UNL     1      -2.971  -1.616   0.522  0.00  0.00    +0.282 C 
ATOM      2  O1  UNL     1      -2.916  -2.648   1.245  0.00  0.00    -0.267 OA
ATOM      3  N1  UNL     1      -1.800  -0.797   0.351  0.00  0.00    -0.292 N 
ATOM      4  C7  UNL     1      -1.275  -0.687  -1.022  0.00  0.00    +0.110 C 
ATOM      5  C8  UNL     1       0.194  -0.261  -1.041  0.00  0.00    +0.041 C 
ATOM      6  C9  UNL     1       0.367   1.018  -0.214  0.00  0.00    +0.075 C 
ATOM      7  C15 UNL     1      -0.182   0.901   1.229  0.00  0.00    +0.044 C 
ATOM      8  C16 UNL     1      -0.965  -0.408   1.512  0.00  0.00    +0.075 C 
ATOM      9  C17 UNL     1      -1.798  -0.219   2.795  0.00  0.00    +0.028 C 
ENDROOT
BRANCH   1  14
ATOM     10  C1  UNL     1      -6.198   0.881  -2.208  0.00  0.00    +0.086 C 
ATOM     11  C2  UNL     1      -5.633  -0.185  -1.333  0.00  0.00    +0.103 A 
ATOM     12  C3  UNL     1      -6.295  -1.325  -0.920  0.00  0.00    +0.045 A 
ATOM     13  C4  UNL     1      -5.386  -2.028  -0.157  0.00  0.00    +0.055 A 
ATOM     14  C5  UNL     1      -4.227  -1.274  -0.162  0.00  0.00    +0.190 A 
ATOM     15  O2  UNL     1      -4.404  -0.183  -0.872  0.00  0.00    -0.455 OA
ENDBRANCH   1  14
BRANCH   6  16
ATOM     16  N2  UNL     1       1.754   1.508  -0.246  0.00  0.00    -0.325 N 
ATOM     17  H11 UNL     1       1.901   2.442  -0.693  0.00  0.00    +0.148 HD
BRANCH  16  18
ATOM     18  C10 UNL     1       2.944   0.798   0.149  0.00  0.00    +0.138 A 
ATOM     19  C11 UNL     1       2.917  -0.367   0.934  0.00  0.00    +0.154 A 
ATOM     20  N3  UNL     1       4.083  -0.975   1.274  0.00  0.00    -0.258 NA
ATOM     21  C12 UNL     1       5.283  -0.480   0.876  0.00  0.00    +0.142 A 
ATOM     22  C13 UNL     1       5.323   0.686   0.103  0.00  0.00    +0.131 A 
ATOM     23  N8  UNL     1       4.153   1.291  -0.235  0.00  0.00    -0.226 NA
BRANCH  22  24
ATOM     24  C14 UNL     1       6.599   1.264  -0.347  0.00  0.00    +0.224 A 
ATOM     25  N4  UNL     1       6.699   2.385  -1.090  0.00  0.00    -0.106 NA
ATOM     26  N5  UNL     1       7.998   2.556  -1.273  0.00  0.00    -0.048 NA
ATOM     27  N6  UNL     1       8.653   1.581  -0.667  0.00  0.00    -0.176 N 
ATOM     28  N7  UNL     1       7.814   0.750  -0.073  0.00  0.00    -0.131 NA
ATOM     29  H14 UNL     1       9.691   1.482  -0.656  0.00  0.00    +0.214 HD
ENDBRANCH  22  24
ENDBRANCH  16  18
ENDBRANCH   6  16
TORSDOF 4
