MODEL 1
REMARK VINA RESULT:    -7.082      0.000      0.000
REMARK INTER + INTRA:          -8.735
REMARK INTER:                  -8.324
REMARK INTRA:                  -0.411
REMARK UNBOUND:                -0.411
REMARK  Name = /home/qwerty/github/datacon2025hack/step_04_hit_selection/docking/ligands/lig_343.pdb
REMARK  4 active torsions:
REMARK  status: ('A' for Active; 'I' for Inactive)
REMARK    1  A    between atoms: C1_1  and  C2_2
REMARK    2  A    between atoms: C4_4  and  C5_5
REMARK    3  A    between atoms: C8_10  and  N2_11
REMARK    4  A    between atoms: C9_12  and  C10_14
REMARK                            x       y       z     vdW  Elec       q    Type
REMARK                         _______ _______ _______ _____ _____    ______ ____
ROOT
ATOM      1  C5  UNL     1      15.635  10.872  35.726  0.00  0.00    +0.267 C 
ATOM      2  O1  UNL     1      15.744  10.862  34.469  0.00  0.00    -0.268 OA
ATOM      3  N1  UNL     1      16.783  10.537  36.531  0.00  0.00    -0.294 N 
ATOM      4  C6  UNL     1      16.762  10.286  37.964  0.00  0.00    +0.110 C 
ATOM      5  C7  UNL     1      18.129   9.706  38.298  0.00  0.00    +0.043 C 
ATOM      6  C8  UNL     1      19.039  10.135  37.143  0.00  0.00    +0.092 C 
ATOM      7  C18 UNL     1      18.101  10.328  35.954  0.00  0.00    +0.130 C 
ENDROOT
BRANCH   1  11
ATOM      8  C1  UNL     1      10.910  10.702  37.442  0.00  0.00    +0.065 C 
ATOM      9  C2  UNL     1      12.286  11.149  37.071  0.00  0.00    +0.034 A 
ATOM     10  C3  UNL     1      13.278  10.358  36.535  0.00  0.00    +0.057 A 
ATOM     11  C4  UNL     1      14.328  11.235  36.315  0.00  0.00    +0.147 A 
ATOM     12  N4  UNL     1      13.963  12.479  36.687  0.00  0.00    -0.169 NA
ATOM     13  N5  UNL     1      12.723  12.418  37.141  0.00  0.00    -0.281 N 
ATOM     14  H19 UNL     1      12.185  13.242  37.490  0.00  0.00    +0.189 HD
ENDBRANCH   1  11
BRANCH   6  15
ATOM     15  N2  UNL     1      20.082   9.144  36.856  0.00  0.00    -0.307 N 
ATOM     16  C9  UNL     1      21.217   9.464  36.031  0.00  0.00    +0.244 C 
ATOM     17  O2  UNL     1      21.407  10.659  35.673  0.00  0.00    -0.270 OA
ATOM     18  H10 UNL     1      20.052   8.217  37.335  0.00  0.00    +0.149 HD
BRANCH  16  19
ATOM     19  C10 UNL     1      22.180   8.417  35.610  0.00  0.00    +0.037 A 
ATOM     20  C11 UNL     1      22.433   7.281  36.426  0.00  0.00    +0.015 A 
ATOM     21  C12 UNL     1      23.345   6.290  36.020  0.00  0.00    +0.027 A 
ATOM     22  C13 UNL     1      23.981   6.453  34.793  0.00  0.00    +0.046 A 
ATOM     23  N3  UNL     1      24.872   5.628  34.220  0.00  0.00    -0.361 N 
ATOM     24  C14 UNL     1      25.196   6.199  33.036  0.00  0.00    +0.083 A 
ATOM     25  C15 UNL     1      24.504   7.393  32.859  0.00  0.00    +0.027 A 
ATOM     26  C16 UNL     1      23.734   7.534  33.993  0.00  0.00    +0.000 A 
ATOM     27  C17 UNL     1      22.840   8.536  34.363  0.00  0.00    +0.023 A 
ATOM     28  H13 UNL     1      25.240   4.729  34.603  0.00  0.00    +0.165 HD
ENDBRANCH  16  19
ENDBRANCH   6  15
TORSDOF 3
ENDMDL
MODEL 2
REMARK VINA RESULT:    -6.775      9.117     12.495
REMARK INTER + INTRA:          -8.374
REMARK INTER:                  -7.958
REMARK INTRA:                  -0.416
REMARK UNBOUND:                -0.411
REMARK  Name = /home/qwerty/github/datacon2025hack/step_04_hit_selection/docking/ligands/lig_343.pdb
REMARK  4 active torsions:
REMARK  status: ('A' for Active; 'I' for Inactive)
REMARK    1  A    between atoms: C1_1  and  C2_2
REMARK    2  A    between atoms: C4_4  and  C5_5
REMARK    3  A    between atoms: C8_10  and  N2_11
REMARK    4  A    between atoms: C9_12  and  C10_14
REMARK                            x       y       z     vdW  Elec       q    Type
REMARK                         _______ _______ _______ _____ _____    ______ ____
ROOT
ATOM      1  C5  UNL     1      21.470   0.761  29.253  0.00  0.00    +0.267 C 
ATOM      2  O1  UNL     1      22.142  -0.275  29.511  0.00  0.00    -0.268 OA
ATOM      3  N1  UNL     1      20.626   1.321  30.279  0.00  0.00    -0.294 N 
ATOM      4  C6  UNL     1      19.631   2.363  30.075  0.00  0.00    +0.110 C 
ATOM      5  C7  UNL     1      18.822   2.414  31.363  0.00  0.00    +0.043 C 
ATOM      6  C8  UNL     1      19.716   1.765  32.424  0.00  0.00    +0.092 C 
ATOM      7  C18 UNL     1      20.630   0.824  31.645  0.00  0.00    +0.130 C 
ENDROOT
BRANCH   1  11
ATOM      8  C1  UNL     1      22.726   3.717  25.382  0.00  0.00    +0.065 C 
ATOM      9  C2  UNL     1      22.146   2.632  26.229  0.00  0.00    +0.034 A 
ATOM     10  C3  UNL     1      22.388   2.435  27.571  0.00  0.00    +0.057 A 
ATOM     11  C4  UNL     1      21.584   1.356  27.904  0.00  0.00    +0.147 A 
ATOM     12  N4  UNL     1      20.893   0.954  26.818  0.00  0.00    -0.169 NA
ATOM     13  N5  UNL     1      21.238   1.735  25.808  0.00  0.00    -0.281 N 
ATOM     14  H19 UNL     1      20.848   1.652  24.842  0.00  0.00    +0.189 HD
ENDBRANCH   1  11
BRANCH   6  15
ATOM     15  N2  UNL     1      18.943   1.050  33.445  0.00  0.00    -0.307 N 
ATOM     16  C9  UNL     1      18.386   1.733  34.582  0.00  0.00    +0.244 C 
ATOM     17  O2  UNL     1      18.424   2.994  34.629  0.00  0.00    -0.270 OA
ATOM     18  H10 UNL     1      18.711   0.043  33.298  0.00  0.00    +0.149 HD
BRANCH  16  19
ATOM     19  C10 UNL     1      17.749   0.984  35.693  0.00  0.00    +0.037 A 
ATOM     20  C11 UNL     1      17.884   1.415  37.041  0.00  0.00    +0.015 A 
ATOM     21  C12 UNL     1      17.274   0.702  38.090  0.00  0.00    +0.027 A 
ATOM     22  C13 UNL     1      16.531  -0.429  37.764  0.00  0.00    +0.046 A 
ATOM     23  N3  UNL     1      15.868  -1.239  38.605  0.00  0.00    -0.361 N 
ATOM     24  C14 UNL     1      15.291  -2.185  37.827  0.00  0.00    +0.083 A 
ATOM     25  C15 UNL     1      15.591  -1.970  36.486  0.00  0.00    +0.027 A 
ATOM     26  C16 UNL     1      16.382  -0.843  36.470  0.00  0.00    +0.000 A 
ATOM     27  C17 UNL     1      16.972  -0.165  35.407  0.00  0.00    +0.023 A 
ATOM     28  H13 UNL     1      15.805  -1.159  39.644  0.00  0.00    +0.165 HD
ENDBRANCH  16  19
ENDBRANCH   6  15
TORSDOF 3
ENDMDL
MODEL 3
REMARK VINA RESULT:    -6.647     10.634     13.747
REMARK INTER + INTRA:          -8.224
REMARK INTER:                  -7.797
REMARK INTRA:                  -0.428
REMARK UNBOUND:                -0.411
REMARK  Name = /home/qwerty/github/datacon2025hack/step_04_hit_selection/docking/ligands/lig_343.pdb
REMARK  4 active torsions:
REMARK  status: ('A' for Active; 'I' for Inactive)
REMARK    1  A    between atoms: C1_1  and  C2_2
REMARK    2  A    between atoms: C4_4  and  C5_5
REMARK    3  A    between atoms: C8_10  and  N2_11
REMARK    4  A    between atoms: C9_12  and  C10_14
REMARK                            x       y       z     vdW  Elec       q    Type
REMARK                         _______ _______ _______ _____ _____    ______ ____
ROOT
ATOM      1  C5  UNL     1      22.379   1.779  28.685  0.00  0.00    +0.267 C 
ATOM      2  O1  UNL     1      23.445   1.167  28.401  0.00  0.00    -0.268 OA
ATOM      3  N1  UNL     1      21.743   2.583  27.671  0.00  0.00    -0.294 N 
ATOM      4  C6  UNL     1      20.650   3.516  27.900  0.00  0.00    +0.110 C 
ATOM      5  C7  UNL     1      20.517   4.315  26.611  0.00  0.00    +0.043 C 
ATOM      6  C8  UNL     1      21.189   3.455  25.536  0.00  0.00    +0.092 C 
ATOM      7  C18 UNL     1      22.203   2.601  26.292  0.00  0.00    +0.130 C 
ENDROOT
BRANCH   1  11
ATOM      8  C1  UNL     1      19.693   0.276  32.663  0.00  0.00    +0.065 C 
ATOM      9  C2  UNL     1      20.672   0.968  31.771  0.00  0.00    +0.034 A 
ATOM     10  C3  UNL     1      20.879   0.703  30.436  0.00  0.00    +0.057 A 
ATOM     11  C4  UNL     1      21.828   1.636  30.049  0.00  0.00    +0.147 A 
ATOM     12  N4  UNL     1      22.146   2.419  31.100  0.00  0.00    -0.169 NA
ATOM     13  N5  UNL     1      21.438   2.009  32.139  0.00  0.00    -0.281 N 
ATOM     14  H19 UNL     1      21.481   2.445  33.088  0.00  0.00    +0.189 HD
ENDBRANCH   1  11
BRANCH   6  15
ATOM     15  N2  UNL     1      21.830   4.264  24.494  0.00  0.00    -0.307 N 
ATOM     16  C9  UNL     1      21.090   4.756  23.362  0.00  0.00    +0.244 C 
ATOM     17  O2  UNL     1      19.835   4.628  23.338  0.00  0.00    -0.270 OA
ATOM     18  H10 UNL     1      22.820   4.570  24.621  0.00  0.00    +0.149 HD
BRANCH  16  19
ATOM     19  C10 UNL     1      21.773   5.430  22.232  0.00  0.00    +0.037 A 
ATOM     20  C11 UNL     1      21.371   5.199  20.888  0.00  0.00    +0.015 A 
ATOM     21  C12 UNL     1      22.020   5.845  19.819  0.00  0.00    +0.027 A 
ATOM     22  C13 UNL     1      23.059   6.720  20.121  0.00  0.00    +0.046 A 
ATOM     23  N3  UNL     1      23.798   7.437  19.259  0.00  0.00    -0.361 N 
ATOM     24  C14 UNL     1      24.669   8.143  20.018  0.00  0.00    +0.083 A 
ATOM     25  C15 UNL     1      24.478   7.871  21.369  0.00  0.00    +0.027 A 
ATOM     26  C16 UNL     1      23.445   6.961  21.411  0.00  0.00    +0.000 A 
ATOM     27  C17 UNL     1      22.827   6.339  22.493  0.00  0.00    +0.023 A 
ATOM     28  H13 UNL     1      23.720   7.452  18.218  0.00  0.00    +0.165 HD
ENDBRANCH  16  19
ENDBRANCH   6  15
TORSDOF 3
ENDMDL
MODEL 4
REMARK VINA RESULT:    -6.601      2.330     10.030
REMARK INTER + INTRA:          -8.170
REMARK INTER:                  -7.743
REMARK INTRA:                  -0.427
REMARK UNBOUND:                -0.411
REMARK  Name = /home/qwerty/github/datacon2025hack/step_04_hit_selection/docking/ligands/lig_343.pdb
REMARK  4 active torsions:
REMARK  status: ('A' for Active; 'I' for Inactive)
REMARK    1  A    between atoms: C1_1  and  C2_2
REMARK    2  A    between atoms: C4_4  and  C5_5
REMARK    3  A    between atoms: C8_10  and  N2_11
REMARK    4  A    between atoms: C9_12  and  C10_14
REMARK                            x       y       z     vdW  Elec       q    Type
REMARK                         _______ _______ _______ _____ _____    ______ ____
ROOT
ATOM      1  C5  UNL     1      20.318   8.635  35.147  0.00  0.00    +0.267 C 
ATOM      2  O1  UNL     1      19.417   7.774  34.952  0.00  0.00    -0.268 OA
ATOM      3  N1  UNL     1      19.944   9.944  35.620  0.00  0.00    -0.294 N 
ATOM      4  C6  UNL     1      20.825  11.101  35.677  0.00  0.00    +0.110 C 
ATOM      5  C7  UNL     1      19.920  12.290  35.970  0.00  0.00    +0.043 C 
ATOM      6  C8  UNL     1      18.649  11.686  36.577  0.00  0.00    +0.092 C 
ATOM      7  C18 UNL     1      18.584  10.266  36.020  0.00  0.00    +0.130 C 
ENDROOT
BRANCH   1  11
ATOM      8  C1  UNL     1      24.738   7.779  32.902  0.00  0.00    +0.065 C 
ATOM      9  C2  UNL     1      23.639   7.902  33.907  0.00  0.00    +0.034 A 
ATOM     10  C3  UNL     1      22.380   8.409  33.673  0.00  0.00    +0.057 A 
ATOM     11  C4  UNL     1      21.723   8.255  34.883  0.00  0.00    +0.147 A 
ATOM     12  N4  UNL     1      22.548   7.670  35.775  0.00  0.00    -0.169 NA
ATOM     13  N5  UNL     1      23.707   7.457  35.174  0.00  0.00    -0.281 N 
ATOM     14  H19 UNL     1      24.531   7.007  35.631  0.00  0.00    +0.189 HD
ENDBRANCH   1  11
BRANCH   6  15
ATOM     15  N2  UNL     1      17.448  12.457  36.239  0.00  0.00    -0.307 N 
ATOM     16  C9  UNL     1      16.222  12.300  36.976  0.00  0.00    +0.244 C 
ATOM     17  O2  UNL     1      16.215  11.606  38.030  0.00  0.00    -0.270 OA
ATOM     18  H10 UNL     1      17.507  13.203  35.512  0.00  0.00    +0.149 HD
BRANCH  16  19
ATOM     19  C10 UNL     1      14.968  12.956  36.530  0.00  0.00    +0.037 A 
ATOM     20  C11 UNL     1      14.994  14.210  35.862  0.00  0.00    +0.015 A 
ATOM     21  C12 UNL     1      13.802  14.826  35.438  0.00  0.00    +0.027 A 
ATOM     22  C13 UNL     1      12.602  14.164  35.685  0.00  0.00    +0.046 A 
ATOM     23  N3  UNL     1      11.364  14.570  35.359  0.00  0.00    -0.361 N 
ATOM     24  C14 UNL     1      10.531  13.595  35.792  0.00  0.00    +0.083 A 
ATOM     25  C15 UNL     1      11.247  12.566  36.394  0.00  0.00    +0.027 A 
ATOM     26  C16 UNL     1      12.567  12.951  36.314  0.00  0.00    +0.000 A 
ATOM     27  C17 UNL     1      13.726  12.313  36.749  0.00  0.00    +0.023 A 
ATOM     28  H13 UNL     1      11.095  15.453  34.872  0.00  0.00    +0.165 HD
ENDBRANCH  16  19
ENDBRANCH   6  15
TORSDOF 3
ENDMDL
MODEL 5
REMARK VINA RESULT:    -6.557      9.748     13.255
REMARK INTER + INTRA:          -8.118
REMARK INTER:                  -7.785
REMARK INTRA:                  -0.333
REMARK UNBOUND:                -0.411
REMARK  Name = /home/qwerty/github/datacon2025hack/step_04_hit_selection/docking/ligands/lig_343.pdb
REMARK  4 active torsions:
REMARK  status: ('A' for Active; 'I' for Inactive)
REMARK    1  A    between atoms: C1_1  and  C2_2
REMARK    2  A    between atoms: C4_4  and  C5_5
REMARK    3  A    between atoms: C8_10  and  N2_11
REMARK    4  A    between atoms: C9_12  and  C10_14
REMARK                            x       y       z     vdW  Elec       q    Type
REMARK                         _______ _______ _______ _____ _____    ______ ____
ROOT
ATOM      1  C5  UNL     1      20.210   4.204  23.325  0.00  0.00    +0.267 C 
ATOM      2  O1  UNL     1      19.152   3.525  23.423  0.00  0.00    -0.268 OA
ATOM      3  N1  UNL     1      21.211   4.094  24.357  0.00  0.00    -0.294 N 
ATOM      4  C6  UNL     1      22.367   4.965  24.505  0.00  0.00    +0.110 C 
ATOM      5  C7  UNL     1      22.954   4.638  25.871  0.00  0.00    +0.043 C 
ATOM      6  C8  UNL     1      22.419   3.243  26.213  0.00  0.00    +0.092 C 
ATOM      7  C18 UNL     1      21.112   3.122  25.434  0.00  0.00    +0.130 C 
ENDROOT
BRANCH   1  11
ATOM      8  C1  UNL     1      21.668   6.106  18.902  0.00  0.00    +0.065 C 
ATOM      9  C2  UNL     1      21.000   5.890  20.221  0.00  0.00    +0.034 A 
ATOM     10  C3  UNL     1      21.132   4.779  21.024  0.00  0.00    +0.057 A 
ATOM     11  C4  UNL     1      20.376   5.080  22.146  0.00  0.00    +0.147 A 
ATOM     12  N4  UNL     1      19.844   6.313  22.015  0.00  0.00    -0.169 NA
ATOM     13  N5  UNL     1      20.230   6.797  20.846  0.00  0.00    -0.281 N 
ATOM     14  H19 UNL     1      19.968   7.743  20.488  0.00  0.00    +0.189 HD
ENDBRANCH   1  11
BRANCH   6  15
ATOM     15  N2  UNL     1      22.211   3.064  27.654  0.00  0.00    -0.307 N 
ATOM     16  C9  UNL     1      21.830   1.791  28.206  0.00  0.00    +0.244 C 
ATOM     17  O2  UNL     1      21.826   0.769  27.465  0.00  0.00    -0.270 OA
ATOM     18  H10 UNL     1      22.434   3.849  28.305  0.00  0.00    +0.149 HD
BRANCH  16  19
ATOM     19  C10 UNL     1      21.461   1.652  29.636  0.00  0.00    +0.037 A 
ATOM     20  C11 UNL     1      20.713   0.535  30.096  0.00  0.00    +0.015 A 
ATOM     21  C12 UNL     1      20.368   0.407  31.454  0.00  0.00    +0.027 A 
ATOM     22  C13 UNL     1      20.792   1.402  32.330  0.00  0.00    +0.046 A 
ATOM     23  N3  UNL     1      20.579   1.467  33.655  0.00  0.00    -0.361 N 
ATOM     24  C14 UNL     1      21.188   2.602  34.070  0.00  0.00    +0.083 A 
ATOM     25  C15 UNL     1      21.790   3.259  33.001  0.00  0.00    +0.027 A 
ATOM     26  C16 UNL     1      21.525   2.474  31.901  0.00  0.00    +0.000 A 
ATOM     27  C17 UNL     1      21.882   2.634  30.565  0.00  0.00    +0.023 A 
ATOM     28  H13 UNL     1      20.055   0.785  34.246  0.00  0.00    +0.165 HD
ENDBRANCH  16  19
ENDBRANCH   6  15
TORSDOF 3
ENDMDL
MODEL 6
REMARK VINA RESULT:    -6.546     11.520     14.043
REMARK INTER + INTRA:          -8.106
REMARK INTER:                  -7.810
REMARK INTRA:                  -0.295
REMARK UNBOUND:                -0.411
REMARK  Name = /home/qwerty/github/datacon2025hack/step_04_hit_selection/docking/ligands/lig_343.pdb
REMARK  4 active torsions:
REMARK  status: ('A' for Active; 'I' for Inactive)
REMARK    1  A    between atoms: C1_1  and  C2_2
REMARK    2  A    between atoms: C4_4  and  C5_5
REMARK    3  A    between atoms: C8_10  and  N2_11
REMARK    4  A    between atoms: C9_12  and  C10_14
REMARK                            x       y       z     vdW  Elec       q    Type
REMARK                         _______ _______ _______ _____ _____    ______ ____
ROOT
ATOM      1  C5  UNL     1      17.519  -0.638  23.929  0.00  0.00    +0.267 C 
ATOM      2  O1  UNL     1      17.124  -1.626  24.606  0.00  0.00    -0.268 OA
ATOM      3  N1  UNL     1      18.473   0.273  24.512  0.00  0.00    -0.294 N 
ATOM      4  C6  UNL     1      18.852   1.564  23.957  0.00  0.00    +0.110 C 
ATOM      5  C7  UNL     1      19.653   2.260  25.049  0.00  0.00    +0.043 C 
ATOM      6  C8  UNL     1      20.132   1.135  25.972  0.00  0.00    +0.092 C 
ATOM      7  C18 UNL     1      19.108   0.017  25.795  0.00  0.00    +0.130 C 
ENDROOT
BRANCH   1  11
ATOM      8  C1  UNL     1      15.034   1.088  19.912  0.00  0.00    +0.065 C 
ATOM      9  C2  UNL     1      15.918   0.300  20.822  0.00  0.00    +0.034 A 
ATOM     10  C3  UNL     1      16.165   0.575  22.149  0.00  0.00    +0.057 A 
ATOM     11  C4  UNL     1      16.985  -0.464  22.562  0.00  0.00    +0.147 A 
ATOM     12  N4  UNL     1      17.192  -1.313  21.534  0.00  0.00    -0.169 NA
ATOM     13  N5  UNL     1      16.539  -0.844  20.484  0.00  0.00    -0.281 N 
ATOM     14  H19 UNL     1      16.519  -1.309  19.550  0.00  0.00    +0.189 HD
ENDBRANCH   1  11
BRANCH   6  15
ATOM     15  N2  UNL     1      20.230   1.564  27.371  0.00  0.00    -0.307 N 
ATOM     16  C9  UNL     1      21.133   0.927  28.292  0.00  0.00    +0.244 C 
ATOM     17  O2  UNL     1      21.972   0.089  27.860  0.00  0.00    -0.270 OA
ATOM     18  H10 UNL     1      19.704   2.410  27.684  0.00  0.00    +0.149 HD
BRANCH  16  19
ATOM     19  C10 UNL     1      21.111   1.251  29.739  0.00  0.00    +0.037 A 
ATOM     20  C11 UNL     1      20.415   0.427  30.666  0.00  0.00    +0.015 A 
ATOM     21  C12 UNL     1      20.400   0.738  32.038  0.00  0.00    +0.027 A 
ATOM     22  C13 UNL     1      21.095   1.869  32.458  0.00  0.00    +0.046 A 
ATOM     23  N3  UNL     1      21.213   2.335  33.712  0.00  0.00    -0.361 N 
ATOM     24  C14 UNL     1      21.986   3.442  33.622  0.00  0.00    +0.083 A 
ATOM     25  C15 UNL     1      22.360   3.677  32.303  0.00  0.00    +0.027 A 
ATOM     26  C16 UNL     1      21.780   2.660  31.578  0.00  0.00    +0.000 A 
ATOM     27  C17 UNL     1      21.815   2.385  30.213  0.00  0.00    +0.023 A 
ATOM     28  H13 UNL     1      20.799   1.929  34.580  0.00  0.00    +0.165 HD
ENDBRANCH  16  19
ENDBRANCH   6  15
TORSDOF 3
ENDMDL
MODEL 7
REMARK VINA RESULT:    -6.405      2.161      2.372
REMARK INTER + INTRA:          -7.939
REMARK INTER:                  -7.594
REMARK INTRA:                  -0.345
REMARK UNBOUND:                -0.411
REMARK  Name = /home/qwerty/github/datacon2025hack/step_04_hit_selection/docking/ligands/lig_343.pdb
REMARK  4 active torsions:
REMARK  status: ('A' for Active; 'I' for Inactive)
REMARK    1  A    between atoms: C1_1  and  C2_2
REMARK    2  A    between atoms: C4_4  and  C5_5
REMARK    3  A    between atoms: C8_10  and  N2_11
REMARK    4  A    between atoms: C9_12  and  C10_14
REMARK                            x       y       z     vdW  Elec       q    Type
REMARK                         _______ _______ _______ _____ _____    ______ ____
ROOT
ATOM      1  C5  UNL     1      16.606  13.564  35.056  0.00  0.00    +0.267 C 
ATOM      2  O1  UNL     1      17.428  14.364  34.530  0.00  0.00    -0.268 OA
ATOM      3  N1  UNL     1      17.088  12.310  35.580  0.00  0.00    -0.294 N 
ATOM      4  C6  UNL     1      16.252  11.199  36.008  0.00  0.00    +0.110 C 
ATOM      5  C7  UNL     1      17.200  10.025  36.207  0.00  0.00    +0.043 C 
ATOM      6  C8  UNL     1      18.585  10.656  36.386  0.00  0.00    +0.092 C 
ATOM      7  C18 UNL     1      18.505  11.993  35.656  0.00  0.00    +0.130 C 
ENDROOT
BRANCH   1  11
ATOM      8  C1  UNL     1      11.672  13.943  34.157  0.00  0.00    +0.065 C 
ATOM      9  C2  UNL     1      13.042  14.103  34.730  0.00  0.00    +0.034 A 
ATOM     10  C3  UNL     1      14.170  13.417  34.337  0.00  0.00    +0.057 A 
ATOM     11  C4  UNL     1      15.182  13.957  35.115  0.00  0.00    +0.147 A 
ATOM     12  N4  UNL     1      14.676  14.922  35.910  0.00  0.00    -0.169 NA
ATOM     13  N5  UNL     1      13.379  15.006  35.668  0.00  0.00    -0.281 N 
ATOM     14  H19 UNL     1      12.736  15.680  36.140  0.00  0.00    +0.189 HD
ENDBRANCH   1  11
BRANCH   6  15
ATOM     15  N2  UNL     1      19.657   9.809  35.853  0.00  0.00    -0.307 N 
ATOM     16  C9  UNL     1      20.265   8.775  36.648  0.00  0.00    +0.244 C 
ATOM     17  O2  UNL     1      19.767   8.481  37.769  0.00  0.00    -0.270 OA
ATOM     18  H10 UNL     1      19.921   9.892  34.846  0.00  0.00    +0.149 HD
BRANCH  16  19
ATOM     19  C10 UNL     1      21.455   8.034  36.164  0.00  0.00    +0.037 A 
ATOM     20  C11 UNL     1      22.160   7.140  37.017  0.00  0.00    +0.015 A 
ATOM     21  C12 UNL     1      23.287   6.437  36.552  0.00  0.00    +0.027 A 
ATOM     22  C13 UNL     1      23.681   6.637  35.232  0.00  0.00    +0.046 A 
ATOM     23  N3  UNL     1      24.714   6.064  34.594  0.00  0.00    -0.361 N 
ATOM     24  C14 UNL     1      24.689   6.558  33.334  0.00  0.00    +0.083 A 
ATOM     25  C15 UNL     1      23.632   7.449  33.175  0.00  0.00    +0.027 A 
ATOM     26  C16 UNL     1      23.002   7.483  34.399  0.00  0.00    +0.000 A 
ATOM     27  C17 UNL     1      21.885   8.197  34.825  0.00  0.00    +0.023 A 
ATOM     28  H13 UNL     1      25.397   5.377  34.984  0.00  0.00    +0.165 HD
ENDBRANCH  16  19
ENDBRANCH   6  15
TORSDOF 3
ENDMDL
MODEL 8
REMARK VINA RESULT:    -6.313     12.113     15.018
REMARK INTER + INTRA:          -7.831
REMARK INTER:                  -7.351
REMARK INTRA:                  -0.480
REMARK UNBOUND:                -0.411
REMARK  Name = /home/qwerty/github/datacon2025hack/step_04_hit_selection/docking/ligands/lig_343.pdb
REMARK  4 active torsions:
REMARK  status: ('A' for Active; 'I' for Inactive)
REMARK    1  A    between atoms: C1_1  and  C2_2
REMARK    2  A    between atoms: C4_4  and  C5_5
REMARK    3  A    between atoms: C8_10  and  N2_11
REMARK    4  A    between atoms: C9_12  and  C10_14
REMARK                            x       y       z     vdW  Elec       q    Type
REMARK                         _______ _______ _______ _____ _____    ______ ____
ROOT
ATOM      1  C5  UNL     1      21.605   2.469  28.271  0.00  0.00    +0.267 C 
ATOM      2  O1  UNL     1      22.477   2.833  27.435  0.00  0.00    -0.268 OA
ATOM      3  N1  UNL     1      20.421   1.797  27.799  0.00  0.00    -0.294 N 
ATOM      4  C6  UNL     1      19.236   1.520  28.597  0.00  0.00    +0.110 C 
ATOM      5  C7  UNL     1      18.173   1.063  27.608  0.00  0.00    +0.043 C 
ATOM      6  C8  UNL     1      18.950   0.607  26.368  0.00  0.00    +0.092 C 
ATOM      7  C18 UNL     1      20.257   1.394  26.412  0.00  0.00    +0.130 C 
ENDROOT
BRANCH   1  11
ATOM      8  C1  UNL     1      21.844   4.700  32.773  0.00  0.00    +0.065 C 
ATOM      9  C2  UNL     1      21.931   3.714  31.654  0.00  0.00    +0.034 A 
ATOM     10  C3  UNL     1      21.490   3.911  30.364  0.00  0.00    +0.057 A 
ATOM     11  C4  UNL     1      21.846   2.746  29.703  0.00  0.00    +0.147 A 
ATOM     12  N4  UNL     1      22.481   1.918  30.557  0.00  0.00    -0.169 NA
ATOM     13  N5  UNL     1      22.531   2.514  31.737  0.00  0.00    -0.281 N 
ATOM     14  H19 UNL     1      22.976   2.099  32.586  0.00  0.00    +0.189 HD
ENDBRANCH   1  11
BRANCH   6  15
ATOM     15  N2  UNL     1      18.210   0.850  25.125  0.00  0.00    -0.307 N 
ATOM     16  C9  UNL     1      17.750  -0.234  24.299  0.00  0.00    +0.244 C 
ATOM     17  O2  UNL     1      17.842  -1.419  24.722  0.00  0.00    -0.270 OA
ATOM     18  H10 UNL     1      17.929   1.825  24.881  0.00  0.00    +0.149 HD
BRANCH  16  19
ATOM     19  C10 UNL     1      17.151   0.017  22.966  0.00  0.00    +0.037 A 
ATOM     20  C11 UNL     1      17.065  -1.017  21.994  0.00  0.00    +0.015 A 
ATOM     21  C12 UNL     1      16.491  -0.775  20.731  0.00  0.00    +0.027 A 
ATOM     22  C13 UNL     1      16.005   0.504  20.471  0.00  0.00    +0.046 A 
ATOM     23  N3  UNL     1      15.419   0.939  19.344  0.00  0.00    -0.361 N 
ATOM     24  C14 UNL     1      15.109   2.238  19.568  0.00  0.00    +0.083 A 
ATOM     25  C15 UNL     1      15.501   2.625  20.846  0.00  0.00    +0.027 A 
ATOM     26  C16 UNL     1      16.070   1.501  21.404  0.00  0.00    +0.000 A 
ATOM     27  C17 UNL     1      16.632   1.299  22.662  0.00  0.00    +0.023 A 
ATOM     28  H13 UNL     1      15.237   0.393  18.473  0.00  0.00    +0.165 HD
ENDBRANCH  16  19
ENDBRANCH   6  15
TORSDOF 3
ENDMDL
MODEL 9
REMARK VINA RESULT:    -6.251      8.039     11.077
REMARK INTER + INTRA:          -7.759
REMARK INTER:                  -7.285
REMARK INTRA:                  -0.474
REMARK UNBOUND:                -0.411
REMARK  Name = /home/qwerty/github/datacon2025hack/step_04_hit_selection/docking/ligands/lig_343.pdb
REMARK  4 active torsions:
REMARK  status: ('A' for Active; 'I' for Inactive)
REMARK    1  A    between atoms: C1_1  and  C2_2
REMARK    2  A    between atoms: C4_4  and  C5_5
REMARK    3  A    between atoms: C8_10  and  N2_11
REMARK    4  A    between atoms: C9_12  and  C10_14
REMARK                            x       y       z     vdW  Elec       q    Type
REMARK                         _______ _______ _______ _____ _____    ______ ____
ROOT
ATOM      1  C5  UNL     1      19.445   2.621  26.197  0.00  0.00    +0.267 C 
ATOM      2  O1  UNL     1      19.321   3.690  25.538  0.00  0.00    -0.268 OA
ATOM      3  N1  UNL     1      19.978   2.683  27.535  0.00  0.00    -0.294 N 
ATOM      4  C6  UNL     1      20.388   1.537  28.332  0.00  0.00    +0.110 C 
ATOM      5  C7  UNL     1      21.129   2.114  29.530  0.00  0.00    +0.043 C 
ATOM      6  C8  UNL     1      20.659   3.569  29.628  0.00  0.00    +0.092 C 
ATOM      7  C18 UNL     1      20.243   3.945  28.209  0.00  0.00    +0.130 C 
ENDROOT
BRANCH   1  11
ATOM      8  C1  UNL     1      16.837  -1.459  24.840  0.00  0.00    +0.065 C 
ATOM      9  C2  UNL     1      17.888  -0.405  24.968  0.00  0.00    +0.034 A 
ATOM     10  C3  UNL     1      17.797   0.742  25.723  0.00  0.00    +0.057 A 
ATOM     11  C4  UNL     1      19.031   1.352  25.563  0.00  0.00    +0.147 A 
ATOM     12  N4  UNL     1      19.812   0.590  24.770  0.00  0.00    -0.169 NA
ATOM     13  N5  UNL     1      19.111  -0.475  24.416  0.00  0.00    -0.281 N 
ATOM     14  H19 UNL     1      19.476  -1.240  23.805  0.00  0.00    +0.189 HD
ENDBRANCH   1  11
BRANCH   6  15
ATOM     15  N2  UNL     1      21.704   4.461  30.142  0.00  0.00    -0.307 N 
ATOM     16  C9  UNL     1      21.746   4.852  31.526  0.00  0.00    +0.244 C 
ATOM     17  O2  UNL     1      20.967   4.299  32.351  0.00  0.00    -0.270 OA
ATOM     18  H10 UNL     1      22.488   4.743  29.514  0.00  0.00    +0.149 HD
BRANCH  16  19
ATOM     19  C10 UNL     1      22.701   5.880  32.005  0.00  0.00    +0.037 A 
ATOM     20  C11 UNL     1      23.514   5.649  33.148  0.00  0.00    +0.015 A 
ATOM     21  C12 UNL     1      24.422   6.627  33.597  0.00  0.00    +0.027 A 
ATOM     22  C13 UNL     1      24.503   7.818  32.881  0.00  0.00    +0.046 A 
ATOM     23  N3  UNL     1      25.302   8.868  33.133  0.00  0.00    -0.361 N 
ATOM     24  C14 UNL     1      25.034   9.775  32.165  0.00  0.00    +0.083 A 
ATOM     25  C15 UNL     1      24.060   9.295  31.295  0.00  0.00    +0.027 A 
ATOM     26  C16 UNL     1      23.737   8.044  31.772  0.00  0.00    +0.000 A 
ATOM     27  C17 UNL     1      22.827   7.102  31.301  0.00  0.00    +0.023 A 
ATOM     28  H13 UNL     1      25.991   8.967  33.911  0.00  0.00    +0.165 HD
ENDBRANCH  16  19
ENDBRANCH   6  15
TORSDOF 3
ENDMDL
