REMARK  Name = /home/qwerty/github/datacon2025hack/step_04_hit_selection/docking/ligands/lig_255.pdb
REMARK  4 active torsions:
REMARK  status: ('A' for Active; 'I' for Inactive)
REMARK    1  A    between atoms: C1_1  and  C2_2
REMARK    2  A    between atoms: C4_4  and  N1_5
REMARK    3  A    between atoms: C5_6  and  C6_8
REMARK    4  A    between atoms: C13_18  and  C14_20
REMARK                            x       y       z     vdW  Elec       q    Type
REMARK                         _______ _______ _______ _____ _____    ______ ____
ROOT
ATOM      1  C1  UNL     1       2.432   0.913   2.015  0.00  0.00    +0.028 C 
ATOM      2  C2  UNL     1       1.857   0.921   0.592  0.00  0.00    +0.075 C 
ATOM      3  C3  UNL     1       0.492   1.618   0.548  0.00  0.00    +0.046 C 
ATOM      4  C4  UNL     1      -0.356   0.781  -0.415  0.00  0.00    +0.092 C 
ATOM      5  C12 UNL     1       0.241  -0.622  -0.344  0.00  0.00    +0.130 C 
ATOM      6  N3  UNL     1       1.611  -0.435   0.104  0.00  0.00    -0.290 N 
ATOM      7  C13 UNL     1       2.565  -1.515   0.088  0.00  0.00    +0.285 C 
ATOM      8  O3  UNL     1       2.143  -2.703   0.146  0.00  0.00    -0.267 OA
ENDROOT
BRANCH   7   9
ATOM      9  C14 UNL     1       4.022  -1.270  -0.029  0.00  0.00    +0.217 C 
ATOM     10  C15 UNL     1       4.916  -2.219   0.286  0.00  0.00    +0.238 C 
ATOM     11  O4  UNL     1       6.286  -1.939   0.213  0.00  0.00    -0.492 OA
ATOM     12  C16 UNL     1       6.769  -0.602   0.072  0.00  0.00    +0.269 C 
ATOM     13  C17 UNL     1       5.848   0.179  -0.865  0.00  0.00    +0.270 C 
ATOM     14  O5  UNL     1       4.487  -0.027  -0.482  0.00  0.00    -0.481 OA
ENDBRANCH   7   9
BRANCH   4  15
ATOM     15  N1  UNL     1      -1.780   0.783  -0.057  0.00  0.00    -0.306 N 
ATOM     16  C5  UNL     1      -2.772   0.189  -0.911  0.00  0.00    +0.261 C 
ATOM     17  O1  UNL     1      -2.427  -0.327  -2.008  0.00  0.00    -0.269 OA
ATOM     18  H8  UNL     1      -2.087   1.280   0.807  0.00  0.00    +0.149 HD
BRANCH  16  19
ATOM     19  C6  UNL     1      -4.199   0.173  -0.533  0.00  0.00    +0.106 A 
ATOM     20  C7  UNL     1      -4.740   0.666   0.678  0.00  0.00    +0.079 A 
ATOM     21  C8  UNL     1      -6.077   0.412   0.527  0.00  0.00    +0.153 A 
ATOM     22  O2  UNL     1      -7.179   0.577   1.206  0.00  0.00    -0.461 OA
ATOM     23  C9  UNL     1      -8.146   0.081   0.434  0.00  0.00    +0.198 A 
ATOM     24  C10 UNL     1      -7.627  -0.415  -0.778  0.00  0.00    +0.067 A 
ATOM     25  C11 UNL     1      -6.292  -0.161  -0.632  0.00  0.00    +0.086 A 
ATOM     26  N2  UNL     1      -5.174  -0.341  -1.341  0.00  0.00    -0.348 N 
ATOM     27  H12 UNL     1      -5.077  -0.773  -2.287  0.00  0.00    +0.166 HD
ENDBRANCH  16  19
ENDBRANCH   4  15
TORSDOF 3
