REMARK  Name = /home/qwerty/github/datacon2025hack/step_04_hit_selection/docking/ligands/lig_76.pdb
REMARK  3 active torsions:
REMARK  status: ('A' for Active; 'I' for Inactive)
REMARK    1  A    between atoms: C1_1  and  C2_2
REMARK    2  A    between atoms: C5_5  and  N1_6
REMARK    3  A    between atoms: N3_16  and  C13_17
REMARK                            x       y       z     vdW  Elec       q    Type
REMARK                         _______ _______ _______ _____ _____    ______ ____
ROOT
ATOM      1  N1  UNL     1       2.469  -0.403  -1.049  0.00  0.00    -0.269 N 
ATOM      2  C6  UNL     1       1.699  -1.260  -0.187  0.00  0.00    +0.306 C 
ATOM      3  O1  UNL     1       2.071  -1.441   1.004  0.00  0.00    -0.252 OA
ATOM      4  N2  UNL     1       0.524  -1.938  -0.685  0.00  0.00    -0.285 N 
ATOM      5  C7  UNL     1      -0.093  -3.035   0.075  0.00  0.00    +0.112 C 
ATOM      6  C8  UNL     1      -1.608  -2.813   0.266  0.00  0.00    +0.055 C 
ATOM      7  C9  UNL     1      -2.288  -1.939  -0.842  0.00  0.00    +0.089 C 
ATOM      8  C10 UNL     1      -1.478  -2.078  -2.154  0.00  0.00    +0.055 C 
ATOM      9  C11 UNL     1      -0.030  -1.585  -2.000  0.00  0.00    +0.112 C 
ATOM     10  C12 UNL     1      -2.338  -0.440  -0.430  0.00  0.00    +0.149 C 
ATOM     11  N3  UNL     1      -3.327  -0.202   0.625  0.00  0.00    -0.264 N 
ATOM     12  C17 UNL     1      -4.512  -1.005   0.627  0.00  0.00    +0.246 C 
ATOM     13  O2  UNL     1      -5.558  -0.612   1.212  0.00  0.00    -0.273 OA
ATOM     14  C18 UNL     1      -4.487  -2.351  -0.025  0.00  0.00    +0.256 C 
ATOM     15  O3  UNL     1      -3.604  -2.401  -1.135  0.00  0.00    -0.362 OA
ATOM     16  H6  UNL     1       2.455  -0.604  -2.074  0.00  0.00    +0.156 HD
ENDROOT
BRANCH   1  21
ATOM     17  C1  UNL     1       6.048   3.745   0.717  0.00  0.00    +0.044 C 
ATOM     18  C2  UNL     1       5.121   2.657   0.261  0.00  0.00    -0.050 A 
ATOM     19  C3  UNL     1       5.286   2.055  -0.994  0.00  0.00    +0.005 A 
ATOM     20  C4  UNL     1       4.411   1.048  -1.413  0.00  0.00    +0.023 A 
ATOM     21  C5  UNL     1       3.358   0.628  -0.586  0.00  0.00    +0.035 A 
ATOM     22  C19 UNL     1       3.168   1.266   0.654  0.00  0.00    +0.023 A 
ATOM     23  C20 UNL     1       4.048   2.267   1.075  0.00  0.00    +0.005 A 
ENDBRANCH   1  21
BRANCH  11  24
ATOM     24  C13 UNL     1      -3.172   0.905   1.533  0.00  0.00    +0.073 A 
ATOM     25  C14 UNL     1      -3.528   0.784   2.882  0.00  0.00    +0.137 A 
ATOM     26  N4  UNL     1      -3.369   1.834   3.726  0.00  0.00    -0.242 NA
ATOM     27  C15 UNL     1      -2.862   3.015   3.284  0.00  0.00    +0.221 A 
ATOM     28  N5  UNL     1      -2.500   3.158   1.983  0.00  0.00    -0.242 NA
ATOM     29  C16 UNL     1      -2.641   2.132   1.105  0.00  0.00    +0.137 A 
ENDBRANCH  11  24
TORSDOF 2
