MODEL 1
REMARK VINA RESULT:    -6.808      0.000      0.000
REMARK INTER + INTRA:          -9.306
REMARK INTER:                  -8.797
REMARK INTRA:                  -0.509
REMARK UNBOUND:                -0.509
REMARK  Name = /home/qwerty/github/datacon2025hack/step_04_hit_selection/docking/ligands/lig_771.pdb
REMARK  8 active torsions:
REMARK  status: ('A' for Active; 'I' for Inactive)
REMARK    1  A    between atoms: C1_1  and  C2_2
REMARK    2  A    between atoms: C2_2  and  C3_3
REMARK    3  A    between atoms: C2_2  and  C4_4
REMARK    4  A    between atoms: C2_2  and  O1_5
REMARK    5  A    between atoms: O1_5  and  C5_6
REMARK    6  A    between atoms: N1_8  and  C6_9
REMARK    7  A    between atoms: N2_18  and  C14_19
REMARK    8  A    between atoms: C14_19  and  C15_20
REMARK                            x       y       z     vdW  Elec       q    Type
REMARK                         _______ _______ _______ _____ _____    ______ ____
ROOT
ATOM      1  C6  UNL     1      11.350  13.949  33.105  0.00  0.00    +0.040 A 
ATOM      2  C7  UNL     1      12.636  14.496  33.149  0.00  0.00    +0.024 A 
ATOM      3  C8  UNL     1      13.452  14.300  34.265  0.00  0.00    +0.010 A 
ATOM      4  C9  UNL     1      13.005  13.531  35.352  0.00  0.00    +0.008 A 
ATOM      5  C10 UNL     1      11.729  12.920  35.288  0.00  0.00    +0.127 A 
ATOM      6  C11 UNL     1      10.911  13.148  34.173  0.00  0.00    +0.069 A 
ATOM      7  O3  UNL     1      11.237  12.053  36.280  0.00  0.00    -0.490 OA
ATOM      8  C12 UNL     1      12.003  11.425  37.311  0.00  0.00    +0.244 C 
ATOM      9  C13 UNL     1      13.382  10.987  36.795  0.00  0.00    +0.126 C 
ATOM     10  N2  UNL     1      14.400  12.070  36.824  0.00  0.00    -0.291 NA
ATOM     11  C23 UNL     1      13.871  13.433  36.585  0.00  0.00    +0.123 C 
ENDROOT
BRANCH   1  14
ATOM     12  C5  UNL     1      10.553  13.319  30.779  0.00  0.00    +0.405 C 
ATOM     13  O2  UNL     1      11.150  12.209  30.804  0.00  0.00    -0.226 OA
ATOM     14  N1  UNL     1      10.534  14.158  31.940  0.00  0.00    -0.251 N 
ATOM     15  H10 UNL     1       9.820  14.922  31.967  0.00  0.00    +0.158 HD
BRANCH  12  16
ATOM     16  O1  UNL     1       9.858  13.737  29.634  0.00  0.00    -0.444 OA
BRANCH  16  18
ATOM     17  C1  UNL     1       8.446  11.756  29.354  0.00  0.00    +0.055 C 
ATOM     18  C2  UNL     1       8.561  13.286  29.214  0.00  0.00    +0.107 C 
ATOM     19  C3  UNL     1       7.454  13.989  30.023  0.00  0.00    +0.055 C 
ATOM     20  C4  UNL     1       8.406  13.661  27.733  0.00  0.00    +0.055 C 
ENDBRANCH  16  18
ENDBRANCH  12  16
ENDBRANCH   1  14
BRANCH  10  21
ATOM     21  C14 UNL     1      15.529  11.771  35.917  0.00  0.00    +0.120 C 
BRANCH  21  22
ATOM     22  C15 UNL     1      16.428  10.715  36.507  0.00  0.00    -0.030 A 
ATOM     23  C16 UNL     1      16.861  10.810  37.842  0.00  0.00    +0.009 A 
ATOM     24  C17 UNL     1      17.711   9.839  38.380  0.00  0.00    +0.050 A 
ATOM     25  C18 UNL     1      18.134   8.769  37.587  0.00  0.00    +0.162 A 
ATOM     26  C19 UNL     1      17.735   8.687  36.246  0.00  0.00    +0.162 A 
ATOM     27  C20 UNL     1      16.875   9.649  35.710  0.00  0.00    +0.054 A 
ATOM     28  O4  UNL     1      18.212   7.634  35.459  0.00  0.00    -0.485 OA
ATOM     29  C21 UNL     1      19.296   6.812  35.902  0.00  0.00    +0.270 C 
ATOM     30  C22 UNL     1      19.178   6.546  37.409  0.00  0.00    +0.270 C 
ATOM     31  O5  UNL     1      18.960   7.771  38.114  0.00  0.00    -0.485 OA
ENDBRANCH  21  22
ENDBRANCH  10  21
TORSDOF 5
ENDMDL
MODEL 2
REMARK VINA RESULT:    -6.792      6.748     12.293
REMARK INTER + INTRA:          -9.286
REMARK INTER:                  -8.722
REMARK INTRA:                  -0.564
REMARK UNBOUND:                -0.509
REMARK  Name = /home/qwerty/github/datacon2025hack/step_04_hit_selection/docking/ligands/lig_771.pdb
REMARK  8 active torsions:
REMARK  status: ('A' for Active; 'I' for Inactive)
REMARK    1  A    between atoms: C1_1  and  C2_2
REMARK    2  A    between atoms: C2_2  and  C3_3
REMARK    3  A    between atoms: C2_2  and  C4_4
REMARK    4  A    between atoms: C2_2  and  O1_5
REMARK    5  A    between atoms: O1_5  and  C5_6
REMARK    6  A    between atoms: N1_8  and  C6_9
REMARK    7  A    between atoms: N2_18  and  C14_19
REMARK    8  A    between atoms: C14_19  and  C15_20
REMARK                            x       y       z     vdW  Elec       q    Type
REMARK                         _______ _______ _______ _____ _____    ______ ____
ROOT
ATOM      1  C6  UNL     1      22.699   4.200  32.664  0.00  0.00    +0.040 A 
ATOM      2  C7  UNL     1      21.568   4.539  33.413  0.00  0.00    +0.024 A 
ATOM      3  C8  UNL     1      21.475   5.787  34.032  0.00  0.00    +0.010 A 
ATOM      4  C9  UNL     1      22.504   6.732  33.893  0.00  0.00    +0.008 A 
ATOM      5  C10 UNL     1      23.624   6.421  33.083  0.00  0.00    +0.127 A 
ATOM      6  C11 UNL     1      23.715   5.155  32.492  0.00  0.00    +0.069 A 
ATOM      7  O3  UNL     1      24.653   7.339  32.803  0.00  0.00    -0.490 OA
ATOM      8  C12 UNL     1      24.608   8.752  33.013  0.00  0.00    +0.244 C 
ATOM      9  C13 UNL     1      23.221   9.323  32.679  0.00  0.00    +0.126 C 
ATOM     10  N2  UNL     1      22.249   9.217  33.798  0.00  0.00    -0.291 NA
ATOM     11  C23 UNL     1      22.418   8.028  34.665  0.00  0.00    +0.123 C 
ENDROOT
BRANCH   1  14
ATOM     12  C5  UNL     1      22.094   2.576  30.809  0.00  0.00    +0.405 C 
ATOM     13  O2  UNL     1      21.567   3.477  30.104  0.00  0.00    -0.226 OA
ATOM     14  N1  UNL     1      22.765   2.911  32.031  0.00  0.00    -0.251 N 
ATOM     15  H10 UNL     1      23.407   2.193  32.437  0.00  0.00    +0.158 HD
BRANCH  12  16
ATOM     16  O1  UNL     1      22.077   1.234  30.396  0.00  0.00    -0.444 OA
BRANCH  16  18
ATOM     17  C1  UNL     1      22.487  -0.823  29.134  0.00  0.00    +0.055 C 
ATOM     18  C2  UNL     1      22.664   0.706  29.197  0.00  0.00    +0.107 C 
ATOM     19  C3  UNL     1      22.049   1.375  27.953  0.00  0.00    +0.055 C 
ATOM     20  C4  UNL     1      24.164   1.031  29.244  0.00  0.00    +0.055 C 
ENDBRANCH  16  18
ENDBRANCH  12  16
ENDBRANCH   1  14
BRANCH  10  21
ATOM     21  C14 UNL     1      20.856   9.328  33.313  0.00  0.00    +0.120 C 
BRANCH  21  22
ATOM     22  C15 UNL     1      20.032  10.188  34.237  0.00  0.00    -0.030 A 
ATOM     23  C16 UNL     1      20.453  11.487  34.569  0.00  0.00    +0.009 A 
ATOM     24  C17 UNL     1      19.696  12.274  35.442  0.00  0.00    +0.050 A 
ATOM     25  C18 UNL     1      18.516  11.765  35.991  0.00  0.00    +0.162 A 
ATOM     26  C19 UNL     1      18.109  10.458  35.693  0.00  0.00    +0.162 A 
ATOM     27  C20 UNL     1      18.856   9.674  34.809  0.00  0.00    +0.054 A 
ATOM     28  O4  UNL     1      16.951   9.954  36.293  0.00  0.00    -0.485 OA
ATOM     29  C21 UNL     1      16.338  10.626  37.396  0.00  0.00    +0.270 C 
ATOM     30  C22 UNL     1      16.401  12.146  37.192  0.00  0.00    +0.270 C 
ATOM     31  O5  UNL     1      17.729  12.545  36.844  0.00  0.00    -0.485 OA
ENDBRANCH  21  22
ENDBRANCH  10  21
TORSDOF 5
ENDMDL
MODEL 3
REMARK VINA RESULT:    -6.688      9.105     13.624
REMARK INTER + INTRA:          -9.152
REMARK INTER:                  -8.585
REMARK INTRA:                  -0.567
REMARK UNBOUND:                -0.509
REMARK  Name = /home/qwerty/github/datacon2025hack/step_04_hit_selection/docking/ligands/lig_771.pdb
REMARK  8 active torsions:
REMARK  status: ('A' for Active; 'I' for Inactive)
REMARK    1  A    between atoms: C1_1  and  C2_2
REMARK    2  A    between atoms: C2_2  and  C3_3
REMARK    3  A    between atoms: C2_2  and  C4_4
REMARK    4  A    between atoms: C2_2  and  O1_5
REMARK    5  A    between atoms: O1_5  and  C5_6
REMARK    6  A    between atoms: N1_8  and  C6_9
REMARK    7  A    between atoms: N2_18  and  C14_19
REMARK    8  A    between atoms: C14_19  and  C15_20
REMARK                            x       y       z     vdW  Elec       q    Type
REMARK                         _______ _______ _______ _____ _____    ______ ____
ROOT
ATOM      1  C6  UNL     1       7.931   9.646  25.499  0.00  0.00    +0.040 A 
ATOM      2  C7  UNL     1       8.309   8.328  25.777  0.00  0.00    +0.024 A 
ATOM      3  C8  UNL     1       8.651   7.455  24.743  0.00  0.00    +0.010 A 
ATOM      4  C9  UNL     1       8.645   7.891  23.408  0.00  0.00    +0.008 A 
ATOM      5  C10 UNL     1       8.326   9.241  23.123  0.00  0.00    +0.127 A 
ATOM      6  C11 UNL     1       7.958  10.097  24.168  0.00  0.00    +0.069 A 
ATOM      7  O3  UNL     1       8.392   9.794  21.831  0.00  0.00    -0.490 OA
ATOM      8  C12 UNL     1       9.046   9.220  20.697  0.00  0.00    +0.244 C 
ATOM      9  C13 UNL     1      10.361   8.534  21.096  0.00  0.00    +0.126 C 
ATOM     10  N2  UNL     1      10.182   7.142  21.584  0.00  0.00    -0.291 NA
ATOM     11  C23 UNL     1       8.915   6.890  22.309  0.00  0.00    +0.123 C 
ENDROOT
BRANCH   1  14
ATOM     12  C5  UNL     1       8.550  11.232  27.382  0.00  0.00    +0.405 C 
ATOM     13  O2  UNL     1       9.760  11.278  27.032  0.00  0.00    -0.226 OA
ATOM     14  N1  UNL     1       7.591  10.526  26.583  0.00  0.00    -0.251 N 
ATOM     15  H10 UNL     1       6.581  10.734  26.754  0.00  0.00    +0.158 HD
BRANCH  12  16
ATOM     16  O1  UNL     1       8.106  11.904  28.530  0.00  0.00    -0.444 OA
BRANCH  16  18
ATOM     17  C1  UNL     1       7.896  14.116  27.503  0.00  0.00    +0.055 C 
ATOM     18  C2  UNL     1       8.203  13.314  28.782  0.00  0.00    +0.107 C 
ATOM     19  C3  UNL     1       7.254  13.729  29.923  0.00  0.00    +0.055 C 
ATOM     20  C4  UNL     1       9.649  13.601  29.212  0.00  0.00    +0.055 C 
ENDBRANCH  16  18
ENDBRANCH  12  16
ENDBRANCH   1  14
BRANCH  10  21
ATOM     21  C14 UNL     1      11.348   6.695  22.378  0.00  0.00    +0.120 C 
BRANCH  21  22
ATOM     22  C15 UNL     1      12.021   5.515  21.727  0.00  0.00    -0.030 A 
ATOM     23  C16 UNL     1      12.489   5.600  20.403  0.00  0.00    +0.009 A 
ATOM     24  C17 UNL     1      13.095   4.496  19.796  0.00  0.00    +0.050 A 
ATOM     25  C18 UNL     1      13.233   3.300  20.506  0.00  0.00    +0.162 A 
ATOM     26  C19 UNL     1      12.737   3.197  21.812  0.00  0.00    +0.162 A 
ATOM     27  C20 UNL     1      12.144   4.304  22.427  0.00  0.00    +0.054 A 
ATOM     28  O4  UNL     1      12.843   1.976  22.485  0.00  0.00    -0.485 OA
ATOM     29  C21 UNL     1      13.187   0.776  21.787  0.00  0.00    +0.270 C 
ATOM     30  C22 UNL     1      14.251   1.068  20.720  0.00  0.00    +0.270 C 
ATOM     31  O5  UNL     1      13.862   2.193  19.928  0.00  0.00    -0.485 OA
ENDBRANCH  21  22
ENDBRANCH  10  21
TORSDOF 5
ENDMDL
MODEL 4
REMARK VINA RESULT:    -6.641      3.415      6.515
REMARK INTER + INTRA:          -9.091
REMARK INTER:                  -8.494
REMARK INTRA:                  -0.597
REMARK UNBOUND:                -0.509
REMARK  Name = /home/qwerty/github/datacon2025hack/step_04_hit_selection/docking/ligands/lig_771.pdb
REMARK  8 active torsions:
REMARK  status: ('A' for Active; 'I' for Inactive)
REMARK    1  A    between atoms: C1_1  and  C2_2
REMARK    2  A    between atoms: C2_2  and  C3_3
REMARK    3  A    between atoms: C2_2  and  C4_4
REMARK    4  A    between atoms: C2_2  and  O1_5
REMARK    5  A    between atoms: O1_5  and  C5_6
REMARK    6  A    between atoms: N1_8  and  C6_9
REMARK    7  A    between atoms: N2_18  and  C14_19
REMARK    8  A    between atoms: C14_19  and  C15_20
REMARK                            x       y       z     vdW  Elec       q    Type
REMARK                         _______ _______ _______ _____ _____    ______ ____
ROOT
ATOM      1  C6  UNL     1      15.307  11.127  36.894  0.00  0.00    +0.040 A 
ATOM      2  C7  UNL     1      16.283  11.284  37.884  0.00  0.00    +0.024 A 
ATOM      3  C8  UNL     1      17.172  10.247  38.173  0.00  0.00    +0.010 A 
ATOM      4  C9  UNL     1      17.118   9.038  37.460  0.00  0.00    +0.008 A 
ATOM      5  C10 UNL     1      16.175   8.895  36.413  0.00  0.00    +0.127 A 
ATOM      6  C11 UNL     1      15.272   9.934  36.153  0.00  0.00    +0.069 A 
ATOM      7  O3  UNL     1      16.113   7.764  35.579  0.00  0.00    -0.490 OA
ATOM      8  C12 UNL     1      17.118   6.757  35.441  0.00  0.00    +0.244 C 
ATOM      9  C13 UNL     1      18.528   7.365  35.482  0.00  0.00    +0.126 C 
ATOM     10  N2  UNL     1      19.049   7.569  36.859  0.00  0.00    -0.291 NA
ATOM     11  C23 UNL     1      18.023   7.902  37.874  0.00  0.00    +0.123 C 
ENDROOT
BRANCH   1  14
ATOM     12  C5  UNL     1      12.994  12.169  36.823  0.00  0.00    +0.405 C 
ATOM     13  O2  UNL     1      12.478  11.225  37.479  0.00  0.00    -0.226 OA
ATOM     14  N1  UNL     1      14.410  12.214  36.610  0.00  0.00    -0.251 N 
ATOM     15  H10 UNL     1      14.820  13.126  36.307  0.00  0.00    +0.158 HD
BRANCH  12  16
ATOM     16  O1  UNL     1      12.204  13.218  36.326  0.00  0.00    -0.444 OA
BRANCH  16  18
ATOM     17  C1  UNL     1      12.585  14.043  34.053  0.00  0.00    +0.055 C 
ATOM     18  C2  UNL     1      11.633  13.303  35.012  0.00  0.00    +0.107 C 
ATOM     19  C3  UNL     1      11.304  11.897  34.472  0.00  0.00    +0.055 C 
ATOM     20  C4  UNL     1      10.329  14.104  35.133  0.00  0.00    +0.055 C 
ENDBRANCH  16  18
ENDBRANCH  12  16
ENDBRANCH   1  14
BRANCH  10  21
ATOM     21  C14 UNL     1      20.154   8.552  36.877  0.00  0.00    +0.120 C 
BRANCH  21  22
ATOM     22  C15 UNL     1      21.389   7.984  36.227  0.00  0.00    -0.030 A 
ATOM     23  C16 UNL     1      22.075   6.906  36.815  0.00  0.00    +0.009 A 
ATOM     24  C17 UNL     1      23.232   6.395  36.219  0.00  0.00    +0.050 A 
ATOM     25  C18 UNL     1      23.711   6.960  35.034  0.00  0.00    +0.162 A 
ATOM     26  C19 UNL     1      23.053   8.057  34.461  0.00  0.00    +0.162 A 
ATOM     27  C20 UNL     1      21.888   8.561  35.047  0.00  0.00    +0.054 A 
ATOM     28  O4  UNL     1      23.580   8.636  33.303  0.00  0.00    -0.485 OA
ATOM     29  C21 UNL     1      24.901   8.320  32.854  0.00  0.00    +0.270 C 
ATOM     30  C22 UNL     1      25.192   6.829  33.071  0.00  0.00    +0.270 C 
ATOM     31  O5  UNL     1      24.850   6.446  34.406  0.00  0.00    -0.485 OA
ENDBRANCH  21  22
ENDBRANCH  10  21
TORSDOF 5
ENDMDL
MODEL 5
REMARK VINA RESULT:    -6.570      6.061     11.718
REMARK INTER + INTRA:          -8.999
REMARK INTER:                  -8.305
REMARK INTRA:                  -0.694
REMARK UNBOUND:                -0.509
REMARK  Name = /home/qwerty/github/datacon2025hack/step_04_hit_selection/docking/ligands/lig_771.pdb
REMARK  8 active torsions:
REMARK  status: ('A' for Active; 'I' for Inactive)
REMARK    1  A    between atoms: C1_1  and  C2_2
REMARK    2  A    between atoms: C2_2  and  C3_3
REMARK    3  A    between atoms: C2_2  and  C4_4
REMARK    4  A    between atoms: C2_2  and  O1_5
REMARK    5  A    between atoms: O1_5  and  C5_6
REMARK    6  A    between atoms: N1_8  and  C6_9
REMARK    7  A    between atoms: N2_18  and  C14_19
REMARK    8  A    between atoms: C14_19  and  C15_20
REMARK                            x       y       z     vdW  Elec       q    Type
REMARK                         _______ _______ _______ _____ _____    ______ ____
ROOT
ATOM      1  C6  UNL     1      21.622   4.285  32.410  0.00  0.00    +0.040 A 
ATOM      2  C7  UNL     1      20.341   4.846  32.414  0.00  0.00    +0.024 A 
ATOM      3  C8  UNL     1      19.949   5.711  33.437  0.00  0.00    +0.010 A 
ATOM      4  C9  UNL     1      20.841   6.052  34.467  0.00  0.00    +0.008 A 
ATOM      5  C10 UNL     1      22.161   5.540  34.436  0.00  0.00    +0.127 A 
ATOM      6  C11 UNL     1      22.531   4.652  33.418  0.00  0.00    +0.069 A 
ATOM      7  O3  UNL     1      23.153   5.904  35.364  0.00  0.00    -0.490 OA
ATOM      8  C12 UNL     1      23.106   7.017  36.260  0.00  0.00    +0.244 C 
ATOM      9  C13 UNL     1      22.461   8.243  35.597  0.00  0.00    +0.126 C 
ATOM     10  N2  UNL     1      20.976   8.243  35.663  0.00  0.00    -0.291 NA
ATOM     11  C23 UNL     1      20.346   6.903  35.613  0.00  0.00    +0.123 C 
ENDROOT
BRANCH   1  14
ATOM     12  C5  UNL     1      21.785   1.988  31.343  0.00  0.00    +0.405 C 
ATOM     13  O2  UNL     1      21.045   1.459  32.215  0.00  0.00    -0.226 OA
ATOM     14  N1  UNL     1      22.003   3.404  31.340  0.00  0.00    -0.251 N 
ATOM     15  H10 UNL     1      22.390   3.827  30.466  0.00  0.00    +0.158 HD
BRANCH  12  16
ATOM     16  O1  UNL     1      22.375   1.213  30.332  0.00  0.00    -0.444 OA
BRANCH  16  18
ATOM     17  C1  UNL     1      20.372   1.229  28.925  0.00  0.00    +0.055 C 
ATOM     18  C2  UNL     1      21.903   1.073  28.983  0.00  0.00    +0.107 C 
ATOM     19  C3  UNL     1      22.589   2.098  28.060  0.00  0.00    +0.055 C 
ATOM     20  C4  UNL     1      22.276  -0.342  28.516  0.00  0.00    +0.055 C 
ENDBRANCH  16  18
ENDBRANCH  12  16
ENDBRANCH   1  14
BRANCH  10  21
ATOM     21  C14 UNL     1      20.392   9.144  34.646  0.00  0.00    +0.120 C 
BRANCH  21  22
ATOM     22  C15 UNL     1      19.458  10.140  35.283  0.00  0.00    -0.030 A 
ATOM     23  C16 UNL     1      19.955  11.335  35.833  0.00  0.00    +0.009 A 
ATOM     24  C17 UNL     1      19.087  12.247  36.442  0.00  0.00    +0.050 A 
ATOM     25  C18 UNL     1      17.719  11.969  36.507  0.00  0.00    +0.162 A 
ATOM     26  C19 UNL     1      17.222  10.764  35.993  0.00  0.00    +0.162 A 
ATOM     27  C20 UNL     1      18.085   9.856  35.371  0.00  0.00    +0.054 A 
ATOM     28  O4  UNL     1      15.857  10.486  36.113  0.00  0.00    -0.485 OA
ATOM     29  C21 UNL     1      15.019  11.258  36.978  0.00  0.00    +0.270 C 
ATOM     30  C22 UNL     1      15.417  12.739  36.918  0.00  0.00    +0.270 C 
ATOM     31  O5  UNL     1      16.830  12.880  37.085  0.00  0.00    -0.485 OA
ENDBRANCH  21  22
ENDBRANCH  10  21
TORSDOF 5
ENDMDL
MODEL 6
REMARK VINA RESULT:    -6.500     13.580     17.812
REMARK INTER + INTRA:          -8.909
REMARK INTER:                  -8.087
REMARK INTRA:                  -0.822
REMARK UNBOUND:                -0.509
REMARK  Name = /home/qwerty/github/datacon2025hack/step_04_hit_selection/docking/ligands/lig_771.pdb
REMARK  8 active torsions:
REMARK  status: ('A' for Active; 'I' for Inactive)
REMARK    1  A    between atoms: C1_1  and  C2_2
REMARK    2  A    between atoms: C2_2  and  C3_3
REMARK    3  A    between atoms: C2_2  and  C4_4
REMARK    4  A    between atoms: C2_2  and  O1_5
REMARK    5  A    between atoms: O1_5  and  C5_6
REMARK    6  A    between atoms: N1_8  and  C6_9
REMARK    7  A    between atoms: N2_18  and  C14_19
REMARK    8  A    between atoms: C14_19  and  C15_20
REMARK                            x       y       z     vdW  Elec       q    Type
REMARK                         _______ _______ _______ _____ _____    ______ ____
ROOT
ATOM      1  C6  UNL     1      19.480   0.358  25.443  0.00  0.00    +0.040 A 
ATOM      2  C7  UNL     1      18.863   1.432  24.794  0.00  0.00    +0.024 A 
ATOM      3  C8  UNL     1      17.692   1.238  24.059  0.00  0.00    +0.010 A 
ATOM      4  C9  UNL     1      17.100  -0.033  23.979  0.00  0.00    +0.008 A 
ATOM      5  C10 UNL     1      17.683  -1.112  24.686  0.00  0.00    +0.127 A 
ATOM      6  C11 UNL     1      18.873  -0.908  25.397  0.00  0.00    +0.069 A 
ATOM      7  O3  UNL     1      17.108  -2.395  24.748  0.00  0.00    -0.490 OA
ATOM      8  C12 UNL     1      15.767  -2.740  24.394  0.00  0.00    +0.244 C 
ATOM      9  C13 UNL     1      14.777  -1.645  24.818  0.00  0.00    +0.126 C 
ATOM     10  N2  UNL     1      14.656  -0.538  23.834  0.00  0.00    -0.291 NA
ATOM     11  C23 UNL     1      15.897  -0.226  23.087  0.00  0.00    +0.123 C 
ENDROOT
BRANCH   1  14
ATOM     12  C5  UNL     1      20.715   1.209  27.492  0.00  0.00    +0.405 C 
ATOM     13  O2  UNL     1      19.648   1.403  28.134  0.00  0.00    -0.226 OA
ATOM     14  N1  UNL     1      20.680   0.588  26.200  0.00  0.00    -0.251 N 
ATOM     15  H10 UNL     1      21.580   0.206  25.829  0.00  0.00    +0.158 HD
BRANCH  12  16
ATOM     16  O1  UNL     1      21.960   1.553  28.041  0.00  0.00    -0.444 OA
BRANCH  16  18
ATOM     17  C1  UNL     1      22.247   1.620  30.471  0.00  0.00    +0.055 C 
ATOM     18  C2  UNL     1      22.606   0.912  29.151  0.00  0.00    +0.107 C 
ATOM     19  C3  UNL     1      22.224  -0.580  29.214  0.00  0.00    +0.055 C 
ATOM     20  C4  UNL     1      24.121   1.025  28.923  0.00  0.00    +0.055 C 
ENDBRANCH  16  18
ENDBRANCH  12  16
ENDBRANCH   1  14
BRANCH  10  21
ATOM     21  C14 UNL     1      14.091   0.678  24.458  0.00  0.00    +0.120 C 
BRANCH  21  22
ATOM     22  C15 UNL     1      13.268   1.459  23.466  0.00  0.00    -0.030 A 
ATOM     23  C16 UNL     1      12.000   0.998  23.070  0.00  0.00    +0.009 A 
ATOM     24  C17 UNL     1      11.249   1.715  22.133  0.00  0.00    +0.050 A 
ATOM     25  C18 UNL     1      11.762   2.893  21.585  0.00  0.00    +0.162 A 
ATOM     26  C19 UNL     1      13.040   3.339  21.948  0.00  0.00    +0.162 A 
ATOM     27  C20 UNL     1      13.787   2.632  22.894  0.00  0.00    +0.054 A 
ATOM     28  O4  UNL     1      13.552   4.494  21.349  0.00  0.00    -0.485 OA
ATOM     29  C21 UNL     1      12.931   5.064  20.193  0.00  0.00    +0.270 C 
ATOM     30  C22 UNL     1      11.403   4.969  20.310  0.00  0.00    +0.270 C 
ATOM     31  O5  UNL     1      11.015   3.641  20.669  0.00  0.00    -0.485 OA
ENDBRANCH  21  22
ENDBRANCH  10  21
TORSDOF 5
ENDMDL
MODEL 7
REMARK VINA RESULT:    -6.383     10.915     15.817
REMARK INTER + INTRA:          -8.758
REMARK INTER:                  -8.080
REMARK INTRA:                  -0.678
REMARK UNBOUND:                -0.509
REMARK  Name = /home/qwerty/github/datacon2025hack/step_04_hit_selection/docking/ligands/lig_771.pdb
REMARK  8 active torsions:
REMARK  status: ('A' for Active; 'I' for Inactive)
REMARK    1  A    between atoms: C1_1  and  C2_2
REMARK    2  A    between atoms: C2_2  and  C3_3
REMARK    3  A    between atoms: C2_2  and  C4_4
REMARK    4  A    between atoms: C2_2  and  O1_5
REMARK    5  A    between atoms: O1_5  and  C5_6
REMARK    6  A    between atoms: N1_8  and  C6_9
REMARK    7  A    between atoms: N2_18  and  C14_19
REMARK    8  A    between atoms: C14_19  and  C15_20
REMARK                            x       y       z     vdW  Elec       q    Type
REMARK                         _______ _______ _______ _____ _____    ______ ____
ROOT
ATOM      1  C6  UNL     1      11.895   3.043  20.682  0.00  0.00    +0.040 A 
ATOM      2  C7  UNL     1      12.379   4.297  20.292  0.00  0.00    +0.024 A 
ATOM      3  C8  UNL     1      11.543   5.415  20.309  0.00  0.00    +0.010 A 
ATOM      4  C9  UNL     1      10.211   5.307  20.740  0.00  0.00    +0.008 A 
ATOM      5  C10 UNL     1       9.733   4.054  21.197  0.00  0.00    +0.127 A 
ATOM      6  C11 UNL     1      10.574   2.936  21.148  0.00  0.00    +0.069 A 
ATOM      7  O3  UNL     1       8.448   3.871  21.741  0.00  0.00    -0.490 OA
ATOM      8  C12 UNL     1       7.563   4.900  22.189  0.00  0.00    +0.244 C 
ATOM      9  C13 UNL     1       8.329   6.029  22.894  0.00  0.00    +0.126 C 
ATOM     10  N2  UNL     1       8.888   7.042  21.960  0.00  0.00    -0.291 NA
ATOM     11  C23 UNL     1       9.308   6.514  20.641  0.00  0.00    +0.123 C 
ENDROOT
BRANCH   1  14
ATOM     12  C5  UNL     1      13.655   1.549  21.739  0.00  0.00    +0.405 C 
ATOM     13  O2  UNL     1      13.541   2.103  22.866  0.00  0.00    -0.226 OA
ATOM     14  N1  UNL     1      12.779   1.910  20.663  0.00  0.00    -0.251 N 
ATOM     15  H10 UNL     1      12.726   1.255  19.850  0.00  0.00    +0.158 HD
BRANCH  12  16
ATOM     16  O1  UNL     1      14.607   0.541  21.525  0.00  0.00    -0.444 OA
BRANCH  16  18
ATOM     17  C1  UNL     1      16.395  -0.208  20.030  0.00  0.00    +0.055 C 
ATOM     18  C2  UNL     1      15.987   0.734  21.178  0.00  0.00    +0.107 C 
ATOM     19  C3  UNL     1      16.249   2.203  20.794  0.00  0.00    +0.055 C 
ATOM     20  C4  UNL     1      16.820   0.391  22.422  0.00  0.00    +0.055 C 
ENDBRANCH  16  18
ENDBRANCH  12  16
ENDBRANCH   1  14
BRANCH  10  21
ATOM     21  C14 UNL     1       9.977   7.816  22.595  0.00  0.00    +0.120 C 
BRANCH  21  22
ATOM     22  C15 UNL     1       9.451   8.642  23.741  0.00  0.00    -0.030 A 
ATOM     23  C16 UNL     1       8.367   9.518  23.551  0.00  0.00    +0.009 A 
ATOM     24  C17 UNL     1       7.896  10.297  24.612  0.00  0.00    +0.050 A 
ATOM     25  C18 UNL     1       8.506  10.208  25.866  0.00  0.00    +0.162 A 
ATOM     26  C19 UNL     1       9.609   9.364  26.053  0.00  0.00    +0.162 A 
ATOM     27  C20 UNL     1      10.074   8.573  24.998  0.00  0.00    +0.054 A 
ATOM     28  O4  UNL     1      10.233   9.329  27.303  0.00  0.00    -0.485 OA
ATOM     29  C21 UNL     1       9.955  10.319  28.296  0.00  0.00    +0.270 C 
ATOM     30  C22 UNL     1       8.462  10.679  28.283  0.00  0.00    +0.270 C 
ATOM     31  O5  UNL     1       8.032  10.957  26.948  0.00  0.00    -0.485 OA
ENDBRANCH  21  22
ENDBRANCH  10  21
TORSDOF 5
ENDMDL
MODEL 8
REMARK VINA RESULT:    -6.368      8.892     13.984
REMARK INTER + INTRA:          -8.738
REMARK INTER:                  -7.858
REMARK INTRA:                  -0.879
REMARK UNBOUND:                -0.509
REMARK  Name = /home/qwerty/github/datacon2025hack/step_04_hit_selection/docking/ligands/lig_771.pdb
REMARK  8 active torsions:
REMARK  status: ('A' for Active; 'I' for Inactive)
REMARK    1  A    between atoms: C1_1  and  C2_2
REMARK    2  A    between atoms: C2_2  and  C3_3
REMARK    3  A    between atoms: C2_2  and  C4_4
REMARK    4  A    between atoms: C2_2  and  O1_5
REMARK    5  A    between atoms: O1_5  and  C5_6
REMARK    6  A    between atoms: N1_8  and  C6_9
REMARK    7  A    between atoms: N2_18  and  C14_19
REMARK    8  A    between atoms: C14_19  and  C15_20
REMARK                            x       y       z     vdW  Elec       q    Type
REMARK                         _______ _______ _______ _____ _____    ______ ____
ROOT
ATOM      1  C6  UNL     1      12.203   7.048  21.081  0.00  0.00    +0.040 A 
ATOM      2  C7  UNL     1      12.616   7.373  22.378  0.00  0.00    +0.024 A 
ATOM      3  C8  UNL     1      11.977   8.390  23.090  0.00  0.00    +0.010 A 
ATOM      4  C9  UNL     1      10.895   9.086  22.528  0.00  0.00    +0.008 A 
ATOM      5  C10 UNL     1      10.430   8.719  21.241  0.00  0.00    +0.127 A 
ATOM      6  C11 UNL     1      11.098   7.716  20.528  0.00  0.00    +0.069 A 
ATOM      7  O3  UNL     1       9.293   9.289  20.640  0.00  0.00    -0.490 OA
ATOM      8  C12 UNL     1       8.287  10.064  21.295  0.00  0.00    +0.244 C 
ATOM      9  C13 UNL     1       7.981   9.515  22.696  0.00  0.00    +0.126 C 
ATOM     10  N2  UNL     1       8.914  10.005  23.745  0.00  0.00    -0.291 NA
ATOM     11  C23 UNL     1      10.301  10.251  23.284  0.00  0.00    +0.123 C 
ENDROOT
BRANCH   1  14
ATOM     12  C5  UNL     1      12.547   4.601  20.498  0.00  0.00    +0.405 C 
ATOM     13  O2  UNL     1      11.494   4.245  21.093  0.00  0.00    -0.226 OA
ATOM     14  N1  UNL     1      12.873   5.991  20.373  0.00  0.00    -0.251 N 
ATOM     15  H10 UNL     1      13.589   6.252  19.658  0.00  0.00    +0.158 HD
BRANCH  12  16
ATOM     16  O1  UNL     1      13.397   3.653  19.907  0.00  0.00    -0.444 OA
BRANCH  16  18
ATOM     17  C1  UNL     1      15.656   2.717  19.796  0.00  0.00    +0.055 C 
ATOM     18  C2  UNL     1      14.341   2.815  20.591  0.00  0.00    +0.107 C 
ATOM     19  C3  UNL     1      14.605   3.345  22.014  0.00  0.00    +0.055 C 
ATOM     20  C4  UNL     1      13.716   1.416  20.692  0.00  0.00    +0.055 C 
ENDBRANCH  16  18
ENDBRANCH  12  16
ENDBRANCH   1  14
BRANCH  10  21
ATOM     21  C14 UNL     1       8.896   9.127  24.935  0.00  0.00    +0.120 C 
BRANCH  21  22
ATOM     22  C15 UNL     1       9.199   9.912  26.185  0.00  0.00    -0.030 A 
ATOM     23  C16 UNL     1      10.192   9.473  27.080  0.00  0.00    +0.009 A 
ATOM     24  C17 UNL     1      10.456  10.193  28.250  0.00  0.00    +0.050 A 
ATOM     25  C18 UNL     1       9.728  11.352  28.533  0.00  0.00    +0.162 A 
ATOM     26  C19 UNL     1       8.713  11.775  27.664  0.00  0.00    +0.162 A 
ATOM     27  C20 UNL     1       8.457  11.065  26.487  0.00  0.00    +0.054 A 
ATOM     28  O4  UNL     1       7.966  12.909  27.993  0.00  0.00    -0.485 OA
ATOM     29  C21 UNL     1       8.024  13.477  29.305  0.00  0.00    +0.270 C 
ATOM     30  C22 UNL     1       9.459  13.417  29.846  0.00  0.00    +0.270 C 
ATOM     31  O5  UNL     1       9.996  12.102  29.681  0.00  0.00    -0.485 OA
ENDBRANCH  21  22
ENDBRANCH  10  21
TORSDOF 5
ENDMDL
MODEL 9
REMARK VINA RESULT:    -6.353      9.948     14.655
REMARK INTER + INTRA:          -8.718
REMARK INTER:                  -8.173
REMARK INTRA:                  -0.545
REMARK UNBOUND:                -0.509
REMARK  Name = /home/qwerty/github/datacon2025hack/step_04_hit_selection/docking/ligands/lig_771.pdb
REMARK  8 active torsions:
REMARK  status: ('A' for Active; 'I' for Inactive)
REMARK    1  A    between atoms: C1_1  and  C2_2
REMARK    2  A    between atoms: C2_2  and  C3_3
REMARK    3  A    between atoms: C2_2  and  C4_4
REMARK    4  A    between atoms: C2_2  and  O1_5
REMARK    5  A    between atoms: O1_5  and  C5_6
REMARK    6  A    between atoms: N1_8  and  C6_9
REMARK    7  A    between atoms: N2_18  and  C14_19
REMARK    8  A    between atoms: C14_19  and  C15_20
REMARK                            x       y       z     vdW  Elec       q    Type
REMARK                         _______ _______ _______ _____ _____    ______ ____
ROOT
ATOM      1  C6  UNL     1      21.835   3.710  33.554  0.00  0.00    +0.040 A 
ATOM      2  C7  UNL     1      22.484   3.810  32.319  0.00  0.00    +0.024 A 
ATOM      3  C8  UNL     1      22.251   2.866  31.318  0.00  0.00    +0.010 A 
ATOM      4  C9  UNL     1      21.343   1.814  31.523  0.00  0.00    +0.008 A 
ATOM      5  C10 UNL     1      20.634   1.743  32.747  0.00  0.00    +0.127 A 
ATOM      6  C11 UNL     1      20.898   2.681  33.752  0.00  0.00    +0.069 A 
ATOM      7  O3  UNL     1      19.633   0.788  33.005  0.00  0.00    -0.490 OA
ATOM      8  C12 UNL     1      18.975  -0.032  32.036  0.00  0.00    +0.244 C 
ATOM      9  C13 UNL     1      18.711   0.740  30.735  0.00  0.00    +0.126 C 
ATOM     10  N2  UNL     1      19.870   0.753  29.804  0.00  0.00    -0.291 NA
ATOM     11  C23 UNL     1      21.199   0.752  30.459  0.00  0.00    +0.123 C 
ENDROOT
BRANCH   1  14
ATOM     12  C5  UNL     1      21.531   6.022  34.558  0.00  0.00    +0.405 C 
ATOM     13  O2  UNL     1      20.607   6.320  33.754  0.00  0.00    -0.226 OA
ATOM     14  N1  UNL     1      22.087   4.701  34.565  0.00  0.00    -0.251 N 
ATOM     15  H10 UNL     1      22.643   4.420  35.404  0.00  0.00    +0.158 HD
BRANCH  12  16
ATOM     16  O1  UNL     1      22.005   6.957  35.491  0.00  0.00    -0.444 OA
BRANCH  16  18
ATOM     17  C1  UNL     1      21.086   8.884  36.689  0.00  0.00    +0.055 C 
ATOM     18  C2  UNL     1      21.342   7.365  36.698  0.00  0.00    +0.107 C 
ATOM     19  C3  UNL     1      20.021   6.593  36.879  0.00  0.00    +0.055 C 
ATOM     20  C4  UNL     1      22.278   7.026  37.867  0.00  0.00    +0.055 C 
ENDBRANCH  16  18
ENDBRANCH  12  16
ENDBRANCH   1  14
BRANCH  10  21
ATOM     21  C14 UNL     1      19.761   1.855  28.824  0.00  0.00    +0.120 C 
BRANCH  21  22
ATOM     22  C15 UNL     1      19.365   1.330  27.468  0.00  0.00    -0.030 A 
ATOM     23  C16 UNL     1      20.333   1.137  26.466  0.00  0.00    +0.009 A 
ATOM     24  C17 UNL     1      19.958   0.669  25.203  0.00  0.00    +0.050 A 
ATOM     25  C18 UNL     1      18.615   0.394  24.933  0.00  0.00    +0.162 A 
ATOM     26  C19 UNL     1      17.641   0.618  25.915  0.00  0.00    +0.162 A 
ATOM     27  C20 UNL     1      18.014   1.072  27.183  0.00  0.00    +0.054 A 
ATOM     28  O4  UNL     1      16.298   0.382  25.606  0.00  0.00    -0.485 OA
ATOM     29  C21 UNL     1      15.874   0.190  24.253  0.00  0.00    +0.270 C 
ATOM     30  C22 UNL     1      16.912  -0.639  23.485  0.00  0.00    +0.270 C 
ATOM     31  O5  UNL     1      18.222  -0.102  23.686  0.00  0.00    -0.485 OA
ENDBRANCH  21  22
ENDBRANCH  10  21
TORSDOF 5
ENDMDL
