REMARK  Name = /home/qwerty/github/datacon2025hack/step_04_hit_selection/docking/ligands/lig_239.pdb
REMARK  8 active torsions:
REMARK  status: ('A' for Active; 'I' for Inactive)
REMARK    1  A    between atoms: C1_1  and  C2_2
REMARK    2  A    between atoms: C2_2  and  O1_3
REMARK    3  A    between atoms: C2_2  and  C3_4
REMARK    4  A    between atoms: C3_4  and  N1_5
REMARK    5  A    between atoms: C6_8  and  N2_9
REMARK    6  A    between atoms: N2_9  and  C7_10
REMARK    7  A    between atoms: C8_11  and  C9_13
REMARK    8  A    between atoms: C17_21  and  O3_22
REMARK                            x       y       z     vdW  Elec       q    Type
REMARK                         _______ _______ _______ _____ _____    ______ ____
ROOT
ATOM      1  N2  UNL     1      -0.138  -0.333  -1.699  0.00  0.00    -0.295 N 
ATOM      2  C7  UNL     1       0.482   0.270  -2.883  0.00  0.00    +0.132 C 
ATOM      3  C8  UNL     1       0.679  -1.037  -0.736  0.00  0.00    +0.265 C 
ATOM      4  O2  UNL     1       0.237  -2.085  -0.192  0.00  0.00    -0.268 OA
ENDROOT
BRANCH   3   5
ATOM      5  C9  UNL     1       2.014  -0.529  -0.342  0.00  0.00    +0.130 A 
ATOM      6  C10 UNL     1       2.921  -1.346   0.350  0.00  0.00    +0.041 A 
ATOM      7  C11 UNL     1       4.168  -0.833   0.727  0.00  0.00    -0.011 A 
ATOM      8  C12 UNL     1       5.093  -1.634   1.415  0.00  0.00    +0.009 A 
ATOM      9  C13 UNL     1       6.335  -1.112   1.786  0.00  0.00    +0.001 A 
ATOM     10  C14 UNL     1       6.662   0.210   1.476  0.00  0.00    +0.001 A 
ATOM     11  C15 UNL     1       5.751   1.019   0.792  0.00  0.00    +0.014 A 
ATOM     12  C16 UNL     1       4.498   0.507   0.412  0.00  0.00    +0.044 A 
ATOM     13  C17 UNL     1       3.557   1.292  -0.275  0.00  0.00    +0.221 A 
ATOM     14  N3  UNL     1       2.356   0.758  -0.624  0.00  0.00    -0.208 NA
BRANCH  13  15
ATOM     15  O3  UNL     1       3.838   2.616  -0.603  0.00  0.00    -0.492 OA
ATOM     16  H21 UNL     1       3.162   3.185  -1.098  0.00  0.00    +0.294 HD
ENDBRANCH  13  15
ENDBRANCH   3   5
BRANCH   1  20
ATOM     17  N1  UNL     1      -3.134  -0.316   0.356  0.00  0.00    -0.298 NA
ATOM     18  C4  UNL     1      -3.040  -1.644  -0.270  0.00  0.00    +0.086 C 
ATOM     19  C5  UNL     1      -2.357  -1.478  -1.618  0.00  0.00    +0.039 C 
ATOM     20  C6  UNL     1      -1.594  -0.163  -1.511  0.00  0.00    +0.091 C 
ATOM     21  C18 UNL     1      -1.952   0.412  -0.136  0.00  0.00    +0.107 C 
BRANCH  17  22
ATOM     22  C3  UNL     1      -4.398   0.377  -0.003  0.00  0.00    +0.115 C 
BRANCH  22  24
ATOM     23  C1  UNL     1      -5.106   0.541   2.428  0.00  0.00    +0.039 C 
ATOM     24  C2  UNL     1      -4.862   1.313   1.130  0.00  0.00    +0.125 C 
BRANCH  24  25
ATOM     25  O1  UNL     1      -3.918   2.324   1.366  0.00  0.00    -0.391 OA
ATOM     26  H5  UNL     1      -4.010   2.979   0.626  0.00  0.00    +0.210 HD
ENDBRANCH  24  25
ENDBRANCH  22  24
ENDBRANCH  17  22
ENDBRANCH   1  20
TORSDOF 6
