REMARK  Name = /home/qwerty/github/datacon2025hack/step_04_hit_selection/docking/ligands/lig_294.pdb
REMARK  6 active torsions:
REMARK  status: ('A' for Active; 'I' for Inactive)
REMARK    1  A    between atoms: C1_2  and  C5_7
REMARK    2  A    between atoms: N1_3  and  C2_4
REMARK    3  A    between atoms: C9_11  and  S1_12
REMARK    4  A    between atoms: S1_12  and  N2_15
REMARK    5  A    between atoms: N2_15  and  C10_16
REMARK    6  A    between atoms: C14_21  and  C15_22
REMARK                            x       y       z     vdW  Elec       q    Type
REMARK                         _______ _______ _______ _____ _____    ______ ____
ROOT
ATOM      1  S1  UNL     1      -1.126   3.278  -1.407  0.00  0.00    +0.072 S 
ATOM      2  O2  UNL     1      -2.350   3.577  -2.224  0.00  0.00    -0.150 OA
ATOM      3  O3  UNL     1      -0.265   4.509  -1.361  0.00  0.00    -0.150 OA
ENDROOT
BRANCH   1   8
ATOM      4  C5  UNL     1      -2.788   1.209   1.656  0.00  0.00    +0.039 A 
ATOM      5  C6  UNL     1      -2.396   1.967   2.774  0.00  0.00    +0.013 A 
ATOM      6  C7  UNL     1      -1.640   3.131   2.610  0.00  0.00    +0.003 A 
ATOM      7  C8  UNL     1      -1.260   3.547   1.332  0.00  0.00    +0.029 A 
ATOM      8  C9  UNL     1      -1.630   2.795   0.209  0.00  0.00    +0.109 A 
ATOM      9  C20 UNL     1      -2.390   1.629   0.373  0.00  0.00    +0.041 A 
BRANCH   4  11
ATOM     10  O1  UNL     1      -3.508  -0.660   2.928  0.00  0.00    -0.270 OA
ATOM     11  C1  UNL     1      -3.582  -0.029   1.837  0.00  0.00    +0.244 C 
ATOM     12  N1  UNL     1      -4.437  -0.517   0.793  0.00  0.00    -0.308 N 
ATOM     13  H1  UNL     1      -4.693   0.110  -0.003  0.00  0.00    +0.149 HD
BRANCH  12  14
ATOM     14  C2  UNL     1      -5.119  -1.803   0.907  0.00  0.00    +0.073 C 
ATOM     15  C3  UNL     1      -4.214  -2.988   0.613  0.00  0.00    +0.024 C 
ATOM     16  C4  UNL     1      -5.250  -2.547  -0.411  0.00  0.00    +0.024 C 
ENDBRANCH  12  14
ENDBRANCH   4  11
ENDBRANCH   1   8
BRANCH   1  17
ATOM     17  N2  UNL     1      -0.242   1.983  -2.149  0.00  0.00    -0.216 N 
ATOM     18  H10 UNL     1      -0.630   1.596  -3.039  0.00  0.00    +0.174 HD
BRANCH  17  19
ATOM     19  C10 UNL     1       0.881   1.327  -1.534  0.00  0.00    +0.049 A 
ATOM     20  C11 UNL     1       1.571   1.903  -0.437  0.00  0.00    +0.026 A 
ATOM     21  C12 UNL     1       2.668   1.248   0.148  0.00  0.00    +0.031 A 
ATOM     22  C13 UNL     1       3.072   0.020  -0.370  0.00  0.00    +0.079 A 
ATOM     23  N3  UNL     1       4.116  -0.707   0.103  0.00  0.00    -0.244 NA
ATOM     24  C14 UNL     1       4.275  -1.847  -0.612  0.00  0.00    +0.083 A 
ATOM     25  S2  UNL     1       3.117  -2.005  -1.838  0.00  0.00    -0.072 S 
ATOM     26  C18 UNL     1       2.401  -0.539  -1.444  0.00  0.00    +0.041 A 
ATOM     27  C19 UNL     1       1.312   0.086  -2.044  0.00  0.00    +0.041 A 
BRANCH  24  28
ATOM     28  C15 UNL     1       5.311  -2.878  -0.295  0.00  0.00    +0.045 C 
ATOM     29  C16 UNL     1       6.357  -3.067  -1.384  0.00  0.00    +0.011 C 
ATOM     30  C17 UNL     1       6.721  -2.340  -0.101  0.00  0.00    +0.011 C 
ENDBRANCH  24  28
ENDBRANCH  17  19
ENDBRANCH   1  17
TORSDOF 6
