REMARK  Name = /home/qwerty/github/datacon2025hack/step_04_hit_selection/docking/ligands/lig_736.pdb
REMARK  8 active torsions:
REMARK  status: ('A' for Active; 'I' for Inactive)
REMARK    1  A    between atoms: C1_1  and  C2_2
REMARK    2  A    between atoms: C2_2  and  C3_3
REMARK    3  A    between atoms: C2_2  and  C4_4
REMARK    4  A    between atoms: C2_2  and  C5_5
REMARK    5  A    between atoms: C9_14  and  C10_15
REMARK    6  A    between atoms: C13_18  and  C14_19
REMARK    7  A    between atoms: N6_23  and  C17_24
REMARK    8  A    between atoms: C17_24  and  C18_25
REMARK                            x       y       z     vdW  Elec       q    Type
REMARK                         _______ _______ _______ _____ _____    ______ ____
ROOT
ATOM      1  C5  UNL     1       4.970  -0.341  -0.997  0.00  0.00    +0.221 C 
ATOM      2  O1  UNL     1       5.219   0.408  -1.982  0.00  0.00    -0.275 OA
ATOM      3  N1  UNL     1       3.606  -0.483  -0.571  0.00  0.00    -0.298 N 
ATOM      4  C6  UNL     1       2.624  -1.043  -1.505  0.00  0.00    +0.127 C 
ATOM      5  C7  UNL     1       1.525  -0.013  -1.774  0.00  0.00    +0.127 C 
ATOM      6  N2  UNL     1       1.017   0.562  -0.521  0.00  0.00    -0.297 N 
ATOM      7  C8  UNL     1      -0.077   1.491  -0.582  0.00  0.00    +0.220 A 
ATOM      8  N3  UNL     1      -0.134   2.493  -1.479  0.00  0.00    -0.113 NA
ATOM      9  N4  UNL     1      -1.301   3.093  -1.307  0.00  0.00    -0.128 NA
ATOM     10  C9  UNL     1      -1.939   2.446  -0.311  0.00  0.00    +0.165 A 
ATOM     11  N6  UNL     1      -1.200   1.419   0.170  0.00  0.00    -0.295 N 
ATOM     12  C24 UNL     1       1.625   0.204   0.767  0.00  0.00    +0.127 C 
ATOM     13  C25 UNL     1       3.155   0.198   0.651  0.00  0.00    +0.127 C 
ENDROOT
BRANCH  10  14
ATOM     14  C10 UNL     1      -3.296   2.816   0.136  0.00  0.00    +0.019 A 
ATOM     15  C11 UNL     1      -3.580   2.983   1.501  0.00  0.00    +0.013 A 
ATOM     16  C12 UNL     1      -4.868   3.337   1.915  0.00  0.00    +0.019 A 
ATOM     17  C13 UNL     1      -5.878   3.544   0.967  0.00  0.00    +0.052 A 
ATOM     18  C15 UNL     1      -5.592   3.406  -0.397  0.00  0.00    +0.019 A 
ATOM     19  C16 UNL     1      -4.305   3.050  -0.811  0.00  0.00    +0.013 A 
BRANCH  17  20
ATOM     20  C14 UNL     1      -7.203   3.909   1.393  0.00  0.00    +0.099 C 
ATOM     21  N5  UNL     1      -8.269   4.202   1.736  0.00  0.00    -0.191 NA
ENDBRANCH  17  20
ENDBRANCH  10  14
BRANCH   1  23
ATOM     22  C1  UNL     1       5.637  -2.355   0.373  0.00  0.00    +0.020 C 
ATOM     23  C2  UNL     1       6.114  -1.034  -0.267  0.00  0.00    +0.039 C 
ATOM     24  C3  UNL     1       6.666  -0.096   0.824  0.00  0.00    +0.020 C 
ATOM     25  C4  UNL     1       7.248  -1.365  -1.262  0.00  0.00    +0.020 C 
ENDBRANCH   1  23
BRANCH  11  26
ATOM     26  C17 UNL     1      -1.643   0.304   1.022  0.00  0.00    +0.130 C 
BRANCH  26  27
ATOM     27  C18 UNL     1      -1.914  -0.970   0.191  0.00  0.00    +0.009 C 
ATOM     28  C19 UNL     1      -2.986  -0.704  -0.901  0.00  0.00    +0.005 C 
ATOM     29  C20 UNL     1      -3.676  -1.998  -1.341  0.00  0.00    +0.000 C 
ATOM     30  C21 UNL     1      -4.423  -2.670  -0.171  0.00  0.00    +0.000 C 
ATOM     31  C22 UNL     1      -3.807  -2.359   1.208  0.00  0.00    +0.000 C 
ATOM     32  C23 UNL     1      -2.289  -2.163   1.113  0.00  0.00    +0.005 C 
ENDBRANCH  26  27
ENDBRANCH  11  26
TORSDOF 5
