MODEL 1
REMARK VINA RESULT:    -6.449      0.000      0.000
REMARK INTER + INTRA:          -9.675
REMARK INTER:                  -8.711
REMARK INTRA:                  -0.964
REMARK UNBOUND:                -0.964
REMARK  Name = /home/qwerty/github/datacon2025hack/step_04_hit_selection/docking/ligands/lig_425.pdb
REMARK  7 active torsions:
REMARK  status: ('A' for Active; 'I' for Inactive)
REMARK    1  A    between atoms: C1_1  and  C2_2
REMARK    2  A    between atoms: C2_2  and  N1_3
REMARK    3  A    between atoms: C2_2  and  C10_12
REMARK    4  A    between atoms: C3_4  and  C4_6
REMARK    5  A    between atoms: N2_14  and  C11_15
REMARK    6  A    between atoms: C16_20  and  C17_21
REMARK    7  A    between atoms: C17_21  and  N3_22
REMARK                            x       y       z     vdW  Elec       q    Type
REMARK                         _______ _______ _______ _____ _____    ______ ____
ROOT
ATOM      1  C10 UNL     1      19.206  10.824  36.386  0.00  0.00    +0.237 C 
ATOM      2  O2  UNL     1      19.078  10.305  35.243  0.00  0.00    -0.273 OA
ATOM      3  N2  UNL     1      19.197  10.000  37.561  0.00  0.00    -0.284 N 
ATOM      4  H11 UNL     1      19.499  10.427  38.465  0.00  0.00    +0.155 HD
ENDROOT
BRANCH   3   5
ATOM      5  C11 UNL     1      18.784   8.623  37.546  0.00  0.00    +0.038 A 
ATOM      6  C12 UNL     1      17.413   8.310  37.528  0.00  0.00    +0.023 A 
ATOM      7  C13 UNL     1      16.986   6.981  37.554  0.00  0.00    +0.002 A 
ATOM      8  C14 UNL     1      17.919   5.948  37.606  0.00  0.00    +0.000 A 
ATOM      9  C15 UNL     1      19.284   6.239  37.635  0.00  0.00    +0.007 A 
ATOM     10  C16 UNL     1      19.734   7.571  37.607  0.00  0.00    -0.012 A 
BRANCH  10  11
ATOM     11  C17 UNL     1      21.225   7.821  37.620  0.00  0.00    +0.121 C 
BRANCH  11  12
ATOM     12  N3  UNL     1      21.830   7.430  36.331  0.00  0.00    -0.297 NA
ATOM     13  C18 UNL     1      23.134   6.762  36.523  0.00  0.00    +0.095 C 
ATOM     14  C19 UNL     1      23.524   5.962  35.269  0.00  0.00    +0.084 C 
ATOM     15  S1  UNL     1      22.771   6.602  33.722  0.00  0.00    -0.158 S 
ATOM     16  C20 UNL     1      22.846   8.352  34.219  0.00  0.00    +0.084 C 
ATOM     17  C21 UNL     1      21.964   8.616  35.452  0.00  0.00    +0.095 C 
ENDBRANCH  11  12
ENDBRANCH  10  11
ENDBRANCH   3   5
BRANCH   1  19
ATOM     18  C1  UNL     1      20.673  12.741  35.777  0.00  0.00    +0.038 C 
ATOM     19  C2  UNL     1      19.398  12.312  36.507  0.00  0.00    +0.156 C 
BRANCH  19  20
ATOM     20  N1  UNL     1      18.227  13.010  35.964  0.00  0.00    -0.300 N 
ATOM     21  C3  UNL     1      16.904  12.776  36.478  0.00  0.00    +0.245 C 
ATOM     22  O1  UNL     1      16.759  12.116  37.544  0.00  0.00    -0.270 OA
ATOM     23  H5  UNL     1      18.366  13.733  35.224  0.00  0.00    +0.150 HD
BRANCH  21  24
ATOM     24  C4  UNL     1      15.706  13.309  35.785  0.00  0.00    +0.037 A 
ATOM     25  C5  UNL     1      14.748  14.049  36.504  0.00  0.00    +0.013 A 
ATOM     26  C6  UNL     1      13.608  14.547  35.865  0.00  0.00    +0.001 A 
ATOM     27  C7  UNL     1      13.408  14.307  34.504  0.00  0.00    +0.000 A 
ATOM     28  C8  UNL     1      14.345  13.566  33.781  0.00  0.00    +0.001 A 
ATOM     29  C9  UNL     1      15.486  13.065  34.415  0.00  0.00    +0.013 A 
ENDBRANCH  21  24
ENDBRANCH  19  20
ENDBRANCH   1  19
TORSDOF 6
ENDMDL
MODEL 2
REMARK VINA RESULT:    -6.332     12.596     15.086
REMARK INTER + INTRA:          -9.517
REMARK INTER:                  -8.485
REMARK INTRA:                  -1.031
REMARK UNBOUND:                -0.964
REMARK  Name = /home/qwerty/github/datacon2025hack/step_04_hit_selection/docking/ligands/lig_425.pdb
REMARK  7 active torsions:
REMARK  status: ('A' for Active; 'I' for Inactive)
REMARK    1  A    between atoms: C1_1  and  C2_2
REMARK    2  A    between atoms: C2_2  and  N1_3
REMARK    3  A    between atoms: C2_2  and  C10_12
REMARK    4  A    between atoms: C3_4  and  C4_6
REMARK    5  A    between atoms: N2_14  and  C11_15
REMARK    6  A    between atoms: C16_20  and  C17_21
REMARK    7  A    between atoms: C17_21  and  N3_22
REMARK                            x       y       z     vdW  Elec       q    Type
REMARK                         _______ _______ _______ _____ _____    ______ ____
ROOT
ATOM      1  C10 UNL     1      18.392   0.708  26.236  0.00  0.00    +0.237 C 
ATOM      2  O2  UNL     1      18.056   1.679  26.968  0.00  0.00    -0.273 OA
ATOM      3  N2  UNL     1      19.743   0.588  25.765  0.00  0.00    -0.284 N 
ATOM      4  H11 UNL     1      20.036  -0.315  25.332  0.00  0.00    +0.155 HD
ENDROOT
BRANCH   3   5
ATOM      5  C11 UNL     1      20.700   1.657  25.860  0.00  0.00    +0.038 A 
ATOM      6  C12 UNL     1      20.815   2.580  24.805  0.00  0.00    +0.023 A 
ATOM      7  C13 UNL     1      21.764   3.602  24.854  0.00  0.00    +0.002 A 
ATOM      8  C14 UNL     1      22.617   3.712  25.951  0.00  0.00    +0.000 A 
ATOM      9  C15 UNL     1      22.524   2.800  27.003  0.00  0.00    +0.007 A 
ATOM     10  C16 UNL     1      21.573   1.764  26.973  0.00  0.00    -0.012 A 
BRANCH  10  11
ATOM     11  C17 UNL     1      21.509   0.819  28.151  0.00  0.00    +0.121 C 
BRANCH  11  12
ATOM     12  N3  UNL     1      21.129   1.544  29.380  0.00  0.00    -0.297 NA
ATOM     13  C18 UNL     1      22.191   1.470  30.405  0.00  0.00    +0.095 C 
ATOM     14  C19 UNL     1      22.008   2.576  31.458  0.00  0.00    +0.084 C 
ATOM     15  S1  UNL     1      20.272   3.148  31.633  0.00  0.00    -0.158 S 
ATOM     16  C20 UNL     1      19.533   1.512  31.328  0.00  0.00    +0.084 C 
ATOM     17  C21 UNL     1      19.846   1.019  29.905  0.00  0.00    +0.095 C 
ENDBRANCH  11  12
ENDBRANCH  10  11
ENDBRANCH   3   5
BRANCH   1  19
ATOM     18  C1  UNL     1      16.304  -0.428  26.973  0.00  0.00    +0.038 C 
ATOM     19  C2  UNL     1      17.372  -0.340  25.880  0.00  0.00    +0.156 C 
BRANCH  19  20
ATOM     20  N1  UNL     1      16.765  -0.023  24.583  0.00  0.00    -0.300 N 
ATOM     21  C3  UNL     1      16.903  -0.899  23.450  0.00  0.00    +0.245 C 
ATOM     22  O1  UNL     1      17.378  -2.056  23.614  0.00  0.00    -0.270 OA
ATOM     23  H5  UNL     1      16.173   0.833  24.496  0.00  0.00    +0.150 HD
BRANCH  21  24
ATOM     24  C4  UNL     1      16.482  -0.472  22.094  0.00  0.00    +0.037 A 
ATOM     25  C5  UNL     1      16.970  -1.150  20.960  0.00  0.00    +0.013 A 
ATOM     26  C6  UNL     1      16.591  -0.749  19.675  0.00  0.00    +0.001 A 
ATOM     27  C7  UNL     1      15.727   0.334  19.506  0.00  0.00    +0.000 A 
ATOM     28  C8  UNL     1      15.244   1.022  20.622  0.00  0.00    +0.001 A 
ATOM     29  C9  UNL     1      15.621   0.627  21.909  0.00  0.00    +0.013 A 
ENDBRANCH  21  24
ENDBRANCH  19  20
ENDBRANCH   1  19
TORSDOF 6
ENDMDL
MODEL 3
REMARK VINA RESULT:    -6.316      8.453     11.111
REMARK INTER + INTRA:          -9.495
REMARK INTER:                  -7.752
REMARK INTRA:                  -1.743
REMARK UNBOUND:                -0.964
REMARK  Name = /home/qwerty/github/datacon2025hack/step_04_hit_selection/docking/ligands/lig_425.pdb
REMARK  7 active torsions:
REMARK  status: ('A' for Active; 'I' for Inactive)
REMARK    1  A    between atoms: C1_1  and  C2_2
REMARK    2  A    between atoms: C2_2  and  N1_3
REMARK    3  A    between atoms: C2_2  and  C10_12
REMARK    4  A    between atoms: C3_4  and  C4_6
REMARK    5  A    between atoms: N2_14  and  C11_15
REMARK    6  A    between atoms: C16_20  and  C17_21
REMARK    7  A    between atoms: C17_21  and  N3_22
REMARK                            x       y       z     vdW  Elec       q    Type
REMARK                         _______ _______ _______ _____ _____    ______ ____
ROOT
ATOM      1  C10 UNL     1      11.589  14.168  29.698  0.00  0.00    +0.237 C 
ATOM      2  O2  UNL     1      12.840  14.294  29.810  0.00  0.00    -0.273 OA
ATOM      3  N2  UNL     1      10.779  13.919  30.857  0.00  0.00    -0.284 N 
ATOM      4  H11 UNL     1       9.744  14.015  30.765  0.00  0.00    +0.155 HD
ENDROOT
BRANCH   3   5
ATOM      5  C11 UNL     1      11.332  13.540  32.130  0.00  0.00    +0.038 A 
ATOM      6  C12 UNL     1      11.802  14.535  33.005  0.00  0.00    +0.023 A 
ATOM      7  C13 UNL     1      12.380  14.191  34.228  0.00  0.00    +0.002 A 
ATOM      8  C14 UNL     1      12.503  12.851  34.591  0.00  0.00    +0.000 A 
ATOM      9  C15 UNL     1      12.052  11.850  33.731  0.00  0.00    +0.007 A 
ATOM     10  C16 UNL     1      11.465  12.176  32.495  0.00  0.00    -0.012 A 
BRANCH  10  11
ATOM     11  C17 UNL     1      10.977  11.046  31.615  0.00  0.00    +0.121 C 
BRANCH  11  12
ATOM     12  N3  UNL     1      11.786  10.959  30.383  0.00  0.00    -0.297 NA
ATOM     13  C18 UNL     1      11.360   9.828  29.534  0.00  0.00    +0.095 C 
ATOM     14  C19 UNL     1      11.860  10.015  28.091  0.00  0.00    +0.084 C 
ATOM     15  S1  UNL     1      13.369  11.052  27.962  0.00  0.00    -0.158 S 
ATOM     16  C20 UNL     1      14.101  10.466  29.523  0.00  0.00    +0.084 C 
ATOM     17  C21 UNL     1      13.224  10.854  30.726  0.00  0.00    +0.095 C 
ENDBRANCH  11  12
ENDBRANCH  10  11
ENDBRANCH   3   5
BRANCH   1  19
ATOM     18  C1  UNL     1      12.005  14.667  27.295  0.00  0.00    +0.038 C 
ATOM     19  C2  UNL     1      10.949  14.307  28.343  0.00  0.00    +0.156 C 
BRANCH  19  20
ATOM     20  N1  UNL     1      10.265  13.059  27.987  0.00  0.00    -0.300 N 
ATOM     21  C3  UNL     1       8.906  12.802  28.384  0.00  0.00    +0.245 C 
ATOM     22  O1  UNL     1       8.214  13.738  28.873  0.00  0.00    -0.270 OA
ATOM     23  H5  UNL     1      10.759  12.364  27.384  0.00  0.00    +0.150 HD
BRANCH  21  24
ATOM     24  C4  UNL     1       8.298  11.460  28.217  0.00  0.00    +0.037 A 
ATOM     25  C5  UNL     1       7.709  10.812  29.319  0.00  0.00    +0.013 A 
ATOM     26  C6  UNL     1       7.143   9.541  29.178  0.00  0.00    +0.001 A 
ATOM     27  C7  UNL     1       7.164   8.900  27.937  0.00  0.00    +0.000 A 
ATOM     28  C8  UNL     1       7.754   9.527  26.838  0.00  0.00    +0.001 A 
ATOM     29  C9  UNL     1       8.323  10.797  26.974  0.00  0.00    +0.013 A 
ENDBRANCH  21  24
ENDBRANCH  19  20
ENDBRANCH   1  19
TORSDOF 6
ENDMDL
MODEL 4
REMARK VINA RESULT:    -6.249      5.364      9.991
REMARK INTER + INTRA:          -9.404
REMARK INTER:                  -8.349
REMARK INTRA:                  -1.055
REMARK UNBOUND:                -0.964
REMARK  Name = /home/qwerty/github/datacon2025hack/step_04_hit_selection/docking/ligands/lig_425.pdb
REMARK  7 active torsions:
REMARK  status: ('A' for Active; 'I' for Inactive)
REMARK    1  A    between atoms: C1_1  and  C2_2
REMARK    2  A    between atoms: C2_2  and  N1_3
REMARK    3  A    between atoms: C2_2  and  C10_12
REMARK    4  A    between atoms: C3_4  and  C4_6
REMARK    5  A    between atoms: N2_14  and  C11_15
REMARK    6  A    between atoms: C16_20  and  C17_21
REMARK    7  A    between atoms: C17_21  and  N3_22
REMARK                            x       y       z     vdW  Elec       q    Type
REMARK                         _______ _______ _______ _____ _____    ______ ____
ROOT
ATOM      1  C10 UNL     1      20.773   5.790  32.831  0.00  0.00    +0.237 C 
ATOM      2  O2  UNL     1      20.208   6.860  33.185  0.00  0.00    -0.273 OA
ATOM      3  N2  UNL     1      22.174   5.779  32.520  0.00  0.00    -0.284 N 
ATOM      4  H11 UNL     1      22.651   4.855  32.423  0.00  0.00    +0.155 HD
ENDROOT
BRANCH   3   5
ATOM      5  C11 UNL     1      22.942   6.981  32.331  0.00  0.00    +0.038 A 
ATOM      6  C12 UNL     1      22.824   7.697  31.127  0.00  0.00    +0.023 A 
ATOM      7  C13 UNL     1      23.588   8.843  30.903  0.00  0.00    +0.002 A 
ATOM      8  C14 UNL     1      24.485   9.286  31.873  0.00  0.00    +0.000 A 
ATOM      9  C15 UNL     1      24.624   8.583  33.070  0.00  0.00    +0.007 A 
ATOM     10  C16 UNL     1      23.861   7.427  33.316  0.00  0.00    -0.012 A 
BRANCH  10  11
ATOM     11  C17 UNL     1      24.041   6.720  34.641  0.00  0.00    +0.121 C 
BRANCH  11  12
ATOM     12  N3  UNL     1      22.878   6.956  35.519  0.00  0.00    -0.297 NA
ATOM     13  C18 UNL     1      22.469   8.376  35.507  0.00  0.00    +0.095 C 
ATOM     14  C19 UNL     1      21.027   8.529  36.023  0.00  0.00    +0.084 C 
ATOM     15  S1  UNL     1      20.504   7.185  37.159  0.00  0.00    -0.158 S 
ATOM     16  C20 UNL     1      22.141   6.976  37.927  0.00  0.00    +0.084 C 
ATOM     17  C21 UNL     1      23.180   6.501  36.896  0.00  0.00    +0.095 C 
ENDBRANCH  11  12
ENDBRANCH  10  11
ENDBRANCH   3   5
BRANCH   1  19
ATOM     18  C1  UNL     1      18.493   4.836  32.542  0.00  0.00    +0.038 C 
ATOM     19  C2  UNL     1      19.973   4.517  32.762  0.00  0.00    +0.156 C 
BRANCH  19  20
ATOM     20  N1  UNL     1      20.489   3.664  31.686  0.00  0.00    -0.300 N 
ATOM     21  C3  UNL     1      20.867   2.296  31.921  0.00  0.00    +0.245 C 
ATOM     22  O1  UNL     1      20.567   1.749  33.018  0.00  0.00    -0.270 OA
ATOM     23  H5  UNL     1      20.530   4.044  30.714  0.00  0.00    +0.150 HD
BRANCH  21  24
ATOM     24  C4  UNL     1      21.590   1.511  30.891  0.00  0.00    +0.037 A 
ATOM     25  C5  UNL     1      22.818   1.979  30.385  0.00  0.00    +0.013 A 
ATOM     26  C6  UNL     1      23.504   1.255  29.405  0.00  0.00    +0.001 A 
ATOM     27  C7  UNL     1      22.971   0.061  28.915  0.00  0.00    +0.000 A 
ATOM     28  C8  UNL     1      21.748  -0.409  29.401  0.00  0.00    +0.001 A 
ATOM     29  C9  UNL     1      21.058   0.312  30.380  0.00  0.00    +0.013 A 
ENDBRANCH  21  24
ENDBRANCH  19  20
ENDBRANCH   1  19
TORSDOF 6
ENDMDL
MODEL 5
REMARK VINA RESULT:    -6.175     13.744     16.281
REMARK INTER + INTRA:          -9.304
REMARK INTER:                  -7.804
REMARK INTRA:                  -1.500
REMARK UNBOUND:                -0.964
REMARK  Name = /home/qwerty/github/datacon2025hack/step_04_hit_selection/docking/ligands/lig_425.pdb
REMARK  7 active torsions:
REMARK  status: ('A' for Active; 'I' for Inactive)
REMARK    1  A    between atoms: C1_1  and  C2_2
REMARK    2  A    between atoms: C2_2  and  N1_3
REMARK    3  A    between atoms: C2_2  and  C10_12
REMARK    4  A    between atoms: C3_4  and  C4_6
REMARK    5  A    between atoms: N2_14  and  C11_15
REMARK    6  A    between atoms: C16_20  and  C17_21
REMARK    7  A    between atoms: C17_21  and  N3_22
REMARK                            x       y       z     vdW  Elec       q    Type
REMARK                         _______ _______ _______ _____ _____    ______ ____
ROOT
ATOM      1  C10 UNL     1       9.400   7.420  24.156  0.00  0.00    +0.237 C 
ATOM      2  O2  UNL     1      10.598   7.083  24.361  0.00  0.00    -0.273 OA
ATOM      3  N2  UNL     1       9.052   8.195  22.999  0.00  0.00    -0.284 N 
ATOM      4  H11 UNL     1       8.042   8.288  22.753  0.00  0.00    +0.155 HD
ENDROOT
BRANCH   3   5
ATOM      5  C11 UNL     1      10.032   8.849  22.174  0.00  0.00    +0.038 A 
ATOM      6  C12 UNL     1      10.667  10.012  22.643  0.00  0.00    +0.023 A 
ATOM      7  C13 UNL     1      11.592  10.689  21.845  0.00  0.00    +0.002 A 
ATOM      8  C14 UNL     1      11.889  10.219  20.568  0.00  0.00    +0.000 A 
ATOM      9  C15 UNL     1      11.262   9.071  20.081  0.00  0.00    +0.007 A 
ATOM     10  C16 UNL     1      10.329   8.374  20.870  0.00  0.00    -0.012 A 
BRANCH  10  11
ATOM     11  C17 UNL     1       9.698   7.126  20.295  0.00  0.00    +0.121 C 
BRANCH  11  12
ATOM     12  N3  UNL     1      10.098   5.936  21.072  0.00  0.00    -0.297 NA
ATOM     13  C18 UNL     1      11.205   5.208  20.418  0.00  0.00    +0.095 C 
ATOM     14  C19 UNL     1      11.912   4.281  21.422  0.00  0.00    +0.084 C 
ATOM     15  S1  UNL     1      10.840   3.745  22.813  0.00  0.00    -0.158 S 
ATOM     16  C20 UNL     1       9.317   3.661  21.819  0.00  0.00    +0.084 C 
ATOM     17  C21 UNL     1       8.929   5.048  21.281  0.00  0.00    +0.095 C 
ENDBRANCH  11  12
ENDBRANCH  10  11
ENDBRANCH   3   5
BRANCH   1  19
ATOM     18  C1  UNL     1       8.596   5.543  25.579  0.00  0.00    +0.038 C 
ATOM     19  C2  UNL     1       8.331   6.978  25.119  0.00  0.00    +0.156 C 
BRANCH  19  20
ATOM     20  N1  UNL     1       8.286   7.893  26.265  0.00  0.00    -0.300 N 
ATOM     21  C3  UNL     1       7.776   9.233  26.142  0.00  0.00    +0.245 C 
ATOM     22  O1  UNL     1       7.170   9.573  25.089  0.00  0.00    -0.270 OA
ATOM     23  H5  UNL     1       8.580   7.544  27.204  0.00  0.00    +0.150 HD
BRANCH  21  24
ATOM     24  C4  UNL     1       7.938  10.219  27.238  0.00  0.00    +0.037 A 
ATOM     25  C5  UNL     1       8.526  11.471  26.975  0.00  0.00    +0.013 A 
ATOM     26  C6  UNL     1       8.696  12.405  28.002  0.00  0.00    +0.001 A 
ATOM     27  C7  UNL     1       8.287  12.099  29.302  0.00  0.00    +0.000 A 
ATOM     28  C8  UNL     1       7.711  10.856  29.578  0.00  0.00    +0.001 A 
ATOM     29  C9  UNL     1       7.541   9.918  28.555  0.00  0.00    +0.013 A 
ENDBRANCH  21  24
ENDBRANCH  19  20
ENDBRANCH   1  19
TORSDOF 6
ENDMDL
MODEL 6
REMARK VINA RESULT:    -6.164      8.526     11.773
REMARK INTER + INTRA:          -9.290
REMARK INTER:                  -8.040
REMARK INTRA:                  -1.250
REMARK UNBOUND:                -0.964
REMARK  Name = /home/qwerty/github/datacon2025hack/step_04_hit_selection/docking/ligands/lig_425.pdb
REMARK  7 active torsions:
REMARK  status: ('A' for Active; 'I' for Inactive)
REMARK    1  A    between atoms: C1_1  and  C2_2
REMARK    2  A    between atoms: C2_2  and  N1_3
REMARK    3  A    between atoms: C2_2  and  C10_12
REMARK    4  A    between atoms: C3_4  and  C4_6
REMARK    5  A    between atoms: N2_14  and  C11_15
REMARK    6  A    between atoms: C16_20  and  C17_21
REMARK    7  A    between atoms: C17_21  and  N3_22
REMARK                            x       y       z     vdW  Elec       q    Type
REMARK                         _______ _______ _______ _____ _____    ______ ____
ROOT
ATOM      1  C10 UNL     1      20.760   0.691  29.863  0.00  0.00    +0.237 C 
ATOM      2  O2  UNL     1      19.680   1.207  29.465  0.00  0.00    -0.273 OA
ATOM      3  N2  UNL     1      20.884   0.221  31.214  0.00  0.00    -0.284 N 
ATOM      4  H11 UNL     1      21.708  -0.372  31.456  0.00  0.00    +0.155 HD
ENDROOT
BRANCH   3   5
ATOM      5  C11 UNL     1      19.928   0.536  32.241  0.00  0.00    +0.038 A 
ATOM      6  C12 UNL     1      18.791  -0.275  32.403  0.00  0.00    +0.023 A 
ATOM      7  C13 UNL     1      17.828   0.033  33.365  0.00  0.00    +0.002 A 
ATOM      8  C14 UNL     1      17.982   1.157  34.173  0.00  0.00    +0.000 A 
ATOM      9  C15 UNL     1      19.099   1.980  34.021  0.00  0.00    +0.007 A 
ATOM     10  C16 UNL     1      20.081   1.686  33.059  0.00  0.00    -0.012 A 
BRANCH  10  11
ATOM     11  C17 UNL     1      21.278   2.604  32.955  0.00  0.00    +0.121 C 
BRANCH  11  12
ATOM     12  N3  UNL     1      20.956   3.790  32.138  0.00  0.00    -0.297 NA
ATOM     13  C18 UNL     1      21.810   3.868  30.934  0.00  0.00    +0.095 C 
ATOM     14  C19 UNL     1      21.180   4.798  29.882  0.00  0.00    +0.084 C 
ATOM     15  S1  UNL     1      20.069   6.073  30.594  0.00  0.00    -0.158 S 
ATOM     16  C20 UNL     1      21.045   6.307  32.113  0.00  0.00    +0.084 C 
ATOM     17  C21 UNL     1      21.076   5.020  32.956  0.00  0.00    +0.095 C 
ENDBRANCH  11  12
ENDBRANCH  10  11
ENDBRANCH   3   5
BRANCH   1  19
ATOM     18  C1  UNL     1      22.442  -0.888  28.929  0.00  0.00    +0.038 C 
ATOM     19  C2  UNL     1      21.911   0.547  28.904  0.00  0.00    +0.156 C 
BRANCH  19  20
ATOM     20  N1  UNL     1      21.481   0.921  27.552  0.00  0.00    -0.300 N 
ATOM     21  C3  UNL     1      21.973   2.107  26.904  0.00  0.00    +0.245 C 
ATOM     22  O1  UNL     1      22.942   2.736  27.412  0.00  0.00    -0.270 OA
ATOM     23  H5  UNL     1      20.844   0.280  27.028  0.00  0.00    +0.150 HD
BRANCH  21  24
ATOM     24  C4  UNL     1      21.372   2.596  25.639  0.00  0.00    +0.037 A 
ATOM     25  C5  UNL     1      21.788   3.824  25.092  0.00  0.00    +0.013 A 
ATOM     26  C6  UNL     1      21.221   4.302  23.907  0.00  0.00    +0.001 A 
ATOM     27  C7  UNL     1      20.228   3.565  23.259  0.00  0.00    +0.000 A 
ATOM     28  C8  UNL     1      19.798   2.350  23.797  0.00  0.00    +0.001 A 
ATOM     29  C9  UNL     1      20.361   1.867  24.982  0.00  0.00    +0.013 A 
ENDBRANCH  21  24
ENDBRANCH  19  20
ENDBRANCH   1  19
TORSDOF 6
ENDMDL
MODEL 7
REMARK VINA RESULT:    -6.152     15.514     16.859
REMARK INTER + INTRA:          -9.274
REMARK INTER:                  -7.705
REMARK INTRA:                  -1.569
REMARK UNBOUND:                -0.964
REMARK  Name = /home/qwerty/github/datacon2025hack/step_04_hit_selection/docking/ligands/lig_425.pdb
REMARK  7 active torsions:
REMARK  status: ('A' for Active; 'I' for Inactive)
REMARK    1  A    between atoms: C1_1  and  C2_2
REMARK    2  A    between atoms: C2_2  and  N1_3
REMARK    3  A    between atoms: C2_2  and  C10_12
REMARK    4  A    between atoms: C3_4  and  C4_6
REMARK    5  A    between atoms: N2_14  and  C11_15
REMARK    6  A    between atoms: C16_20  and  C17_21
REMARK    7  A    between atoms: C17_21  and  N3_22
REMARK                            x       y       z     vdW  Elec       q    Type
REMARK                         _______ _______ _______ _____ _____    ______ ____
ROOT
ATOM      1  C10 UNL     1      15.395   7.054  21.566  0.00  0.00    +0.237 C 
ATOM      2  O2  UNL     1      15.128   6.484  22.659  0.00  0.00    -0.273 OA
ATOM      3  N2  UNL     1      15.498   6.290  20.356  0.00  0.00    -0.284 N 
ATOM      4  H11 UNL     1      15.523   6.804  19.448  0.00  0.00    +0.155 HD
ENDROOT
BRANCH   3   5
ATOM      5  C11 UNL     1      15.574   4.853  20.344  0.00  0.00    +0.038 A 
ATOM      6  C12 UNL     1      16.772   4.219  20.717  0.00  0.00    +0.023 A 
ATOM      7  C13 UNL     1      16.885   2.829  20.675  0.00  0.00    +0.002 A 
ATOM      8  C14 UNL     1      15.807   2.053  20.252  0.00  0.00    +0.000 A 
ATOM      9  C15 UNL     1      14.613   2.665  19.868  0.00  0.00    +0.007 A 
ATOM     10  C16 UNL     1      14.479   4.064  19.906  0.00  0.00    -0.012 A 
BRANCH  10  11
ATOM     11  C17 UNL     1      13.154   4.666  19.497  0.00  0.00    +0.121 C 
BRANCH  11  12
ATOM     12  N3  UNL     1      12.307   4.914  20.681  0.00  0.00    -0.297 NA
ATOM     13  C18 UNL     1      11.258   3.884  20.823  0.00  0.00    +0.095 C 
ATOM     14  C19 UNL     1      10.701   3.871  22.258  0.00  0.00    +0.084 C 
ATOM     15  S1  UNL     1      10.867   5.478  23.128  0.00  0.00    -0.158 S 
ATOM     16  C20 UNL     1      10.597   6.494  21.641  0.00  0.00    +0.084 C 
ATOM     17  C21 UNL     1      11.714   6.270  20.607  0.00  0.00    +0.095 C 
ENDBRANCH  11  12
ENDBRANCH  10  11
ENDBRANCH   3   5
BRANCH   1  19
ATOM     18  C1  UNL     1      16.747   8.917  20.618  0.00  0.00    +0.038 C 
ATOM     19  C2  UNL     1      15.578   8.548  21.535  0.00  0.00    +0.156 C 
BRANCH  19  20
ATOM     20  N1  UNL     1      14.339   9.191  21.083  0.00  0.00    -0.300 N 
ATOM     21  C3  UNL     1      13.240   9.427  21.981  0.00  0.00    +0.245 C 
ATOM     22  O1  UNL     1      13.406   9.267  23.222  0.00  0.00    -0.270 OA
ATOM     23  H5  UNL     1      14.275   9.534  20.099  0.00  0.00    +0.150 HD
BRANCH  21  24
ATOM     24  C4  UNL     1      11.917   9.868  21.476  0.00  0.00    +0.037 A 
ATOM     25  C5  UNL     1      10.845  10.043  22.372  0.00  0.00    +0.013 A 
ATOM     26  C6  UNL     1       9.589  10.447  21.906  0.00  0.00    +0.001 A 
ATOM     27  C7  UNL     1       9.388  10.674  20.544  0.00  0.00    +0.000 A 
ATOM     28  C8  UNL     1      10.440  10.494  19.643  0.00  0.00    +0.001 A 
ATOM     29  C9  UNL     1      11.697  10.090  20.102  0.00  0.00    +0.013 A 
ENDBRANCH  21  24
ENDBRANCH  19  20
ENDBRANCH   1  19
TORSDOF 6
ENDMDL
MODEL 8
REMARK VINA RESULT:    -6.126      4.838      8.064
REMARK INTER + INTRA:          -9.239
REMARK INTER:                  -7.869
REMARK INTRA:                  -1.370
REMARK UNBOUND:                -0.964
REMARK  Name = /home/qwerty/github/datacon2025hack/step_04_hit_selection/docking/ligands/lig_425.pdb
REMARK  7 active torsions:
REMARK  status: ('A' for Active; 'I' for Inactive)
REMARK    1  A    between atoms: C1_1  and  C2_2
REMARK    2  A    between atoms: C2_2  and  N1_3
REMARK    3  A    between atoms: C2_2  and  C10_12
REMARK    4  A    between atoms: C3_4  and  C4_6
REMARK    5  A    between atoms: N2_14  and  C11_15
REMARK    6  A    between atoms: C16_20  and  C17_21
REMARK    7  A    between atoms: C17_21  and  N3_22
REMARK                            x       y       z     vdW  Elec       q    Type
REMARK                         _______ _______ _______ _____ _____    ______ ____
ROOT
ATOM      1  C10 UNL     1      22.624   4.786  32.456  0.00  0.00    +0.237 C 
ATOM      2  O2  UNL     1      21.790   5.239  31.625  0.00  0.00    -0.273 OA
ATOM      3  N2  UNL     1      22.913   3.381  32.499  0.00  0.00    -0.284 N 
ATOM      4  H11 UNL     1      23.740   3.064  33.052  0.00  0.00    +0.155 HD
ENDROOT
BRANCH   3   5
ATOM      5  C11 UNL     1      22.111   2.397  31.822  0.00  0.00    +0.038 A 
ATOM      6  C12 UNL     1      22.445   2.014  30.511  0.00  0.00    +0.023 A 
ATOM      7  C13 UNL     1      21.660   1.092  29.817  0.00  0.00    +0.002 A 
ATOM      8  C14 UNL     1      20.528   0.546  30.419  0.00  0.00    +0.000 A 
ATOM      9  C15 UNL     1      20.175   0.921  31.716  0.00  0.00    +0.007 A 
ATOM     10  C16 UNL     1      20.954   1.847  32.432  0.00  0.00    -0.012 A 
BRANCH  10  11
ATOM     11  C17 UNL     1      20.532   2.197  33.841  0.00  0.00    +0.121 C 
BRANCH  11  12
ATOM     12  N3  UNL     1      19.321   3.042  33.826  0.00  0.00    -0.297 NA
ATOM     13  C18 UNL     1      19.568   4.356  34.455  0.00  0.00    +0.095 C 
ATOM     14  C19 UNL     1      18.492   5.371  34.031  0.00  0.00    +0.084 C 
ATOM     15  S1  UNL     1      16.896   4.599  33.558  0.00  0.00    -0.158 S 
ATOM     16  C20 UNL     1      16.999   3.252  34.778  0.00  0.00    +0.084 C 
ATOM     17  C21 UNL     1      18.201   2.336  34.492  0.00  0.00    +0.095 C 
ENDBRANCH  11  12
ENDBRANCH  10  11
ENDBRANCH   3   5
BRANCH   1  19
ATOM     18  C1  UNL     1      24.362   6.561  32.606  0.00  0.00    +0.038 C 
ATOM     19  C2  UNL     1      23.336   5.734  33.384  0.00  0.00    +0.156 C 
BRANCH  19  20
ATOM     20  N1  UNL     1      22.360   6.604  34.049  0.00  0.00    -0.300 N 
ATOM     21  C3  UNL     1      22.366   6.793  35.475  0.00  0.00    +0.245 C 
ATOM     22  O1  UNL     1      23.343   6.370  36.154  0.00  0.00    -0.270 OA
ATOM     23  H5  UNL     1      21.680   7.141  33.467  0.00  0.00    +0.150 HD
BRANCH  21  24
ATOM     24  C4  UNL     1      21.251   7.488  36.162  0.00  0.00    +0.037 A 
ATOM     25  C5  UNL     1      21.013   8.853  35.912  0.00  0.00    +0.013 A 
ATOM     26  C6  UNL     1      19.973   9.524  36.562  0.00  0.00    +0.001 A 
ATOM     27  C7  UNL     1      19.163   8.843  37.474  0.00  0.00    +0.000 A 
ATOM     28  C8  UNL     1      19.394   7.491  37.739  0.00  0.00    +0.001 A 
ATOM     29  C9  UNL     1      20.434   6.816  37.092  0.00  0.00    +0.013 A 
ENDBRANCH  21  24
ENDBRANCH  19  20
ENDBRANCH   1  19
TORSDOF 6
ENDMDL
MODEL 9
REMARK VINA RESULT:    -6.073     13.142     15.389
REMARK INTER + INTRA:          -9.167
REMARK INTER:                  -7.823
REMARK INTRA:                  -1.344
REMARK UNBOUND:                -0.964
REMARK  Name = /home/qwerty/github/datacon2025hack/step_04_hit_selection/docking/ligands/lig_425.pdb
REMARK  7 active torsions:
REMARK  status: ('A' for Active; 'I' for Inactive)
REMARK    1  A    between atoms: C1_1  and  C2_2
REMARK    2  A    between atoms: C2_2  and  N1_3
REMARK    3  A    between atoms: C2_2  and  C10_12
REMARK    4  A    between atoms: C3_4  and  C4_6
REMARK    5  A    between atoms: N2_14  and  C11_15
REMARK    6  A    between atoms: C16_20  and  C17_21
REMARK    7  A    between atoms: C17_21  and  N3_22
REMARK                            x       y       z     vdW  Elec       q    Type
REMARK                         _______ _______ _______ _____ _____    ______ ____
ROOT
ATOM      1  C10 UNL     1      18.193   0.626  26.252  0.00  0.00    +0.237 C 
ATOM      2  O2  UNL     1      17.922   1.547  27.070  0.00  0.00    -0.273 OA
ATOM      3  N2  UNL     1      19.557   0.329  25.919  0.00  0.00    -0.284 N 
ATOM      4  H11 UNL     1      19.758  -0.554  25.400  0.00  0.00    +0.155 HD
ENDROOT
BRANCH   3   5
ATOM      5  C11 UNL     1      20.651   1.197  26.263  0.00  0.00    +0.038 A 
ATOM      6  C12 UNL     1      21.280   1.058  27.513  0.00  0.00    +0.023 A 
ATOM      7  C13 UNL     1      22.317   1.913  27.888  0.00  0.00    +0.002 A 
ATOM      8  C14 UNL     1      22.735   2.924  27.025  0.00  0.00    +0.000 A 
ATOM      9  C15 UNL     1      22.117   3.085  25.784  0.00  0.00    +0.007 A 
ATOM     10  C16 UNL     1      21.072   2.231  25.388  0.00  0.00    -0.012 A 
BRANCH  10  11
ATOM     11  C17 UNL     1      20.455   2.443  24.023  0.00  0.00    +0.121 C 
BRANCH  11  12
ATOM     12  N3  UNL     1      20.271   3.883  23.752  0.00  0.00    -0.297 NA
ATOM     13  C18 UNL     1      19.041   4.401  24.386  0.00  0.00    +0.095 C 
ATOM     14  C19 UNL     1      19.095   5.934  24.502  0.00  0.00    +0.084 C 
ATOM     15  S1  UNL     1      20.171   6.731  23.248  0.00  0.00    -0.158 S 
ATOM     16  C20 UNL     1      19.782   5.544  21.924  0.00  0.00    +0.084 C 
ATOM     17  C21 UNL     1      20.260   4.128  22.291  0.00  0.00    +0.095 C 
ENDBRANCH  11  12
ENDBRANCH  10  11
ENDBRANCH   3   5
BRANCH   1  19
ATOM     18  C1  UNL     1      15.997  -0.457  26.698  0.00  0.00    +0.038 C 
ATOM     19  C2  UNL     1      17.075  -0.180  25.647  0.00  0.00    +0.156 C 
BRANCH  19  20
ATOM     20  N1  UNL     1      16.511   0.536  24.498  0.00  0.00    -0.300 N 
ATOM     21  C3  UNL     1      16.933   0.255  23.152  0.00  0.00    +0.245 C 
ATOM     22  O1  UNL     1      17.649  -0.759  22.924  0.00  0.00    -0.270 OA
ATOM     23  H5  UNL     1      15.746   1.228  24.658  0.00  0.00    +0.150 HD
BRANCH  21  24
ATOM     24  C4  UNL     1      16.529   1.128  22.023  0.00  0.00    +0.037 A 
ATOM     25  C5  UNL     1      15.761   0.601  20.967  0.00  0.00    +0.013 A 
ATOM     26  C6  UNL     1      15.384   1.410  19.890  0.00  0.00    +0.001 A 
ATOM     27  C7  UNL     1      15.774   2.750  19.852  0.00  0.00    +0.000 A 
ATOM     28  C8  UNL     1      16.544   3.283  20.888  0.00  0.00    +0.001 A 
ATOM     29  C9  UNL     1      16.925   2.478  21.966  0.00  0.00    +0.013 A 
ENDBRANCH  21  24
ENDBRANCH  19  20
ENDBRANCH   1  19
TORSDOF 6
ENDMDL
