MODEL 1
REMARK VINA RESULT:    -7.094      0.000      0.000
REMARK INTER + INTRA:          -9.423
REMARK INTER:                  -8.753
REMARK INTRA:                  -0.670
REMARK UNBOUND:                -0.670
REMARK  Name = /home/qwerty/github/datacon2025hack/step_04_hit_selection/docking/ligands/lig_647.pdb
REMARK  5 active torsions:
REMARK  status: ('A' for Active; 'I' for Inactive)
REMARK    1  A    between atoms: C1_1  and  N1_2
REMARK    2  A    between atoms: C3_4  and  N2_5
REMARK    3  A    between atoms: C6_8  and  N3_9
REMARK    4  A    between atoms: N4_12  and  C8_13
REMARK    5  A    between atoms: C12_17  and  N5_18
REMARK                            x       y       z     vdW  Elec       q    Type
REMARK                         _______ _______ _______ _____ _____    ______ ____
ROOT
ATOM      1  N3  UNL     1      18.022  10.305  36.559  0.00  0.00    -0.288 N 
ATOM      2  C7  UNL     1      19.392   9.908  36.423  0.00  0.00    +0.304 C 
ATOM      3  O1  UNL     1      20.242  10.720  35.964  0.00  0.00    -0.252 OA
ATOM      4  N4  UNL     1      19.797   8.598  36.848  0.00  0.00    -0.269 N 
ATOM      5  H10 UNL     1      17.335   9.590  36.894  0.00  0.00    +0.151 HD
ATOM      6  H11 UNL     1      19.157   8.086  37.497  0.00  0.00    +0.156 HD
ENDROOT
BRANCH   1  10
ATOM      7  N2  UNL     1      15.127  11.825  35.729  0.00  0.00    -0.267 N 
ATOM      8  C4  UNL     1      15.608  11.385  34.430  0.00  0.00    +0.116 C 
ATOM      9  C5  UNL     1      17.146  11.390  34.518  0.00  0.00    +0.051 C 
ATOM     10  C6  UNL     1      17.514  11.560  36.003  0.00  0.00    +0.162 C 
ATOM     11  C20 UNL     1      16.219  11.911  36.629  0.00  0.00    +0.240 C 
ATOM     12  O2  UNL     1      16.102  12.232  37.841  0.00  0.00    -0.273 OA
BRANCH   7  16
ATOM     13  C1  UNL     1      10.540  13.717  35.976  0.00  0.00    +0.172 C 
ATOM     14  N1  UNL     1      11.698  12.848  36.136  0.00  0.00    -0.273 N 
ATOM     15  C2  UNL     1      12.925  13.074  35.630  0.00  0.00    +0.131 A 
ATOM     16  C3  UNL     1      13.738  12.036  36.040  0.00  0.00    +0.074 A 
ATOM     17  C21 UNL     1      12.932  11.207  36.800  0.00  0.00    +0.157 A 
ATOM     18  N6  UNL     1      11.690  11.731  36.848  0.00  0.00    -0.178 NA
ENDBRANCH   7  16
ENDBRANCH   1  10
BRANCH   4  19
ATOM     19  C8  UNL     1      21.061   7.990  36.527  0.00  0.00    +0.037 A 
ATOM     20  C9  UNL     1      21.768   7.309  37.530  0.00  0.00    +0.023 A 
ATOM     21  C10 UNL     1      22.985   6.688  37.241  0.00  0.00    +0.004 A 
ATOM     22  C11 UNL     1      23.507   6.733  35.947  0.00  0.00    +0.023 A 
ATOM     23  C12 UNL     1      22.805   7.391  34.925  0.00  0.00    +0.031 A 
ATOM     24  C19 UNL     1      21.578   8.010  35.218  0.00  0.00    +0.046 A 
BRANCH  23  25
ATOM     25  N5  UNL     1      23.336   7.429  33.588  0.00  0.00    -0.330 N 
ATOM     26  C13 UNL     1      24.790   7.586  33.395  0.00  0.00    +0.105 C 
ATOM     27  C14 UNL     1      25.168   8.896  32.666  0.00  0.00    +0.019 C 
ATOM     28  C15 UNL     1      24.005   9.620  31.972  0.00  0.00    +0.002 C 
ATOM     29  C16 UNL     1      23.413   8.843  30.784  0.00  0.00    +0.002 C 
ATOM     30  C17 UNL     1      23.049   7.378  31.083  0.00  0.00    +0.019 C 
ATOM     31  C18 UNL     1      22.412   7.173  32.467  0.00  0.00    +0.105 C 
ENDBRANCH  23  25
ENDBRANCH   4  19
TORSDOF 4
ENDMDL
MODEL 2
REMARK VINA RESULT:    -6.973     14.871     16.476
REMARK INTER + INTRA:          -9.274
REMARK INTER:                  -8.555
REMARK INTRA:                  -0.719
REMARK UNBOUND:                -0.670
REMARK  Name = /home/qwerty/github/datacon2025hack/step_04_hit_selection/docking/ligands/lig_647.pdb
REMARK  5 active torsions:
REMARK  status: ('A' for Active; 'I' for Inactive)
REMARK    1  A    between atoms: C1_1  and  N1_2
REMARK    2  A    between atoms: C3_4  and  N2_5
REMARK    3  A    between atoms: C6_8  and  N3_9
REMARK    4  A    between atoms: N4_12  and  C8_13
REMARK    5  A    between atoms: C12_17  and  N5_18
REMARK                            x       y       z     vdW  Elec       q    Type
REMARK                         _______ _______ _______ _____ _____    ______ ____
ROOT
ATOM      1  N3  UNL     1      12.498   3.829  21.198  0.00  0.00    -0.288 N 
ATOM      2  C7  UNL     1      13.030   2.503  21.315  0.00  0.00    +0.304 C 
ATOM      3  O1  UNL     1      12.299   1.565  21.737  0.00  0.00    -0.252 OA
ATOM      4  N4  UNL     1      14.383   2.244  20.912  0.00  0.00    -0.269 N 
ATOM      5  H10 UNL     1      13.145   4.593  20.894  0.00  0.00    +0.151 HD
ATOM      6  H11 UNL     1      14.840   2.947  20.289  0.00  0.00    +0.156 HD
ENDROOT
BRANCH   1  10
ATOM      7  N2  UNL     1      10.586   6.533  21.842  0.00  0.00    -0.267 N 
ATOM      8  C4  UNL     1      11.096   6.215  23.166  0.00  0.00    +0.116 C 
ATOM      9  C5  UNL     1      11.309   4.689  23.188  0.00  0.00    +0.051 C 
ATOM     10  C6  UNL     1      11.186   4.194  21.735  0.00  0.00    +0.162 C 
ATOM     11  C20 UNL     1      10.652   5.377  21.024  0.00  0.00    +0.240 C 
ATOM     12  O2  UNL     1      10.311   5.359  19.812  0.00  0.00    -0.273 OA
BRANCH   7  16
ATOM     13  C1  UNL     1       8.096  10.803  21.351  0.00  0.00    +0.172 C 
ATOM     14  N1  UNL     1       9.101   9.756  21.230  0.00  0.00    -0.273 N 
ATOM     15  C2  UNL     1       9.065   8.558  21.844  0.00  0.00    +0.131 A 
ATOM     16  C3  UNL     1      10.179   7.851  21.436  0.00  0.00    +0.074 A 
ATOM     17  C21 UNL     1      10.853   8.687  20.565  0.00  0.00    +0.157 A 
ATOM     18  N6  UNL     1      10.169   9.843  20.451  0.00  0.00    -0.178 NA
ENDBRANCH   7  16
ENDBRANCH   1  10
BRANCH   4  19
ATOM     19  C8  UNL     1      15.110   1.041  21.221  0.00  0.00    +0.037 A 
ATOM     20  C9  UNL     1      15.800   0.375  20.195  0.00  0.00    +0.023 A 
ATOM     21  C10 UNL     1      16.534  -0.781  20.471  0.00  0.00    +0.004 A 
ATOM     22  C11 UNL     1      16.595  -1.280  21.773  0.00  0.00    +0.023 A 
ATOM     23  C12 UNL     1      15.930  -0.617  22.815  0.00  0.00    +0.031 A 
ATOM     24  C19 UNL     1      15.196   0.548  22.536  0.00  0.00    +0.046 A 
BRANCH  23  25
ATOM     25  N5  UNL     1      16.002  -1.125  24.160  0.00  0.00    -0.330 N 
ATOM     26  C13 UNL     1      16.009  -2.584  24.380  0.00  0.00    +0.105 C 
ATOM     27  C14 UNL     1      14.775  -3.085  25.167  0.00  0.00    +0.019 C 
ATOM     28  C15 UNL     1      13.959  -1.993  25.874  0.00  0.00    +0.002 C 
ATOM     29  C16 UNL     1      14.714  -1.301  27.021  0.00  0.00    +0.002 C 
ATOM     30  C17 UNL     1      16.119  -0.789  26.658  0.00  0.00    +0.019 C 
ATOM     31  C18 UNL     1      16.201  -0.159  25.257  0.00  0.00    +0.105 C 
ENDBRANCH  23  25
ENDBRANCH   4  19
TORSDOF 4
ENDMDL
MODEL 3
REMARK VINA RESULT:    -6.732     11.788     14.115
REMARK INTER + INTRA:          -8.976
REMARK INTER:                  -8.330
REMARK INTRA:                  -0.646
REMARK UNBOUND:                -0.670
REMARK  Name = /home/qwerty/github/datacon2025hack/step_04_hit_selection/docking/ligands/lig_647.pdb
REMARK  5 active torsions:
REMARK  status: ('A' for Active; 'I' for Inactive)
REMARK    1  A    between atoms: C1_1  and  N1_2
REMARK    2  A    between atoms: C3_4  and  N2_5
REMARK    3  A    between atoms: C6_8  and  N3_9
REMARK    4  A    between atoms: N4_12  and  C8_13
REMARK    5  A    between atoms: C12_17  and  N5_18
REMARK                            x       y       z     vdW  Elec       q    Type
REMARK                         _______ _______ _______ _____ _____    ______ ____
ROOT
ATOM      1  N3  UNL     1      17.357   2.102  22.827  0.00  0.00    -0.288 N 
ATOM      2  C7  UNL     1      18.343   2.695  23.682  0.00  0.00    +0.304 C 
ATOM      3  O1  UNL     1      18.437   3.950  23.762  0.00  0.00    -0.252 OA
ATOM      4  N4  UNL     1      19.192   1.852  24.474  0.00  0.00    -0.269 N 
ATOM      5  H10 UNL     1      17.341   1.059  22.744  0.00  0.00    +0.151 HD
ATOM      6  H11 UNL     1      18.884   0.864  24.622  0.00  0.00    +0.156 HD
ENDROOT
BRANCH   1  10
ATOM      7  N2  UNL     1      14.277   2.254  21.459  0.00  0.00    -0.267 N 
ATOM      8  C4  UNL     1      15.041   1.636  20.388  0.00  0.00    +0.116 C 
ATOM      9  C5  UNL     1      16.477   2.179  20.517  0.00  0.00    +0.051 C 
ATOM     10  C6  UNL     1      16.570   2.893  21.879  0.00  0.00    +0.162 C 
ATOM     11  C20 UNL     1      15.158   2.961  22.317  0.00  0.00    +0.240 C 
ATOM     12  O2  UNL     1      14.785   3.567  23.355  0.00  0.00    -0.273 OA
BRANCH   7  16
ATOM     13  C1  UNL     1       9.847   0.527  22.900  0.00  0.00    +0.172 C 
ATOM     14  N1  UNL     1      10.896   1.335  22.293  0.00  0.00    -0.273 N 
ATOM     15  C2  UNL     1      12.219   1.104  22.387  0.00  0.00    +0.131 A 
ATOM     16  C3  UNL     1      12.861   2.072  21.642  0.00  0.00    +0.074 A 
ATOM     17  C21 UNL     1      11.858   2.867  21.117  0.00  0.00    +0.157 A 
ATOM     18  N6  UNL     1      10.665   2.390  21.525  0.00  0.00    -0.178 NA
ENDBRANCH   7  16
ENDBRANCH   1  10
BRANCH   4  19
ATOM     19  C8  UNL     1      20.377   2.299  25.158  0.00  0.00    +0.037 A 
ATOM     20  C9  UNL     1      21.287   3.126  24.481  0.00  0.00    +0.023 A 
ATOM     21  C10 UNL     1      22.433   3.596  25.128  0.00  0.00    +0.004 A 
ATOM     22  C11 UNL     1      22.679   3.253  26.458  0.00  0.00    +0.023 A 
ATOM     23  C12 UNL     1      21.770   2.446  27.159  0.00  0.00    +0.031 A 
ATOM     24  C19 UNL     1      20.616   1.979  26.507  0.00  0.00    +0.046 A 
BRANCH  23  25
ATOM     25  N5  UNL     1      22.017   2.101  28.534  0.00  0.00    -0.330 N 
ATOM     26  C13 UNL     1      22.888   0.951  28.843  0.00  0.00    +0.105 C 
ATOM     27  C14 UNL     1      22.148  -0.190  29.580  0.00  0.00    +0.019 C 
ATOM     28  C15 UNL     1      20.779   0.185  30.166  0.00  0.00    +0.002 C 
ATOM     29  C16 UNL     1      20.856   1.206  31.314  0.00  0.00    +0.002 C 
ATOM     30  C17 UNL     1      21.688   2.465  31.008  0.00  0.00    +0.019 C 
ATOM     31  C18 UNL     1      21.493   3.000  29.580  0.00  0.00    +0.105 C 
ENDBRANCH  23  25
ENDBRANCH   4  19
TORSDOF 4
ENDMDL
MODEL 4
REMARK VINA RESULT:    -6.649      1.257      1.766
REMARK INTER + INTRA:          -8.875
REMARK INTER:                  -7.971
REMARK INTRA:                  -0.904
REMARK UNBOUND:                -0.670
REMARK  Name = /home/qwerty/github/datacon2025hack/step_04_hit_selection/docking/ligands/lig_647.pdb
REMARK  5 active torsions:
REMARK  status: ('A' for Active; 'I' for Inactive)
REMARK    1  A    between atoms: C1_1  and  N1_2
REMARK    2  A    between atoms: C3_4  and  N2_5
REMARK    3  A    between atoms: C6_8  and  N3_9
REMARK    4  A    between atoms: N4_12  and  C8_13
REMARK    5  A    between atoms: C12_17  and  N5_18
REMARK                            x       y       z     vdW  Elec       q    Type
REMARK                         _______ _______ _______ _____ _____    ______ ____
ROOT
ATOM      1  N3  UNL     1      17.849   9.857  36.476  0.00  0.00    -0.288 N 
ATOM      2  C7  UNL     1      19.213   9.423  36.404  0.00  0.00    +0.304 C 
ATOM      3  O1  UNL     1      20.102  10.204  35.969  0.00  0.00    -0.252 OA
ATOM      4  N4  UNL     1      19.563   8.110  36.867  0.00  0.00    -0.269 N 
ATOM      5  H10 UNL     1      17.129   9.166  36.793  0.00  0.00    +0.151 HD
ATOM      6  H11 UNL     1      18.884   7.626  37.496  0.00  0.00    +0.156 HD
ENDROOT
BRANCH   1  10
ATOM      7  N2  UNL     1      15.025  11.561  35.766  0.00  0.00    -0.267 N 
ATOM      8  C4  UNL     1      15.366  11.007  34.466  0.00  0.00    +0.116 C 
ATOM      9  C5  UNL     1      16.902  10.890  34.439  0.00  0.00    +0.051 C 
ATOM     10  C6  UNL     1      17.398  11.115  35.879  0.00  0.00    +0.162 C 
ATOM     11  C20 UNL     1      16.188  11.608  36.575  0.00  0.00    +0.240 C 
ATOM     12  O2  UNL     1      16.193  12.008  37.769  0.00  0.00    -0.273 OA
BRANCH   7  16
ATOM     13  C1  UNL     1      10.541  11.532  37.904  0.00  0.00    +0.172 C 
ATOM     14  N1  UNL     1      11.709  11.917  37.124  0.00  0.00    -0.273 N 
ATOM     15  C2  UNL     1      12.853  11.216  37.023  0.00  0.00    +0.131 A 
ATOM     16  C3  UNL     1      13.686  11.904  36.164  0.00  0.00    +0.074 A 
ATOM     17  C21 UNL     1      12.976  13.026  35.775  0.00  0.00    +0.157 A 
ATOM     18  N6  UNL     1      11.767  13.007  36.371  0.00  0.00    -0.178 NA
ENDBRANCH   7  16
ENDBRANCH   1  10
BRANCH   4  19
ATOM     19  C8  UNL     1      20.824   7.464  36.609  0.00  0.00    +0.037 A 
ATOM     20  C9  UNL     1      21.755   7.338  37.653  0.00  0.00    +0.023 A 
ATOM     21  C10 UNL     1      22.975   6.694  37.438  0.00  0.00    +0.004 A 
ATOM     22  C11 UNL     1      23.277   6.161  36.184  0.00  0.00    +0.023 A 
ATOM     23  C12 UNL     1      22.351   6.258  35.134  0.00  0.00    +0.031 A 
ATOM     24  C19 UNL     1      21.122   6.902  35.354  0.00  0.00    +0.046 A 
BRANCH  23  25
ATOM     25  N5  UNL     1      22.657   5.700  33.843  0.00  0.00    -0.330 N 
ATOM     26  C13 UNL     1      23.852   6.172  33.119  0.00  0.00    +0.105 C 
ATOM     27  C14 UNL     1      23.514   6.877  31.785  0.00  0.00    +0.019 C 
ATOM     28  C15 UNL     1      22.081   6.667  31.275  0.00  0.00    +0.002 C 
ATOM     29  C16 UNL     1      21.777   5.215  30.866  0.00  0.00    +0.002 C 
ATOM     30  C17 UNL     1      22.149   4.153  31.916  0.00  0.00    +0.019 C 
ATOM     31  C18 UNL     1      21.831   4.577  33.359  0.00  0.00    +0.105 C 
ENDBRANCH  23  25
ENDBRANCH   4  19
TORSDOF 4
ENDMDL
MODEL 5
REMARK VINA RESULT:    -6.430      9.485     13.575
REMARK INTER + INTRA:          -8.604
REMARK INTER:                  -7.838
REMARK INTRA:                  -0.766
REMARK UNBOUND:                -0.670
REMARK  Name = /home/qwerty/github/datacon2025hack/step_04_hit_selection/docking/ligands/lig_647.pdb
REMARK  5 active torsions:
REMARK  status: ('A' for Active; 'I' for Inactive)
REMARK    1  A    between atoms: C1_1  and  N1_2
REMARK    2  A    between atoms: C3_4  and  N2_5
REMARK    3  A    between atoms: C6_8  and  N3_9
REMARK    4  A    between atoms: N4_12  and  C8_13
REMARK    5  A    between atoms: C12_17  and  N5_18
REMARK                            x       y       z     vdW  Elec       q    Type
REMARK                         _______ _______ _______ _____ _____    ______ ____
ROOT
ATOM      1  N3  UNL     1       9.407  11.512  27.285  0.00  0.00    -0.288 N 
ATOM      2  C7  UNL     1      10.430  11.901  28.210  0.00  0.00    +0.304 C 
ATOM      3  O1  UNL     1      11.439  11.164  28.383  0.00  0.00    -0.252 OA
ATOM      4  N4  UNL     1      10.316  13.151  28.907  0.00  0.00    -0.269 N 
ATOM      5  H10 UNL     1       8.559  12.120  27.204  0.00  0.00    +0.151 HD
ATOM      6  H11 UNL     1       9.656  13.859  28.516  0.00  0.00    +0.156 HD
ENDROOT
BRANCH   1  10
ATOM      7  N2  UNL     1       9.007  10.031  24.280  0.00  0.00    -0.267 N 
ATOM      8  C4  UNL     1       7.698   9.833  24.878  0.00  0.00    +0.116 C 
ATOM      9  C5  UNL     1       7.931   9.737  26.398  0.00  0.00    +0.051 C 
ATOM     10  C6  UNL     1       9.380  10.187  26.663  0.00  0.00    +0.162 C 
ATOM     11  C20 UNL     1       9.964  10.246  25.304  0.00  0.00    +0.240 C 
ATOM     12  O2  UNL     1      11.181  10.484  25.085  0.00  0.00    -0.273 OA
BRANCH   7  16
ATOM     13  C1  UNL     1      10.991   9.500  19.756  0.00  0.00    +0.172 C 
ATOM     14  N1  UNL     1      10.092   9.839  20.851  0.00  0.00    -0.273 N 
ATOM     15  C2  UNL     1      10.306   9.574  22.154  0.00  0.00    +0.131 A 
ATOM     16  C3  UNL     1       9.239  10.090  22.861  0.00  0.00    +0.074 A 
ATOM     17  C21 UNL     1       8.405  10.661  21.916  0.00  0.00    +0.157 A 
ATOM     18  N6  UNL     1       8.954  10.500  20.695  0.00  0.00    -0.178 NA
ENDBRANCH   7  16
ENDBRANCH   1  10
BRANCH   4  19
ATOM     19  C8  UNL     1      11.121  13.529  30.039  0.00  0.00    +0.037 A 
ATOM     20  C9  UNL     1      12.118  14.504  29.875  0.00  0.00    +0.023 A 
ATOM     21  C10 UNL     1      12.897  14.909  30.961  0.00  0.00    +0.004 A 
ATOM     22  C11 UNL     1      12.686  14.353  32.223  0.00  0.00    +0.023 A 
ATOM     23  C12 UNL     1      11.680  13.393  32.412  0.00  0.00    +0.031 A 
ATOM     24  C19 UNL     1      10.894  12.991  31.319  0.00  0.00    +0.046 A 
BRANCH  23  25
ATOM     25  N5  UNL     1      11.453  12.827  33.716  0.00  0.00    -0.330 N 
ATOM     26  C13 UNL     1      11.205  13.726  34.859  0.00  0.00    +0.105 C 
ATOM     27  C14 UNL     1      12.297  13.636  35.950  0.00  0.00    +0.019 C 
ATOM     28  C15 UNL     1      13.234  12.423  35.845  0.00  0.00    +0.002 C 
ATOM     29  C16 UNL     1      12.532  11.077  36.093  0.00  0.00    +0.002 C 
ATOM     30  C17 UNL     1      11.247  10.854  35.275  0.00  0.00    +0.019 C 
ATOM     31  C18 UNL     1      11.346  11.359  33.826  0.00  0.00    +0.105 C 
ENDBRANCH  23  25
ENDBRANCH   4  19
TORSDOF 4
ENDMDL
MODEL 6
REMARK VINA RESULT:    -6.349      8.913     11.699
REMARK INTER + INTRA:          -8.504
REMARK INTER:                  -7.627
REMARK INTRA:                  -0.877
REMARK UNBOUND:                -0.670
REMARK  Name = /home/qwerty/github/datacon2025hack/step_04_hit_selection/docking/ligands/lig_647.pdb
REMARK  5 active torsions:
REMARK  status: ('A' for Active; 'I' for Inactive)
REMARK    1  A    between atoms: C1_1  and  N1_2
REMARK    2  A    between atoms: C3_4  and  N2_5
REMARK    3  A    between atoms: C6_8  and  N3_9
REMARK    4  A    between atoms: N4_12  and  C8_13
REMARK    5  A    between atoms: C12_17  and  N5_18
REMARK                            x       y       z     vdW  Elec       q    Type
REMARK                         _______ _______ _______ _____ _____    ______ ____
ROOT
ATOM      1  N3  UNL     1      21.155  13.123  27.548  0.00  0.00    -0.288 N 
ATOM      2  C7  UNL     1      21.748  13.874  26.481  0.00  0.00    +0.304 C 
ATOM      3  O1  UNL     1      21.496  15.103  26.357  0.00  0.00    -0.252 OA
ATOM      4  N4  UNL     1      22.661  13.226  25.581  0.00  0.00    -0.269 N 
ATOM      5  H10 UNL     1      21.345  12.095  27.590  0.00  0.00    +0.151 HD
ATOM      6  H11 UNL     1      23.082  12.322  25.894  0.00  0.00    +0.156 HD
ENDROOT
BRANCH   1  10
ATOM      7  N2  UNL     1      19.676  12.640  30.541  0.00  0.00    -0.267 N 
ATOM      8  C4  UNL     1      18.704  12.048  29.637  0.00  0.00    +0.116 C 
ATOM      9  C5  UNL     1      18.823  12.824  28.312  0.00  0.00    +0.051 C 
ATOM     10  C6  UNL     1      20.102  13.677  28.400  0.00  0.00    +0.162 C 
ATOM     11  C20 UNL     1      20.482  13.562  29.826  0.00  0.00    +0.240 C 
ATOM     12  O2  UNL     1      21.435  14.202  30.341  0.00  0.00    -0.273 OA
BRANCH   7  16
ATOM     13  C1  UNL     1      19.749  12.656  35.508  0.00  0.00    +0.172 C 
ATOM     14  N1  UNL     1      19.840  12.238  34.117  0.00  0.00    -0.273 N 
ATOM     15  C2  UNL     1      19.592  13.015  33.045  0.00  0.00    +0.131 A 
ATOM     16  C3  UNL     1      19.829  12.253  31.918  0.00  0.00    +0.074 A 
ATOM     17  C21 UNL     1      20.222  11.011  32.383  0.00  0.00    +0.157 A 
ATOM     18  N6  UNL     1      20.227  11.030  33.731  0.00  0.00    -0.178 NA
ENDBRANCH   7  16
ENDBRANCH   1  10
BRANCH   4  19
ATOM     19  C8  UNL     1      23.110  13.785  24.333  0.00  0.00    +0.037 A 
ATOM     20  C9  UNL     1      24.257  14.595  24.319  0.00  0.00    +0.023 A 
ATOM     21  C10 UNL     1      24.731  15.130  23.119  0.00  0.00    +0.004 A 
ATOM     22  C11 UNL     1      24.071  14.858  21.920  0.00  0.00    +0.023 A 
ATOM     23  C12 UNL     1      22.935  14.034  21.910  0.00  0.00    +0.031 A 
ATOM     24  C19 UNL     1      22.464  13.492  23.118  0.00  0.00    +0.046 A 
BRANCH  23  25
ATOM     25  N5  UNL     1      22.260  13.743  20.673  0.00  0.00    -0.330 N 
ATOM     26  C13 UNL     1      21.737  14.857  19.859  0.00  0.00    +0.105 C 
ATOM     27  C14 UNL     1      20.197  14.832  19.715  0.00  0.00    +0.019 C 
ATOM     28  C15 UNL     1      19.520  13.514  20.120  0.00  0.00    +0.002 C 
ATOM     29  C16 UNL     1      19.869  12.331  19.201  0.00  0.00    +0.002 C 
ATOM     30  C17 UNL     1      21.374  12.123  18.953  0.00  0.00    +0.019 C 
ATOM     31  C18 UNL     1      22.240  12.344  20.205  0.00  0.00    +0.105 C 
ENDBRANCH  23  25
ENDBRANCH   4  19
TORSDOF 4
ENDMDL
MODEL 7
REMARK VINA RESULT:    -6.302      1.510      2.137
REMARK INTER + INTRA:          -8.447
REMARK INTER:                  -7.637
REMARK INTRA:                  -0.810
REMARK UNBOUND:                -0.670
REMARK  Name = /home/qwerty/github/datacon2025hack/step_04_hit_selection/docking/ligands/lig_647.pdb
REMARK  5 active torsions:
REMARK  status: ('A' for Active; 'I' for Inactive)
REMARK    1  A    between atoms: C1_1  and  N1_2
REMARK    2  A    between atoms: C3_4  and  N2_5
REMARK    3  A    between atoms: C6_8  and  N3_9
REMARK    4  A    between atoms: N4_12  and  C8_13
REMARK    5  A    between atoms: C12_17  and  N5_18
REMARK                            x       y       z     vdW  Elec       q    Type
REMARK                         _______ _______ _______ _____ _____    ______ ____
ROOT
ATOM      1  N3  UNL     1      16.565  10.312  35.407  0.00  0.00    -0.288 N 
ATOM      2  C7  UNL     1      17.855   9.942  35.912  0.00  0.00    +0.304 C 
ATOM      3  O1  UNL     1      18.652  10.830  36.320  0.00  0.00    -0.252 OA
ATOM      4  N4  UNL     1      18.214   8.554  35.986  0.00  0.00    -0.269 N 
ATOM      5  H10 UNL     1      15.950   9.555  35.029  0.00  0.00    +0.151 HD
ATOM      6  H11 UNL     1      17.439   7.855  35.944  0.00  0.00    +0.156 HD
ENDROOT
BRANCH   1  10
ATOM      7  N2  UNL     1      13.856  12.311  35.197  0.00  0.00    -0.267 N 
ATOM      8  C4  UNL     1      14.163  12.088  33.794  0.00  0.00    +0.116 C 
ATOM      9  C5  UNL     1      15.688  11.887  33.715  0.00  0.00    +0.051 C 
ATOM     10  C6  UNL     1      16.196  11.706  35.157  0.00  0.00    +0.162 C 
ATOM     11  C20 UNL     1      15.019  12.079  35.974  0.00  0.00    +0.240 C 
ATOM     12  O2  UNL     1      15.048  12.160  37.230  0.00  0.00    -0.273 OA
BRANCH   7  16
ATOM     13  C1  UNL     1       9.447  14.471  35.954  0.00  0.00    +0.172 C 
ATOM     14  N1  UNL     1      10.576  13.554  36.015  0.00  0.00    -0.273 N 
ATOM     15  C2  UNL     1      11.722  13.670  35.316  0.00  0.00    +0.131 A 
ATOM     16  C3  UNL     1      12.541  12.624  35.690  0.00  0.00    +0.074 A 
ATOM     17  C21 UNL     1      11.824  11.905  36.630  0.00  0.00    +0.157 A 
ATOM     18  N6  UNL     1      10.629  12.499  36.816  0.00  0.00    -0.178 NA
ENDBRANCH   7  16
ENDBRANCH   1  10
BRANCH   4  19
ATOM     19  C8  UNL     1      19.550   8.069  36.217  0.00  0.00    +0.037 A 
ATOM     20  C9  UNL     1      19.935   7.718  37.521  0.00  0.00    +0.023 A 
ATOM     21  C10 UNL     1      21.216   7.221  37.771  0.00  0.00    +0.004 A 
ATOM     22  C11 UNL     1      22.124   7.061  36.723  0.00  0.00    +0.023 A 
ATOM     23  C12 UNL     1      21.751   7.386  35.410  0.00  0.00    +0.031 A 
ATOM     24  C19 UNL     1      20.460   7.881  35.161  0.00  0.00    +0.046 A 
BRANCH  23  25
ATOM     25  N5  UNL     1      22.683   7.211  34.327  0.00  0.00    -0.330 N 
ATOM     26  C13 UNL     1      22.247   7.501  32.948  0.00  0.00    +0.105 C 
ATOM     27  C14 UNL     1      22.263   6.255  32.032  0.00  0.00    +0.019 C 
ATOM     28  C15 UNL     1      23.036   5.047  32.579  0.00  0.00    +0.002 C 
ATOM     29  C16 UNL     1      24.551   5.282  32.695  0.00  0.00    +0.002 C 
ATOM     30  C17 UNL     1      24.953   6.573  33.432  0.00  0.00    +0.019 C 
ATOM     31  C18 UNL     1      24.081   6.876  34.661  0.00  0.00    +0.105 C 
ENDBRANCH  23  25
ENDBRANCH   4  19
TORSDOF 4
ENDMDL
MODEL 8
REMARK VINA RESULT:    -6.280     13.455     15.616
REMARK INTER + INTRA:          -8.419
REMARK INTER:                  -7.460
REMARK INTRA:                  -0.960
REMARK UNBOUND:                -0.670
REMARK  Name = /home/qwerty/github/datacon2025hack/step_04_hit_selection/docking/ligands/lig_647.pdb
REMARK  5 active torsions:
REMARK  status: ('A' for Active; 'I' for Inactive)
REMARK    1  A    between atoms: C1_1  and  N1_2
REMARK    2  A    between atoms: C3_4  and  N2_5
REMARK    3  A    between atoms: C6_8  and  N3_9
REMARK    4  A    between atoms: N4_12  and  C8_13
REMARK    5  A    between atoms: C12_17  and  N5_18
REMARK                            x       y       z     vdW  Elec       q    Type
REMARK                         _______ _______ _______ _____ _____    ______ ____
ROOT
ATOM      1  N3  UNL     1      18.369   9.668  21.979  0.00  0.00    -0.288 N 
ATOM      2  C7  UNL     1      19.173  10.644  21.306  0.00  0.00    +0.304 C 
ATOM      3  O1  UNL     1      20.203  10.286  20.672  0.00  0.00    -0.252 OA
ATOM      4  N4  UNL     1      18.776  12.024  21.325  0.00  0.00    -0.269 N 
ATOM      5  H10 UNL     1      17.551  10.005  22.538  0.00  0.00    +0.151 HD
ATOM      6  H11 UNL     1      17.784  12.234  21.576  0.00  0.00    +0.156 HD
ENDROOT
BRANCH   1  10
ATOM      7  N2  UNL     1      17.219   6.515  21.631  0.00  0.00    -0.267 N 
ATOM      8  C4  UNL     1      17.130   6.700  23.070  0.00  0.00    +0.116 C 
ATOM      9  C5  UNL     1      18.258   7.680  23.446  0.00  0.00    +0.051 C 
ATOM     10  C6  UNL     1      18.797   8.276  22.132  0.00  0.00    +0.162 C 
ATOM     11  C20 UNL     1      18.164   7.428  21.097  0.00  0.00    +0.240 C 
ATOM     12  O2  UNL     1      18.425   7.525  19.870  0.00  0.00    -0.273 OA
BRANCH   7  16
ATOM     13  C1  UNL     1      13.384   4.418  19.269  0.00  0.00    +0.172 C 
ATOM     14  N1  UNL     1      14.708   4.677  19.817  0.00  0.00    -0.273 N 
ATOM     15  C2  UNL     1      15.066   5.765  20.525  0.00  0.00    +0.131 A 
ATOM     16  C3  UNL     1      16.389   5.605  20.888  0.00  0.00    +0.074 A 
ATOM     17  C21 UNL     1      16.775   4.385  20.362  0.00  0.00    +0.157 A 
ATOM     18  N6  UNL     1      15.727   3.835  19.718  0.00  0.00    -0.178 NA
ENDBRANCH   7  16
ENDBRANCH   1  10
BRANCH   4  19
ATOM     19  C8  UNL     1      19.618  13.120  20.924  0.00  0.00    +0.037 A 
ATOM     20  C9  UNL     1      19.568  13.573  19.596  0.00  0.00    +0.023 A 
ATOM     21  C10 UNL     1      20.356  14.651  19.186  0.00  0.00    +0.004 A 
ATOM     22  C11 UNL     1      21.195  15.295  20.097  0.00  0.00    +0.023 A 
ATOM     23  C12 UNL     1      21.242  14.872  21.434  0.00  0.00    +0.031 A 
ATOM     24  C19 UNL     1      20.446  13.790  21.845  0.00  0.00    +0.046 A 
BRANCH  23  25
ATOM     25  N5  UNL     1      22.099  15.542  22.376  0.00  0.00    -0.330 N 
ATOM     26  C13 UNL     1      23.246  16.323  21.878  0.00  0.00    +0.105 C 
ATOM     27  C14 UNL     1      24.611  15.760  22.339  0.00  0.00    +0.019 C 
ATOM     28  C15 UNL     1      24.547  14.737  23.483  0.00  0.00    +0.002 C 
ATOM     29  C16 UNL     1      24.066  15.330  24.818  0.00  0.00    +0.002 C 
ATOM     30  C17 UNL     1      22.763  16.145  24.734  0.00  0.00    +0.019 C 
ATOM     31  C18 UNL     1      21.710  15.527  23.800  0.00  0.00    +0.105 C 
ENDBRANCH  23  25
ENDBRANCH   4  19
TORSDOF 4
ENDMDL
MODEL 9
REMARK VINA RESULT:    -6.232     12.677     15.260
REMARK INTER + INTRA:          -8.359
REMARK INTER:                  -7.517
REMARK INTRA:                  -0.843
REMARK UNBOUND:                -0.670
REMARK  Name = /home/qwerty/github/datacon2025hack/step_04_hit_selection/docking/ligands/lig_647.pdb
REMARK  5 active torsions:
REMARK  status: ('A' for Active; 'I' for Inactive)
REMARK    1  A    between atoms: C1_1  and  N1_2
REMARK    2  A    between atoms: C3_4  and  N2_5
REMARK    3  A    between atoms: C6_8  and  N3_9
REMARK    4  A    between atoms: N4_12  and  C8_13
REMARK    5  A    between atoms: C12_17  and  N5_18
REMARK                            x       y       z     vdW  Elec       q    Type
REMARK                         _______ _______ _______ _____ _____    ______ ____
ROOT
ATOM      1  N3  UNL     1      20.830   8.153  21.388  0.00  0.00    -0.288 N 
ATOM      2  C7  UNL     1      20.571   9.549  21.582  0.00  0.00    +0.304 C 
ATOM      3  O1  UNL     1      19.610   9.919  22.310  0.00  0.00    -0.252 OA
ATOM      4  N4  UNL     1      21.438  10.520  20.976  0.00  0.00    -0.269 N 
ATOM      5  H10 UNL     1      21.602   7.882  20.737  0.00  0.00    +0.151 HD
ATOM      6  H11 UNL     1      22.377  10.192  20.657  0.00  0.00    +0.156 HD
ENDROOT
BRANCH   1  10
ATOM      7  N2  UNL     1      20.772   5.255  23.114  0.00  0.00    -0.267 N 
ATOM      8  C4  UNL     1      20.711   4.778  21.743  0.00  0.00    +0.116 C 
ATOM      9  C5  UNL     1      19.983   5.873  20.940  0.00  0.00    +0.051 C 
ATOM     10  C6  UNL     1      19.900   7.117  21.844  0.00  0.00    +0.162 C 
ATOM     11  C20 UNL     1      20.319   6.598  23.165  0.00  0.00    +0.240 C 
ATOM     12  O2  UNL     1      20.294   7.287  24.218  0.00  0.00    -0.273 OA
BRANCH   7  16
ATOM     13  C1  UNL     1      21.427   1.818  26.641  0.00  0.00    +0.172 C 
ATOM     14  N1  UNL     1      21.621   2.956  25.754  0.00  0.00    -0.273 N 
ATOM     15  C2  UNL     1      20.771   3.353  24.787  0.00  0.00    +0.131 A 
ATOM     16  C3  UNL     1      21.305   4.486  24.207  0.00  0.00    +0.074 A 
ATOM     17  C21 UNL     1      22.492   4.725  24.877  0.00  0.00    +0.157 A 
ATOM     18  N6  UNL     1      22.658   3.779  25.823  0.00  0.00    -0.178 NA
ENDBRANCH   7  16
ENDBRANCH   1  10
BRANCH   4  19
ATOM     19  C8  UNL     1      21.142  11.925  20.872  0.00  0.00    +0.037 A 
ATOM     20  C9  UNL     1      20.087  12.343  20.045  0.00  0.00    +0.023 A 
ATOM     21  C10 UNL     1      19.762  13.698  19.944  0.00  0.00    +0.004 A 
ATOM     22  C11 UNL     1      20.478  14.649  20.672  0.00  0.00    +0.023 A 
ATOM     23  C12 UNL     1      21.521  14.249  21.521  0.00  0.00    +0.031 A 
ATOM     24  C19 UNL     1      21.843  12.885  21.625  0.00  0.00    +0.046 A 
BRANCH  23  25
ATOM     25  N5  UNL     1      22.253  15.227  22.282  0.00  0.00    -0.330 N 
ATOM     26  C13 UNL     1      23.300  16.022  21.614  0.00  0.00    +0.105 C 
ATOM     27  C14 UNL     1      24.714  15.770  22.188  0.00  0.00    +0.019 C 
ATOM     28  C15 UNL     1      24.753  15.037  23.537  0.00  0.00    +0.002 C 
ATOM     29  C16 UNL     1      24.160  15.850  24.701  0.00  0.00    +0.002 C 
ATOM     30  C17 UNL     1      22.762  16.439  24.435  0.00  0.00    +0.019 C 
ATOM     31  C18 UNL     1      21.829  15.486  23.671  0.00  0.00    +0.105 C 
ENDBRANCH  23  25
ENDBRANCH   4  19
TORSDOF 4
ENDMDL
