REMARK  Name = /home/qwerty/github/datacon2025hack/step_04_hit_selection/docking/ligands/lig_284.pdb
REMARK  3 active torsions:
REMARK  status: ('A' for Active; 'I' for Inactive)
REMARK    1  A    between atoms: C1_2  and  C11_17
REMARK    2  A    between atoms: N1_3  and  C2_4
REMARK    3  A    between atoms: C5_8  and  C6_10
REMARK                            x       y       z     vdW  Elec       q    Type
REMARK                         _______ _______ _______ _____ _____    ______ ____
ROOT
ATOM      1  C2  UNL     1      -0.500   0.568  -0.416  0.00  0.00    +0.092 C 
ATOM      2  C3  UNL     1       0.150   1.067   0.874  0.00  0.00    +0.043 C 
ATOM      3  C4  UNL     1       1.649   0.959   0.633  0.00  0.00    +0.110 C 
ATOM      4  N2  UNL     1       1.804   0.003  -0.455  0.00  0.00    -0.295 N 
ATOM      5  C5  UNL     1       3.015  -0.727  -0.724  0.00  0.00    +0.263 C 
ATOM      6  O2  UNL     1       2.947  -1.849  -1.294  0.00  0.00    -0.268 OA
ATOM      7  C10 UNL     1       0.528  -0.371  -1.045  0.00  0.00    +0.130 C 
ENDROOT
BRANCH   5   8
ATOM      8  C6  UNL     1       4.345  -0.217  -0.334  0.00  0.00    +0.105 A 
ATOM      9  C7  UNL     1       4.733   1.112  -0.280  0.00  0.00    +0.070 A 
ATOM     10  C8  UNL     1       6.066   1.094   0.069  0.00  0.00    +0.141 A 
ATOM     11  F1  UNL     1       6.869   2.176   0.215  0.00  0.00    -0.204 F 
ATOM     12  C9  UNL     1       6.446  -0.222   0.202  0.00  0.00    +0.121 A 
ATOM     13  N3  UNL     1       5.393  -1.019  -0.054  0.00  0.00    -0.355 N 
ATOM     14  H9  UNL     1       5.395  -2.063  -0.040  0.00  0.00    +0.166 HD
ENDBRANCH   5   8
BRANCH   1  17
ATOM     15  O1  UNL     1      -3.029   1.853  -0.211  0.00  0.00    -0.270 OA
ATOM     16  C1  UNL     1      -3.017   0.597  -0.095  0.00  0.00    +0.250 C 
ATOM     17  N1  UNL     1      -1.769  -0.112  -0.143  0.00  0.00    -0.307 N 
ATOM     18  H1  UNL     1      -1.743  -1.091   0.223  0.00  0.00    +0.149 HD
BRANCH  16  19
ATOM     19  C11 UNL     1      -4.292  -0.128   0.113  0.00  0.00    +0.110 A 
ATOM     20  C12 UNL     1      -5.330   0.458   0.862  0.00  0.00    +0.156 A 
ATOM     21  F2  UNL     1      -5.179   1.681   1.431  0.00  0.00    -0.203 F 
ATOM     22  C13 UNL     1      -6.526  -0.239   1.049  0.00  0.00    +0.150 A 
ATOM     23  N4  UNL     1      -6.691  -1.472   0.504  0.00  0.00    -0.258 NA
ATOM     24  C14 UNL     1      -5.714  -2.061  -0.233  0.00  0.00    +0.150 A 
ATOM     25  C15 UNL     1      -4.500  -1.404  -0.446  0.00  0.00    +0.156 A 
ATOM     26  F3  UNL     1      -3.560  -1.992  -1.229  0.00  0.00    -0.203 F 
ENDBRANCH  16  19
ENDBRANCH   1  17
TORSDOF 3
