MODEL 1
REMARK VINA RESULT:    -6.248      0.000      0.000
REMARK INTER + INTRA:          -8.693
REMARK INTER:                  -8.074
REMARK INTRA:                  -0.619
REMARK UNBOUND:                -0.619
REMARK  Name = /home/qwerty/github/datacon2025hack/step_04_hit_selection/docking/ligands/lig_58.pdb
REMARK  6 active torsions:
REMARK  status: ('A' for Active; 'I' for Inactive)
REMARK    1  A    between atoms: C1_1  and  C2_2
REMARK    2  A    between atoms: C2_2  and  C3_3
REMARK    3  A    between atoms: C2_2  and  N3_16
REMARK    4  A    between atoms: C3_3  and  N1_4
REMARK    5  A    between atoms: C4_5  and  C5_7
REMARK    6  A    between atoms: C13_17  and  C14_19
REMARK                            x       y       z     vdW  Elec       q    Type
REMARK                         _______ _______ _______ _____ _____    ______ ____
ROOT
ATOM      1  N1  UNL     1       9.318   4.441  20.343  0.00  0.00    -0.308 N 
ATOM      2  C4  UNL     1      10.153   3.592  21.146  0.00  0.00    +0.260 C 
ATOM      3  O1  UNL     1       9.669   3.006  22.153  0.00  0.00    -0.269 OA
ATOM      4  H7  UNL     1       9.747   5.051  19.613  0.00  0.00    +0.149 HD
ENDROOT
BRANCH   2   5
ATOM      5  C5  UNL     1      11.578   3.393  20.819  0.00  0.00    +0.103 A 
ATOM      6  C6  UNL     1      12.476   4.385  20.419  0.00  0.00    +0.040 A 
ATOM      7  C7  UNL     1      13.669   3.726  20.217  0.00  0.00    +0.000 A 
ATOM      8  C8  UNL     1      14.911   4.206  19.807  0.00  0.00    +0.010 A 
ATOM      9  C9  UNL     1      15.964   3.280  19.682  0.00  0.00    +0.001 A 
ATOM     10  C10 UNL     1      15.750   1.912  19.966  0.00  0.00    +0.002 A 
ATOM     11  C11 UNL     1      14.483   1.459  20.375  0.00  0.00    +0.026 A 
ATOM     12  C12 UNL     1      13.461   2.400  20.490  0.00  0.00    +0.047 A 
ATOM     13  N2  UNL     1      12.188   2.182  20.858  0.00  0.00    -0.351 N 
ATOM     14  H13 UNL     1      11.760   1.266  21.120  0.00  0.00    +0.166 HD
ENDBRANCH   2   5
BRANCH   1  15
ATOM     15  C3  UNL     1       7.874   4.551  20.558  0.00  0.00    +0.126 C 
BRANCH  15  17
ATOM     16  C1  UNL     1       6.031   6.288  20.594  0.00  0.00    +0.029 C 
ATOM     17  C2  UNL     1       7.481   5.979  20.984  0.00  0.00    +0.087 C 
BRANCH  17  18
ATOM     18  N3  UNL     1       8.380   6.955  20.360  0.00  0.00    -0.305 N 
ATOM     19  C13 UNL     1       9.026   7.993  21.117  0.00  0.00    +0.281 C 
ATOM     20  O2  UNL     1       8.872   8.051  22.366  0.00  0.00    -0.267 OA
ATOM     21  H14 UNL     1       8.577   6.877  19.337  0.00  0.00    +0.149 HD
BRANCH  19  22
ATOM     22  C14 UNL     1       9.879   8.999  20.462  0.00  0.00    +0.209 A 
ATOM     23  C15 UNL     1       9.613  10.337  20.259  0.00  0.00    +0.165 A 
ATOM     24  N4  UNL     1      10.662  10.895  19.626  0.00  0.00    -0.224 NA
ATOM     25  C16 UNL     1      11.525   9.870  19.469  0.00  0.00    +0.308 A 
ATOM     26  O3  UNL     1      11.064   8.744  19.965  0.00  0.00    -0.438 OA
ENDBRANCH  19  22
ENDBRANCH  17  18
ENDBRANCH  15  17
ENDBRANCH   1  15
TORSDOF 5
ENDMDL
MODEL 2
REMARK VINA RESULT:    -6.010      3.990      9.201
REMARK INTER + INTRA:          -8.386
REMARK INTER:                  -7.827
REMARK INTRA:                  -0.559
REMARK UNBOUND:                -0.619
REMARK  Name = /home/qwerty/github/datacon2025hack/step_04_hit_selection/docking/ligands/lig_58.pdb
REMARK  6 active torsions:
REMARK  status: ('A' for Active; 'I' for Inactive)
REMARK    1  A    between atoms: C1_1  and  C2_2
REMARK    2  A    between atoms: C2_2  and  C3_3
REMARK    3  A    between atoms: C2_2  and  N3_16
REMARK    4  A    between atoms: C3_3  and  N1_4
REMARK    5  A    between atoms: C4_5  and  C5_7
REMARK    6  A    between atoms: C13_17  and  C14_19
REMARK                            x       y       z     vdW  Elec       q    Type
REMARK                         _______ _______ _______ _____ _____    ______ ____
ROOT
ATOM      1  N1  UNL     1      13.478   1.384  20.669  0.00  0.00    -0.308 N 
ATOM      2  C4  UNL     1      12.821   2.646  20.478  0.00  0.00    +0.260 C 
ATOM      3  O1  UNL     1      13.330   3.509  19.711  0.00  0.00    -0.269 OA
ATOM      4  H7  UNL     1      13.152   0.738  21.421  0.00  0.00    +0.149 HD
ENDROOT
BRANCH   2   5
ATOM      5  C5  UNL     1      11.556   2.962  21.170  0.00  0.00    +0.103 A 
ATOM      6  C6  UNL     1      11.179   2.516  22.438  0.00  0.00    +0.040 A 
ATOM      7  C7  UNL     1       9.927   3.052  22.648  0.00  0.00    +0.000 A 
ATOM      8  C8  UNL     1       9.065   2.940  23.736  0.00  0.00    +0.010 A 
ATOM      9  C9  UNL     1       7.827   3.606  23.664  0.00  0.00    +0.001 A 
ATOM     10  C10 UNL     1       7.486   4.359  22.516  0.00  0.00    +0.002 A 
ATOM     11  C11 UNL     1       8.379   4.449  21.433  0.00  0.00    +0.026 A 
ATOM     12  C12 UNL     1       9.597   3.779  21.535  0.00  0.00    +0.047 A 
ATOM     13  N2  UNL     1      10.582   3.732  20.624  0.00  0.00    -0.351 N 
ATOM     14  H13 UNL     1      10.591   4.195  19.687  0.00  0.00    +0.166 HD
ENDBRANCH   2   5
BRANCH   1  15
ATOM     15  C3  UNL     1      14.656   0.988  19.896  0.00  0.00    +0.126 C 
BRANCH  15  17
ATOM     16  C1  UNL     1      16.597  -0.639  19.978  0.00  0.00    +0.029 C 
ATOM     17  C2  UNL     1      15.709   0.308  20.793  0.00  0.00    +0.087 C 
BRANCH  17  18
ATOM     18  N3  UNL     1      15.048  -0.437  21.870  0.00  0.00    -0.305 N 
ATOM     19  C13 UNL     1      15.621  -0.557  23.182  0.00  0.00    +0.281 C 
ATOM     20  O2  UNL     1      16.701   0.034  23.455  0.00  0.00    -0.267 OA
ATOM     21  H14 UNL     1      14.117  -0.872  21.681  0.00  0.00    +0.149 HD
BRANCH  19  22
ATOM     22  C14 UNL     1      14.970  -1.359  24.231  0.00  0.00    +0.209 A 
ATOM     23  C15 UNL     1      13.999  -0.960  25.126  0.00  0.00    +0.165 A 
ATOM     24  N4  UNL     1      13.677  -2.007  25.910  0.00  0.00    -0.224 NA
ATOM     25  C16 UNL     1      14.468  -3.002  25.457  0.00  0.00    +0.308 A 
ATOM     26  O3  UNL     1      15.235  -2.621  24.460  0.00  0.00    -0.438 OA
ENDBRANCH  19  22
ENDBRANCH  17  18
ENDBRANCH  15  17
ENDBRANCH   1  15
TORSDOF 5
ENDMDL
MODEL 3
REMARK VINA RESULT:    -5.977     13.308     15.893
REMARK INTER + INTRA:          -8.344
REMARK INTER:                  -7.771
REMARK INTRA:                  -0.572
REMARK UNBOUND:                -0.619
REMARK  Name = /home/qwerty/github/datacon2025hack/step_04_hit_selection/docking/ligands/lig_58.pdb
REMARK  6 active torsions:
REMARK  status: ('A' for Active; 'I' for Inactive)
REMARK    1  A    between atoms: C1_1  and  C2_2
REMARK    2  A    between atoms: C2_2  and  C3_3
REMARK    3  A    between atoms: C2_2  and  N3_16
REMARK    4  A    between atoms: C3_3  and  N1_4
REMARK    5  A    between atoms: C4_5  and  C5_7
REMARK    6  A    between atoms: C13_17  and  C14_19
REMARK                            x       y       z     vdW  Elec       q    Type
REMARK                         _______ _______ _______ _____ _____    ______ ____
ROOT
ATOM      1  N1  UNL     1      21.809   2.493  30.843  0.00  0.00    -0.308 N 
ATOM      2  C4  UNL     1      22.018   3.152  32.102  0.00  0.00    +0.260 C 
ATOM      3  O1  UNL     1      21.696   2.572  33.175  0.00  0.00    -0.269 OA
ATOM      4  H7  UNL     1      21.920   3.027  29.953  0.00  0.00    +0.149 HD
ENDROOT
BRANCH   2   5
ATOM      5  C5  UNL     1      22.601   4.506  32.169  0.00  0.00    +0.103 A 
ATOM      6  C6  UNL     1      22.208   5.609  31.408  0.00  0.00    +0.040 A 
ATOM      7  C7  UNL     1      23.040   6.632  31.805  0.00  0.00    +0.000 A 
ATOM      8  C8  UNL     1      23.111   7.958  31.384  0.00  0.00    +0.010 A 
ATOM      9  C9  UNL     1      24.084   8.784  31.978  0.00  0.00    +0.001 A 
ATOM     10  C10 UNL     1      24.954   8.269  32.965  0.00  0.00    +0.002 A 
ATOM     11  C11 UNL     1      24.859   6.924  33.366  0.00  0.00    +0.026 A 
ATOM     12  C12 UNL     1      23.884   6.131  32.761  0.00  0.00    +0.047 A 
ATOM     13  N2  UNL     1      23.628   4.833  32.992  0.00  0.00    -0.351 N 
ATOM     14  H13 UNL     1      24.122   4.208  33.668  0.00  0.00    +0.166 HD
ENDBRANCH   2   5
BRANCH   1  15
ATOM     15  C3  UNL     1      21.362   1.103  30.750  0.00  0.00    +0.126 C 
BRANCH  15  17
ATOM     16  C1  UNL     1      22.505  -0.532  29.189  0.00  0.00    +0.029 C 
ATOM     17  C2  UNL     1      21.459   0.581  29.303  0.00  0.00    +0.087 C 
BRANCH  17  18
ATOM     18  N3  UNL     1      21.804   1.680  28.395  0.00  0.00    -0.305 N 
ATOM     19  C13 UNL     1      21.329   1.730  27.039  0.00  0.00    +0.281 C 
ATOM     20  O2  UNL     1      20.545   0.840  26.612  0.00  0.00    -0.267 OA
ATOM     21  H14 UNL     1      22.393   2.464  28.755  0.00  0.00    +0.149 HD
BRANCH  19  22
ATOM     22  C14 UNL     1      21.735   2.812  26.126  0.00  0.00    +0.209 A 
ATOM     23  C15 UNL     1      21.136   3.197  24.945  0.00  0.00    +0.165 A 
ATOM     24  N4  UNL     1      21.826   4.231  24.428  0.00  0.00    -0.224 NA
ATOM     25  C16 UNL     1      22.819   4.432  25.318  0.00  0.00    +0.308 A 
ATOM     26  O3  UNL     1      22.768   3.593  26.328  0.00  0.00    -0.438 OA
ENDBRANCH  19  22
ENDBRANCH  17  18
ENDBRANCH  15  17
ENDBRANCH   1  15
TORSDOF 5
ENDMDL
MODEL 4
REMARK VINA RESULT:    -5.755      7.392      9.827
REMARK INTER + INTRA:          -8.056
REMARK INTER:                  -7.476
REMARK INTRA:                  -0.579
REMARK UNBOUND:                -0.619
REMARK  Name = /home/qwerty/github/datacon2025hack/step_04_hit_selection/docking/ligands/lig_58.pdb
REMARK  6 active torsions:
REMARK  status: ('A' for Active; 'I' for Inactive)
REMARK    1  A    between atoms: C1_1  and  C2_2
REMARK    2  A    between atoms: C2_2  and  C3_3
REMARK    3  A    between atoms: C2_2  and  N3_16
REMARK    4  A    between atoms: C3_3  and  N1_4
REMARK    5  A    between atoms: C4_5  and  C5_7
REMARK    6  A    between atoms: C13_17  and  C14_19
REMARK                            x       y       z     vdW  Elec       q    Type
REMARK                         _______ _______ _______ _____ _____    ______ ____
ROOT
ATOM      1  N1  UNL     1       8.409  11.477  27.769  0.00  0.00    -0.308 N 
ATOM      2  C4  UNL     1       8.055  10.330  26.980  0.00  0.00    +0.260 C 
ATOM      3  O1  UNL     1       7.405   9.384  27.503  0.00  0.00    -0.269 OA
ATOM      4  H7  UNL     1       9.081  12.180  27.391  0.00  0.00    +0.149 HD
ENDROOT
BRANCH   2   5
ATOM      5  C5  UNL     1       8.444  10.231  25.560  0.00  0.00    +0.103 A 
ATOM      6  C6  UNL     1       9.730   9.985  25.075  0.00  0.00    +0.040 A 
ATOM      7  C7  UNL     1       9.603   9.996  23.703  0.00  0.00    +0.000 A 
ATOM      8  C8  UNL     1      10.555   9.813  22.703  0.00  0.00    +0.010 A 
ATOM      9  C9  UNL     1      10.124   9.884  21.365  0.00  0.00    +0.001 A 
ATOM     10  C10 UNL     1       8.766  10.136  21.064  0.00  0.00    +0.002 A 
ATOM     11  C11 UNL     1       7.829  10.319  22.097  0.00  0.00    +0.026 A 
ATOM     12  C12 UNL     1       8.287  10.242  23.412  0.00  0.00    +0.047 A 
ATOM     13  N2  UNL     1       7.568  10.388  24.536  0.00  0.00    -0.351 N 
ATOM     14  H13 UNL     1       6.544  10.584  24.604  0.00  0.00    +0.166 HD
ENDBRANCH   2   5
BRANCH   1  15
ATOM     15  C3  UNL     1       7.923  11.668  29.136  0.00  0.00    +0.126 C 
BRANCH  15  17
ATOM     16  C1  UNL     1       7.174  14.016  29.724  0.00  0.00    +0.029 C 
ATOM     17  C2  UNL     1       8.354  13.038  29.695  0.00  0.00    +0.087 C 
BRANCH  17  18
ATOM     18  N3  UNL     1       9.439  13.595  28.879  0.00  0.00    -0.305 N 
ATOM     19  C13 UNL     1      10.814  13.533  29.290  0.00  0.00    +0.281 C 
ATOM     20  O2  UNL     1      11.128  12.936  30.355  0.00  0.00    -0.267 OA
ATOM     21  H14 UNL     1       9.203  14.029  27.958  0.00  0.00    +0.149 HD
BRANCH  19  22
ATOM     22  C14 UNL     1      11.881  14.150  28.484  0.00  0.00    +0.209 A 
ATOM     23  C15 UNL     1      13.159  14.486  28.881  0.00  0.00    +0.165 A 
ATOM     24  N4  UNL     1      13.810  15.024  27.831  0.00  0.00    -0.224 NA
ATOM     25  C16 UNL     1      12.897  14.992  26.838  0.00  0.00    +0.308 A 
ATOM     26  O3  UNL     1      11.753  14.473  27.221  0.00  0.00    -0.438 OA
ENDBRANCH  19  22
ENDBRANCH  17  18
ENDBRANCH  15  17
ENDBRANCH   1  15
TORSDOF 5
ENDMDL
MODEL 5
REMARK VINA RESULT:    -5.693     10.386     13.857
REMARK INTER + INTRA:          -7.976
REMARK INTER:                  -7.477
REMARK INTRA:                  -0.499
REMARK UNBOUND:                -0.619
REMARK  Name = /home/qwerty/github/datacon2025hack/step_04_hit_selection/docking/ligands/lig_58.pdb
REMARK  6 active torsions:
REMARK  status: ('A' for Active; 'I' for Inactive)
REMARK    1  A    between atoms: C1_1  and  C2_2
REMARK    2  A    between atoms: C2_2  and  C3_3
REMARK    3  A    between atoms: C2_2  and  N3_16
REMARK    4  A    between atoms: C3_3  and  N1_4
REMARK    5  A    between atoms: C4_5  and  C5_7
REMARK    6  A    between atoms: C13_17  and  C14_19
REMARK                            x       y       z     vdW  Elec       q    Type
REMARK                         _______ _______ _______ _____ _____    ______ ____
ROOT
ATOM      1  N1  UNL     1      21.026   0.716  27.359  0.00  0.00    -0.308 N 
ATOM      2  C4  UNL     1      20.676   1.303  26.096  0.00  0.00    +0.260 C 
ATOM      3  O1  UNL     1      21.338   2.282  25.655  0.00  0.00    -0.269 OA
ATOM      4  H7  UNL     1      20.387   0.019  27.803  0.00  0.00    +0.149 HD
ENDROOT
BRANCH   2   5
ATOM      5  C5  UNL     1      19.548   0.786  25.299  0.00  0.00    +0.103 A 
ATOM      6  C6  UNL     1      18.604   1.554  24.614  0.00  0.00    +0.040 A 
ATOM      7  C7  UNL     1      17.750   0.640  24.037  0.00  0.00    +0.000 A 
ATOM      8  C8  UNL     1      16.622   0.831  23.242  0.00  0.00    +0.010 A 
ATOM      9  C9  UNL     1      15.934  -0.313  22.794  0.00  0.00    +0.001 A 
ATOM     10  C10 UNL     1      16.386  -1.604  23.149  0.00  0.00    +0.002 A 
ATOM     11  C11 UNL     1      17.528  -1.762  23.955  0.00  0.00    +0.026 A 
ATOM     12  C12 UNL     1      18.188  -0.611  24.383  0.00  0.00    +0.047 A 
ATOM     13  N2  UNL     1      19.285  -0.537  25.154  0.00  0.00    -0.351 N 
ATOM     14  H13 UNL     1      19.821  -1.338  25.558  0.00  0.00    +0.166 HD
ENDBRANCH   2   5
BRANCH   1  15
ATOM     15  C3  UNL     1      22.219   1.115  28.107  0.00  0.00    +0.126 C 
BRANCH  15  17
ATOM     16  C1  UNL     1      22.898  -1.227  28.795  0.00  0.00    +0.029 C 
ATOM     17  C2  UNL     1      22.481   0.162  29.289  0.00  0.00    +0.087 C 
BRANCH  17  18
ATOM     18  N3  UNL     1      21.279   0.052  30.122  0.00  0.00    -0.305 N 
ATOM     19  C13 UNL     1      21.029   0.935  31.228  0.00  0.00    +0.281 C 
ATOM     20  O2  UNL     1      21.828   1.878  31.474  0.00  0.00    -0.267 OA
ATOM     21  H14 UNL     1      20.569  -0.679  29.886  0.00  0.00    +0.149 HD
BRANCH  19  22
ATOM     22  C14 UNL     1      19.844   0.769  32.086  0.00  0.00    +0.209 A 
ATOM     23  C15 UNL     1      19.482   1.516  33.188  0.00  0.00    +0.165 A 
ATOM     24  N4  UNL     1      18.325   1.030  33.678  0.00  0.00    -0.224 NA
ATOM     25  C16 UNL     1      18.032   0.005  32.851  0.00  0.00    +0.308 A 
ATOM     26  O3  UNL     1      18.930  -0.152  31.905  0.00  0.00    -0.438 OA
ENDBRANCH  19  22
ENDBRANCH  17  18
ENDBRANCH  15  17
ENDBRANCH   1  15
TORSDOF 5
ENDMDL
MODEL 6
REMARK VINA RESULT:    -5.652     14.246     16.347
REMARK INTER + INTRA:          -7.924
REMARK INTER:                  -7.059
REMARK INTRA:                  -0.865
REMARK UNBOUND:                -0.619
REMARK  Name = /home/qwerty/github/datacon2025hack/step_04_hit_selection/docking/ligands/lig_58.pdb
REMARK  6 active torsions:
REMARK  status: ('A' for Active; 'I' for Inactive)
REMARK    1  A    between atoms: C1_1  and  C2_2
REMARK    2  A    between atoms: C2_2  and  C3_3
REMARK    3  A    between atoms: C2_2  and  N3_16
REMARK    4  A    between atoms: C3_3  and  N1_4
REMARK    5  A    between atoms: C4_5  and  C5_7
REMARK    6  A    between atoms: C13_17  and  C14_19
REMARK                            x       y       z     vdW  Elec       q    Type
REMARK                         _______ _______ _______ _____ _____    ______ ____
ROOT
ATOM      1  N1  UNL     1      10.865  13.723  34.512  0.00  0.00    -0.308 N 
ATOM      2  C4  UNL     1      11.918  14.167  33.642  0.00  0.00    +0.260 C 
ATOM      3  O1  UNL     1      13.011  14.564  34.133  0.00  0.00    -0.269 OA
ATOM      4  H7  UNL     1       9.911  13.551  34.125  0.00  0.00    +0.149 HD
ENDROOT
BRANCH   2   5
ATOM      5  C5  UNL     1      11.748  14.175  32.177  0.00  0.00    +0.103 A 
ATOM      6  C6  UNL     1      12.665  14.665  31.245  0.00  0.00    +0.040 A 
ATOM      7  C7  UNL     1      12.067  14.472  30.019  0.00  0.00    +0.000 A 
ATOM      8  C8  UNL     1      12.514  14.773  28.735  0.00  0.00    +0.010 A 
ATOM      9  C9  UNL     1      11.668  14.460  27.655  0.00  0.00    +0.001 A 
ATOM     10  C10 UNL     1      10.408  13.862  27.883  0.00  0.00    +0.002 A 
ATOM     11  C11 UNL     1       9.984  13.573  29.194  0.00  0.00    +0.026 A 
ATOM     12  C12 UNL     1      10.845  13.894  30.242  0.00  0.00    +0.047 A 
ATOM     13  N2  UNL     1      10.637  13.708  31.555  0.00  0.00    -0.351 N 
ATOM     14  H13 UNL     1       9.790  13.289  32.002  0.00  0.00    +0.166 HD
ENDBRANCH   2   5
BRANCH   1  15
ATOM     15  C3  UNL     1      11.049  13.574  35.955  0.00  0.00    +0.126 C 
BRANCH  15  17
ATOM     16  C1  UNL     1      10.930  11.592  37.530  0.00  0.00    +0.029 C 
ATOM     17  C2  UNL     1      11.629  12.189  36.304  0.00  0.00    +0.087 C 
BRANCH  17  18
ATOM     18  N3  UNL     1      13.070  12.297  36.560  0.00  0.00    -0.305 N 
ATOM     19  C13 UNL     1      14.049  11.709  35.688  0.00  0.00    +0.281 C 
ATOM     20  O2  UNL     1      13.683  11.123  34.633  0.00  0.00    -0.267 OA
ATOM     21  H14 UNL     1      13.393  12.842  37.391  0.00  0.00    +0.149 HD
BRANCH  19  22
ATOM     22  C14 UNL     1      15.487  11.779  35.995  0.00  0.00    +0.209 A 
ATOM     23  C15 UNL     1      16.360  10.735  36.223  0.00  0.00    +0.165 A 
ATOM     24  N4  UNL     1      17.585  11.240  36.463  0.00  0.00    -0.224 NA
ATOM     25  C16 UNL     1      17.405  12.574  36.369  0.00  0.00    +0.308 A 
ATOM     26  O3  UNL     1      16.163  12.897  36.091  0.00  0.00    -0.438 OA
ENDBRANCH  19  22
ENDBRANCH  17  18
ENDBRANCH  15  17
ENDBRANCH   1  15
TORSDOF 5
ENDMDL
MODEL 7
REMARK VINA RESULT:    -5.596     11.304     13.758
REMARK INTER + INTRA:          -7.851
REMARK INTER:                  -7.244
REMARK INTRA:                  -0.606
REMARK UNBOUND:                -0.619
REMARK  Name = /home/qwerty/github/datacon2025hack/step_04_hit_selection/docking/ligands/lig_58.pdb
REMARK  6 active torsions:
REMARK  status: ('A' for Active; 'I' for Inactive)
REMARK    1  A    between atoms: C1_1  and  C2_2
REMARK    2  A    between atoms: C2_2  and  C3_3
REMARK    3  A    between atoms: C2_2  and  N3_16
REMARK    4  A    between atoms: C3_3  and  N1_4
REMARK    5  A    between atoms: C4_5  and  C5_7
REMARK    6  A    between atoms: C13_17  and  C14_19
REMARK                            x       y       z     vdW  Elec       q    Type
REMARK                         _______ _______ _______ _____ _____    ______ ____
ROOT
ATOM      1  N1  UNL     1      10.197  13.350  29.784  0.00  0.00    -0.308 N 
ATOM      2  C4  UNL     1      11.222  13.840  30.662  0.00  0.00    +0.260 C 
ATOM      3  O1  UNL     1      12.095  14.639  30.223  0.00  0.00    -0.269 OA
ATOM      4  H7  UNL     1       9.577  12.570  30.095  0.00  0.00    +0.149 HD
ENDROOT
BRANCH   2   5
ATOM      5  C5  UNL     1      11.282  13.422  32.076  0.00  0.00    +0.103 A 
ATOM      6  C6  UNL     1      11.310  14.272  33.184  0.00  0.00    +0.040 A 
ATOM      7  C7  UNL     1      11.379  13.433  34.275  0.00  0.00    +0.000 A 
ATOM      8  C8  UNL     1      11.436  13.721  35.637  0.00  0.00    +0.010 A 
ATOM      9  C9  UNL     1      11.506  12.639  36.534  0.00  0.00    +0.001 A 
ATOM     10  C10 UNL     1      11.518  11.310  36.052  0.00  0.00    +0.002 A 
ATOM     11  C11 UNL     1      11.461  11.053  34.670  0.00  0.00    +0.026 A 
ATOM     12  C12 UNL     1      11.392  12.146  33.807  0.00  0.00    +0.047 A 
ATOM     13  N2  UNL     1      11.334  12.124  32.465  0.00  0.00    -0.351 N 
ATOM     14  H13 UNL     1      11.332  11.278  31.852  0.00  0.00    +0.166 HD
ENDBRANCH   2   5
BRANCH   1  15
ATOM     15  C3  UNL     1      10.028  13.849  28.419  0.00  0.00    +0.126 C 
BRANCH  15  17
ATOM     16  C1  UNL     1       7.680  14.196  27.533  0.00  0.00    +0.029 C 
ATOM     17  C2  UNL     1       8.819  13.188  27.729  0.00  0.00    +0.087 C 
BRANCH  17  18
ATOM     18  N3  UNL     1       8.343  12.053  28.526  0.00  0.00    -0.305 N 
ATOM     19  C13 UNL     1       8.225  10.729  27.978  0.00  0.00    +0.281 C 
ATOM     20  O2  UNL     1       8.588  10.503  26.793  0.00  0.00    -0.267 OA
ATOM     21  H14 UNL     1       8.107  12.209  29.532  0.00  0.00    +0.149 HD
BRANCH  19  22
ATOM     22  C14 UNL     1       7.690   9.615  28.779  0.00  0.00    +0.209 A 
ATOM     23  C15 UNL     1       7.581   8.287  28.422  0.00  0.00    +0.165 A 
ATOM     24  N4  UNL     1       7.040   7.607  29.451  0.00  0.00    -0.224 NA
ATOM     25  C16 UNL     1       6.843   8.552  30.393  0.00  0.00    +0.308 A 
ATOM     26  O3  UNL     1       7.228   9.745  29.998  0.00  0.00    -0.438 OA
ENDBRANCH  19  22
ENDBRANCH  17  18
ENDBRANCH  15  17
ENDBRANCH   1  15
TORSDOF 5
ENDMDL
MODEL 8
REMARK VINA RESULT:    -5.538     10.831     13.507
REMARK INTER + INTRA:          -7.776
REMARK INTER:                  -7.224
REMARK INTRA:                  -0.552
REMARK UNBOUND:                -0.619
REMARK  Name = /home/qwerty/github/datacon2025hack/step_04_hit_selection/docking/ligands/lig_58.pdb
REMARK  6 active torsions:
REMARK  status: ('A' for Active; 'I' for Inactive)
REMARK    1  A    between atoms: C1_1  and  C2_2
REMARK    2  A    between atoms: C2_2  and  C3_3
REMARK    3  A    between atoms: C2_2  and  N3_16
REMARK    4  A    between atoms: C3_3  and  N1_4
REMARK    5  A    between atoms: C4_5  and  C5_7
REMARK    6  A    between atoms: C13_17  and  C14_19
REMARK                            x       y       z     vdW  Elec       q    Type
REMARK                         _______ _______ _______ _____ _____    ______ ____
ROOT
ATOM      1  N1  UNL     1      19.734   1.303  27.029  0.00  0.00    -0.308 N 
ATOM      2  C4  UNL     1      19.293   0.644  25.831  0.00  0.00    +0.260 C 
ATOM      3  O1  UNL     1      19.973   0.742  24.774  0.00  0.00    -0.269 OA
ATOM      4  H7  UNL     1      19.097   1.362  27.854  0.00  0.00    +0.149 HD
ENDROOT
BRANCH   2   5
ATOM      5  C5  UNL     1      18.048  -0.148  25.810  0.00  0.00    +0.103 A 
ATOM      6  C6  UNL     1      16.914   0.082  26.592  0.00  0.00    +0.040 A 
ATOM      7  C7  UNL     1      16.027  -0.910  26.235  0.00  0.00    +0.000 A 
ATOM      8  C8  UNL     1      14.739  -1.181  26.690  0.00  0.00    +0.010 A 
ATOM      9  C9  UNL     1      14.065  -2.285  26.135  0.00  0.00    +0.001 A 
ATOM     10  C10 UNL     1      14.689  -3.083  25.150  0.00  0.00    +0.002 A 
ATOM     11  C11 UNL     1      15.993  -2.785  24.713  0.00  0.00    +0.026 A 
ATOM     12  C12 UNL     1      16.634  -1.685  25.282  0.00  0.00    +0.047 A 
ATOM     13  N2  UNL     1      17.869  -1.231  25.013  0.00  0.00    -0.351 N 
ATOM     14  H13 UNL     1      18.549  -1.634  24.330  0.00  0.00    +0.166 HD
ENDBRANCH   2   5
BRANCH   1  15
ATOM     15  C3  UNL     1      21.028   1.980  27.120  0.00  0.00    +0.126 C 
BRANCH  15  17
ATOM     16  C1  UNL     1      22.800   0.909  28.581  0.00  0.00    +0.029 C 
ATOM     17  C2  UNL     1      21.612   1.877  28.543  0.00  0.00    +0.087 C 
BRANCH  17  18
ATOM     18  N3  UNL     1      20.577   1.427  29.480  0.00  0.00    -0.305 N 
ATOM     19  C13 UNL     1      20.614   1.759  30.877  0.00  0.00    +0.281 C 
ATOM     20  O2  UNL     1      21.526   2.506  31.324  0.00  0.00    -0.267 OA
ATOM     21  H14 UNL     1      19.774   0.868  29.112  0.00  0.00    +0.149 HD
BRANCH  19  22
ATOM     22  C14 UNL     1      19.597   1.249  31.812  0.00  0.00    +0.209 A 
ATOM     23  C15 UNL     1      19.172  -0.053  31.978  0.00  0.00    +0.165 A 
ATOM     24  N4  UNL     1      18.230  -0.081  32.940  0.00  0.00    -0.224 NA
ATOM     25  C16 UNL     1      18.121   1.209  33.320  0.00  0.00    +0.308 A 
ATOM     26  O3  UNL     1      18.931   2.001  32.654  0.00  0.00    -0.438 OA
ENDBRANCH  19  22
ENDBRANCH  17  18
ENDBRANCH  15  17
ENDBRANCH   1  15
TORSDOF 5
ENDMDL
MODEL 9
REMARK VINA RESULT:    -5.385      3.846      9.027
REMARK INTER + INTRA:          -7.578
REMARK INTER:                  -7.109
REMARK INTRA:                  -0.470
REMARK UNBOUND:                -0.619
REMARK  Name = /home/qwerty/github/datacon2025hack/step_04_hit_selection/docking/ligands/lig_58.pdb
REMARK  6 active torsions:
REMARK  status: ('A' for Active; 'I' for Inactive)
REMARK    1  A    between atoms: C1_1  and  C2_2
REMARK    2  A    between atoms: C2_2  and  C3_3
REMARK    3  A    between atoms: C2_2  and  N3_16
REMARK    4  A    between atoms: C3_3  and  N1_4
REMARK    5  A    between atoms: C4_5  and  C5_7
REMARK    6  A    between atoms: C13_17  and  C14_19
REMARK                            x       y       z     vdW  Elec       q    Type
REMARK                         _______ _______ _______ _____ _____    ______ ____
ROOT
ATOM      1  N1  UNL     1      13.081   2.668  20.615  0.00  0.00    -0.308 N 
ATOM      2  C4  UNL     1      12.692   3.891  19.969  0.00  0.00    +0.260 C 
ATOM      3  O1  UNL     1      13.466   4.433  19.133  0.00  0.00    -0.269 OA
ATOM      4  H7  UNL     1      12.524   2.307  21.420  0.00  0.00    +0.149 HD
ENDROOT
BRANCH   2   5
ATOM      5  C5  UNL     1      11.399   4.536  20.269  0.00  0.00    +0.103 A 
ATOM      6  C6  UNL     1      11.161   5.910  20.332  0.00  0.00    +0.040 A 
ATOM      7  C7  UNL     1       9.826   6.028  20.653  0.00  0.00    +0.000 A 
ATOM      8  C8  UNL     1       9.038   7.159  20.852  0.00  0.00    +0.010 A 
ATOM      9  C9  UNL     1       7.683   6.965  21.181  0.00  0.00    +0.001 A 
ATOM     10  C10 UNL     1       7.157   5.659  21.303  0.00  0.00    +0.002 A 
ATOM     11  C11 UNL     1       7.980   4.537  21.099  0.00  0.00    +0.026 A 
ATOM     12  C12 UNL     1       9.317   4.762  20.774  0.00  0.00    +0.047 A 
ATOM     13  N2  UNL     1      10.267   3.841  20.543  0.00  0.00    -0.351 N 
ATOM     14  H13 UNL     1      10.153   2.802  20.570  0.00  0.00    +0.166 HD
ENDBRANCH   2   5
BRANCH   1  15
ATOM     15  C3  UNL     1      14.289   1.934  20.240  0.00  0.00    +0.126 C 
BRANCH  15  17
ATOM     16  C1  UNL     1      16.608   2.898  20.576  0.00  0.00    +0.029 C 
ATOM     17  C2  UNL     1      15.429   2.184  21.247  0.00  0.00    +0.087 C 
BRANCH  17  18
ATOM     18  N3  UNL     1      15.883   0.912  21.820  0.00  0.00    -0.305 N 
ATOM     19  C13 UNL     1      16.164   0.760  23.221  0.00  0.00    +0.281 C 
ATOM     20  O2  UNL     1      15.968   1.723  24.011  0.00  0.00    -0.267 OA
ATOM     21  H14 UNL     1      15.980   0.083  21.190  0.00  0.00    +0.149 HD
BRANCH  19  22
ATOM     22  C14 UNL     1      16.674  -0.509  23.766  0.00  0.00    +0.209 A 
ATOM     23  C15 UNL     1      17.653  -0.692  24.720  0.00  0.00    +0.165 A 
ATOM     24  N4  UNL     1      17.810  -2.013  24.930  0.00  0.00    -0.224 NA
ATOM     25  C16 UNL     1      16.916  -2.579  24.093  0.00  0.00    +0.308 A 
ATOM     26  O3  UNL     1      16.240  -1.690  23.401  0.00  0.00    -0.438 OA
ENDBRANCH  19  22
ENDBRANCH  17  18
ENDBRANCH  15  17
ENDBRANCH   1  15
TORSDOF 5
ENDMDL
