MODEL 1
REMARK VINA RESULT:    -5.675      0.000      0.000
REMARK INTER + INTRA:          -9.779
REMARK INTER:                  -7.334
REMARK INTRA:                  -2.445
REMARK UNBOUND:                -2.445
REMARK  Name = /home/qwerty/github/datacon2025hack/step_04_hit_selection/docking/ligands/lig_731.pdb
REMARK  5 active torsions:
REMARK  status: ('A' for Active; 'I' for Inactive)
REMARK    1  A    between atoms: C1_2  and  C14_17
REMARK    2  A    between atoms: N1_3  and  C2_4
REMARK    3  A    between atoms: C2_4  and  C3_5
REMARK    4  A    between atoms: N2_9  and  C7_10
REMARK    5  A    between atoms: C7_10  and  C8_11
REMARK                            x       y       z     vdW  Elec       q    Type
REMARK                         _______ _______ _______ _____ _____    ______ ____
ROOT
ATOM      1  O1  UNL     1      24.379  12.750  21.709  0.00  0.00    -0.270 OA
ATOM      2  C1  UNL     1      23.243  12.798  22.257  0.00  0.00    +0.244 C 
ATOM      3  N1  UNL     1      22.130  12.142  21.631  0.00  0.00    -0.310 N 
ATOM      4  H1  UNL     1      21.261  11.965  22.181  0.00  0.00    +0.149 HD
ENDROOT
BRANCH   2   5
ATOM      5  C14 UNL     1      23.085  13.530  23.539  0.00  0.00    +0.039 A 
ATOM      6  C15 UNL     1      24.103  14.428  23.969  0.00  0.00    +0.014 A 
ATOM      7  C16 UNL     1      23.969  15.154  25.166  0.00  0.00    +0.011 A 
ATOM      8  C17 UNL     1      22.805  14.969  25.911  0.00  0.00    -0.000 A 
ATOM      9  C18 UNL     1      22.389  15.549  27.092  0.00  0.00    +0.027 A 
ATOM     10  C19 UNL     1      21.141  14.996  27.353  0.00  0.00    +0.083 A 
ATOM     11  N3  UNL     1      20.791  14.121  26.382  0.00  0.00    -0.361 N 
ATOM     12  C20 UNL     1      21.817  14.111  25.510  0.00  0.00    +0.047 A 
ATOM     13  C21 UNL     1      21.915  13.378  24.329  0.00  0.00    +0.039 A 
ATOM     14  H22 UNL     1      19.905  13.569  26.325  0.00  0.00    +0.165 HD
ENDBRANCH   2   5
BRANCH   3  15
ATOM     15  C2  UNL     1      22.214  11.671  20.247  0.00  0.00    +0.123 C 
BRANCH  15  16
ATOM     16  C3  UNL     1      20.947  12.031  19.453  0.00  0.00    +0.074 C 
ATOM     17  C4  UNL     1      20.056  10.814  19.210  0.00  0.00    +0.022 C 
ATOM     18  C5  UNL     1      18.660  11.382  19.230  0.00  0.00    +0.017 C 
ATOM     19  C6  UNL     1      18.753  12.537  20.207  0.00  0.00    +0.085 C 
ATOM     20  N2  UNL     1      20.149  13.015  20.213  0.00  0.00    -0.294 NA
BRANCH  20  21
ATOM     21  C7  UNL     1      20.280  14.374  19.648  0.00  0.00    +0.120 C 
BRANCH  21  22
ATOM     22  C8  UNL     1      20.896  15.302  20.662  0.00  0.00    -0.033 A 
ATOM     23  C9  UNL     1      22.183  15.828  20.443  0.00  0.00    +0.005 A 
ATOM     24  C10 UNL     1      22.769  16.675  21.389  0.00  0.00    +0.000 A 
ATOM     25  C11 UNL     1      22.079  16.998  22.561  0.00  0.00    +0.000 A 
ATOM     26  C12 UNL     1      20.804  16.474  22.790  0.00  0.00    +0.000 A 
ATOM     27  C13 UNL     1      20.212  15.628  21.846  0.00  0.00    +0.005 A 
ENDBRANCH  21  22
ENDBRANCH  20  21
ENDBRANCH  15  16
ENDBRANCH   3  15
TORSDOF 5
ENDMDL
MODEL 2
REMARK VINA RESULT:    -5.525      2.115      4.174
REMARK INTER + INTRA:          -9.584
REMARK INTER:                  -8.612
REMARK INTRA:                  -0.972
REMARK UNBOUND:                -2.445
REMARK  Name = /home/qwerty/github/datacon2025hack/step_04_hit_selection/docking/ligands/lig_731.pdb
REMARK  5 active torsions:
REMARK  status: ('A' for Active; 'I' for Inactive)
REMARK    1  A    between atoms: C1_2  and  C14_17
REMARK    2  A    between atoms: N1_3  and  C2_4
REMARK    3  A    between atoms: C2_4  and  C3_5
REMARK    4  A    between atoms: N2_9  and  C7_10
REMARK    5  A    between atoms: C7_10  and  C8_11
REMARK                            x       y       z     vdW  Elec       q    Type
REMARK                         _______ _______ _______ _____ _____    ______ ____
ROOT
ATOM      1  O1  UNL     1      22.083  14.145  20.539  0.00  0.00    -0.270 OA
ATOM      2  C1  UNL     1      23.097  13.691  21.140  0.00  0.00    +0.244 C 
ATOM      3  N1  UNL     1      24.050  12.899  20.415  0.00  0.00    -0.310 N 
ATOM      4  H1  UNL     1      24.995  12.728  20.824  0.00  0.00    +0.149 HD
ENDROOT
BRANCH   2   5
ATOM      5  C14 UNL     1      23.281  13.990  22.582  0.00  0.00    +0.039 A 
ATOM      6  C15 UNL     1      24.210  14.993  22.981  0.00  0.00    +0.014 A 
ATOM      7  C16 UNL     1      24.388  15.316  24.339  0.00  0.00    +0.011 A 
ATOM      8  C17 UNL     1      23.620  14.625  25.276  0.00  0.00    -0.000 A 
ATOM      9  C18 UNL     1      23.560  14.738  26.650  0.00  0.00    +0.027 A 
ATOM     10  C19 UNL     1      22.607  13.809  27.053  0.00  0.00    +0.083 A 
ATOM     11  N3  UNL     1      22.093  13.155  25.986  0.00  0.00    -0.361 N 
ATOM     12  C20 UNL     1      22.723  13.659  24.908  0.00  0.00    +0.047 A 
ATOM     13  C21 UNL     1      22.519  13.317  23.573  0.00  0.00    +0.039 A 
ATOM     14  H22 UNL     1      21.358  12.412  26.000  0.00  0.00    +0.165 HD
ENDBRANCH   2   5
BRANCH   3  15
ATOM     15  C2  UNL     1      23.735  12.368  19.087  0.00  0.00    +0.123 C 
BRANCH  15  16
ATOM     16  C3  UNL     1      23.785  10.831  19.069  0.00  0.00    +0.074 C 
ATOM     17  C4  UNL     1      24.990  10.286  19.833  0.00  0.00    +0.022 C 
ATOM     18  C5  UNL     1      24.489   8.990  20.416  0.00  0.00    +0.017 C 
ATOM     19  C6  UNL     1      23.017   9.250  20.666  0.00  0.00    +0.085 C 
ATOM     20  N2  UNL     1      22.572  10.289  19.716  0.00  0.00    -0.294 NA
BRANCH  20  21
ATOM     21  C7  UNL     1      21.612   9.767  18.722  0.00  0.00    +0.120 C 
BRANCH  21  22
ATOM     22  C8  UNL     1      20.244  10.346  18.967  0.00  0.00    -0.033 A 
ATOM     23  C9  UNL     1      20.078  11.740  19.065  0.00  0.00    +0.005 A 
ATOM     24  C10 UNL     1      18.813  12.285  19.310  0.00  0.00    +0.000 A 
ATOM     25  C11 UNL     1      17.708  11.443  19.466  0.00  0.00    +0.000 A 
ATOM     26  C12 UNL     1      17.865  10.057  19.377  0.00  0.00    +0.000 A 
ATOM     27  C13 UNL     1      19.127   9.508  19.129  0.00  0.00    +0.005 A 
ENDBRANCH  21  22
ENDBRANCH  20  21
ENDBRANCH  15  16
ENDBRANCH   3  15
TORSDOF 5
ENDMDL
MODEL 3
REMARK VINA RESULT:    -5.486     12.952     15.432
REMARK INTER + INTRA:          -9.535
REMARK INTER:                  -7.285
REMARK INTRA:                  -2.250
REMARK UNBOUND:                -2.445
REMARK  Name = /home/qwerty/github/datacon2025hack/step_04_hit_selection/docking/ligands/lig_731.pdb
REMARK  5 active torsions:
REMARK  status: ('A' for Active; 'I' for Inactive)
REMARK    1  A    between atoms: C1_2  and  C14_17
REMARK    2  A    between atoms: N1_3  and  C2_4
REMARK    3  A    between atoms: C2_4  and  C3_5
REMARK    4  A    between atoms: N2_9  and  C7_10
REMARK    5  A    between atoms: C7_10  and  C8_11
REMARK                            x       y       z     vdW  Elec       q    Type
REMARK                         _______ _______ _______ _____ _____    ______ ____
ROOT
ATOM      1  O1  UNL     1      12.923   6.282  21.479  0.00  0.00    -0.270 OA
ATOM      2  C1  UNL     1      11.772   5.767  21.421  0.00  0.00    +0.244 C 
ATOM      3  N1  UNL     1      10.736   6.438  20.688  0.00  0.00    -0.310 N 
ATOM      4  H1  UNL     1       9.869   5.918  20.429  0.00  0.00    +0.149 HD
ENDROOT
BRANCH   2   5
ATOM      5  C14 UNL     1      11.516   4.478  22.111  0.00  0.00    +0.039 A 
ATOM      6  C15 UNL     1      11.988   4.284  23.441  0.00  0.00    +0.014 A 
ATOM      7  C16 UNL     1      11.739   3.083  24.130  0.00  0.00    +0.011 A 
ATOM      8  C17 UNL     1      11.011   2.094  23.467  0.00  0.00    -0.000 A 
ATOM      9  C18 UNL     1      10.599   0.846  23.887  0.00  0.00    +0.027 A 
ATOM     10  C19 UNL     1       9.895   0.312  22.814  0.00  0.00    +0.083 A 
ATOM     11  N3  UNL     1       9.862   1.184  21.780  0.00  0.00    -0.361 N 
ATOM     12  C20 UNL     1      10.550   2.266  22.191  0.00  0.00    +0.047 A 
ATOM     13  C21 UNL     1      10.776   3.444  21.481  0.00  0.00    +0.039 A 
ATOM     14  H22 UNL     1       9.396   1.043  20.855  0.00  0.00    +0.165 HD
ENDBRANCH   2   5
BRANCH   3  15
ATOM     15  C2  UNL     1      10.898   7.827  20.254  0.00  0.00    +0.123 C 
BRANCH  15  16
ATOM     16  C3  UNL     1      10.234   8.805  21.237  0.00  0.00    +0.074 C 
ATOM     17  C4  UNL     1       9.821  10.110  20.560  0.00  0.00    +0.022 C 
ATOM     18  C5  UNL     1       8.574  10.520  21.300  0.00  0.00    +0.017 C 
ATOM     19  C6  UNL     1       7.938   9.202  21.695  0.00  0.00    +0.085 C 
ATOM     20  N2  UNL     1       9.010   8.192  21.794  0.00  0.00    -0.294 NA
BRANCH  20  21
ATOM     21  C7  UNL     1       9.217   7.727  23.181  0.00  0.00    +0.120 C 
BRANCH  21  22
ATOM     22  C8  UNL     1       8.620   6.356  23.363  0.00  0.00    -0.033 A 
ATOM     23  C9  UNL     1       8.799   5.668  24.578  0.00  0.00    +0.005 A 
ATOM     24  C10 UNL     1       8.263   4.388  24.749  0.00  0.00    +0.000 A 
ATOM     25  C11 UNL     1       7.553   3.782  23.708  0.00  0.00    +0.000 A 
ATOM     26  C12 UNL     1       7.377   4.456  22.496  0.00  0.00    +0.000 A 
ATOM     27  C13 UNL     1       7.908   5.738  22.321  0.00  0.00    +0.005 A 
ENDBRANCH  21  22
ENDBRANCH  20  21
ENDBRANCH  15  16
ENDBRANCH   3  15
TORSDOF 5
ENDMDL
MODEL 4
REMARK VINA RESULT:    -5.428     12.574     14.671
REMARK INTER + INTRA:          -9.460
REMARK INTER:                  -8.456
REMARK INTRA:                  -1.004
REMARK UNBOUND:                -2.445
REMARK  Name = /home/qwerty/github/datacon2025hack/step_04_hit_selection/docking/ligands/lig_731.pdb
REMARK  5 active torsions:
REMARK  status: ('A' for Active; 'I' for Inactive)
REMARK    1  A    between atoms: C1_2  and  C14_17
REMARK    2  A    between atoms: N1_3  and  C2_4
REMARK    3  A    between atoms: C2_4  and  C3_5
REMARK    4  A    between atoms: N2_9  and  C7_10
REMARK    5  A    between atoms: C7_10  and  C8_11
REMARK                            x       y       z     vdW  Elec       q    Type
REMARK                         _______ _______ _______ _____ _____    ______ ____
ROOT
ATOM      1  O1  UNL     1      10.100   2.628  21.761  0.00  0.00    -0.270 OA
ATOM      2  C1  UNL     1      10.527   3.535  20.993  0.00  0.00    +0.244 C 
ATOM      3  N1  UNL     1       9.625   4.555  20.537  0.00  0.00    -0.310 N 
ATOM      4  H1  UNL     1      10.009   5.428  20.113  0.00  0.00    +0.149 HD
ENDROOT
BRANCH   2   5
ATOM      5  C14 UNL     1      11.953   3.525  20.580  0.00  0.00    +0.039 A 
ATOM      6  C15 UNL     1      12.488   4.637  19.867  0.00  0.00    +0.014 A 
ATOM      7  C16 UNL     1      13.841   4.668  19.485  0.00  0.00    +0.011 A 
ATOM      8  C17 UNL     1      14.639   3.578  19.834  0.00  0.00    -0.000 A 
ATOM      9  C18 UNL     1      15.982   3.340  19.621  0.00  0.00    +0.027 A 
ATOM     10  C19 UNL     1      16.231   2.102  20.201  0.00  0.00    +0.083 A 
ATOM     11  N3  UNL     1      15.105   1.595  20.755  0.00  0.00    -0.361 N 
ATOM     12  C20 UNL     1      14.140   2.504  20.520  0.00  0.00    +0.047 A 
ATOM     13  C21 UNL     1      12.806   2.442  20.917  0.00  0.00    +0.039 A 
ATOM     14  H22 UNL     1      15.010   0.685  21.260  0.00  0.00    +0.165 HD
ENDBRANCH   2   5
BRANCH   3  15
ATOM     15  C2  UNL     1       8.178   4.412  20.704  0.00  0.00    +0.123 C 
BRANCH  15  16
ATOM     16  C3  UNL     1       7.681   5.147  21.960  0.00  0.00    +0.074 C 
ATOM     17  C4  UNL     1       7.611   4.225  23.176  0.00  0.00    +0.022 C 
ATOM     18  C5  UNL     1       7.941   5.132  24.333  0.00  0.00    +0.017 C 
ATOM     19  C6  UNL     1       8.897   6.146  23.738  0.00  0.00    +0.085 C 
ATOM     20  N2  UNL     1       8.614   6.244  22.293  0.00  0.00    -0.294 NA
BRANCH  20  21
ATOM     21  C7  UNL     1       8.061   7.561  21.917  0.00  0.00    +0.120 C 
BRANCH  21  22
ATOM     22  C8  UNL     1       9.092   8.363  21.168  0.00  0.00    -0.033 A 
ATOM     23  C9  UNL     1      10.255   7.735  20.685  0.00  0.00    +0.005 A 
ATOM     24  C10 UNL     1      11.225   8.478  20.004  0.00  0.00    +0.000 A 
ATOM     25  C11 UNL     1      11.046   9.850  19.807  0.00  0.00    +0.000 A 
ATOM     26  C12 UNL     1       9.897  10.482  20.290  0.00  0.00    +0.000 A 
ATOM     27  C13 UNL     1       8.922   9.744  20.969  0.00  0.00    +0.005 A 
ENDBRANCH  21  22
ENDBRANCH  20  21
ENDBRANCH  15  16
ENDBRANCH   3  15
TORSDOF 5
ENDMDL
MODEL 5
REMARK VINA RESULT:    -5.413     10.769     12.459
REMARK INTER + INTRA:          -9.439
REMARK INTER:                  -7.710
REMARK INTRA:                  -1.729
REMARK UNBOUND:                -2.445
REMARK  Name = /home/qwerty/github/datacon2025hack/step_04_hit_selection/docking/ligands/lig_731.pdb
REMARK  5 active torsions:
REMARK  status: ('A' for Active; 'I' for Inactive)
REMARK    1  A    between atoms: C1_2  and  C14_17
REMARK    2  A    between atoms: N1_3  and  C2_4
REMARK    3  A    between atoms: C2_4  and  C3_5
REMARK    4  A    between atoms: N2_9  and  C7_10
REMARK    5  A    between atoms: C7_10  and  C8_11
REMARK                            x       y       z     vdW  Elec       q    Type
REMARK                         _______ _______ _______ _____ _____    ______ ____
ROOT
ATOM      1  O1  UNL     1      19.329   4.765  29.941  0.00  0.00    -0.270 OA
ATOM      2  C1  UNL     1      20.468   5.210  29.628  0.00  0.00    +0.244 C 
ATOM      3  N1  UNL     1      20.738   5.557  28.261  0.00  0.00    -0.310 N 
ATOM      4  H1  UNL     1      21.571   6.143  28.034  0.00  0.00    +0.149 HD
ENDROOT
BRANCH   2   5
ATOM      5  C14 UNL     1      21.503   5.366  30.682  0.00  0.00    +0.039 A 
ATOM      6  C15 UNL     1      21.801   4.272  31.544  0.00  0.00    +0.014 A 
ATOM      7  C16 UNL     1      22.794   4.382  32.535  0.00  0.00    +0.011 A 
ATOM      8  C17 UNL     1      23.477   5.594  32.638  0.00  0.00    -0.000 A 
ATOM      9  C18 UNL     1      24.498   5.983  33.480  0.00  0.00    +0.027 A 
ATOM     10  C19 UNL     1      24.794   7.292  33.117  0.00  0.00    +0.083 A 
ATOM     11  N3  UNL     1      24.004   7.698  32.096  0.00  0.00    -0.361 N 
ATOM     12  C20 UNL     1      23.202   6.653  31.815  0.00  0.00    +0.047 A 
ATOM     13  C21 UNL     1      22.229   6.578  30.822  0.00  0.00    +0.039 A 
ATOM     14  H22 UNL     1      24.019   8.630  31.624  0.00  0.00    +0.165 HD
ENDBRANCH   2   5
BRANCH   3  15
ATOM     15  C2  UNL     1      19.835   5.143  27.186  0.00  0.00    +0.123 C 
BRANCH  15  16
ATOM     16  C3  UNL     1      20.615   4.638  25.960  0.00  0.00    +0.074 C 
ATOM     17  C4  UNL     1      20.991   5.773  25.010  0.00  0.00    +0.022 C 
ATOM     18  C5  UNL     1      22.314   5.336  24.435  0.00  0.00    +0.017 C 
ATOM     19  C6  UNL     1      22.953   4.543  25.558  0.00  0.00    +0.085 C 
ATOM     20  N2  UNL     1      21.871   3.998  26.402  0.00  0.00    -0.294 NA
BRANCH  20  21
ATOM     21  C7  UNL     1      21.788   2.525  26.326  0.00  0.00    +0.120 C 
BRANCH  21  22
ATOM     22  C8  UNL     1      21.700   1.938  27.710  0.00  0.00    -0.033 A 
ATOM     23  C9  UNL     1      20.443   1.642  28.269  0.00  0.00    +0.005 A 
ATOM     24  C10 UNL     1      20.353   1.113  29.561  0.00  0.00    +0.000 A 
ATOM     25  C11 UNL     1      21.514   0.883  30.305  0.00  0.00    +0.000 A 
ATOM     26  C12 UNL     1      22.765   1.180  29.759  0.00  0.00    +0.000 A 
ATOM     27  C13 UNL     1      22.861   1.707  28.467  0.00  0.00    +0.005 A 
ENDBRANCH  21  22
ENDBRANCH  20  21
ENDBRANCH  15  16
ENDBRANCH   3  15
TORSDOF 5
ENDMDL
MODEL 6
REMARK VINA RESULT:    -5.288     13.368     15.636
REMARK INTER + INTRA:          -9.279
REMARK INTER:                  -7.103
REMARK INTRA:                  -2.176
REMARK UNBOUND:                -2.445
REMARK  Name = /home/qwerty/github/datacon2025hack/step_04_hit_selection/docking/ligands/lig_731.pdb
REMARK  5 active torsions:
REMARK  status: ('A' for Active; 'I' for Inactive)
REMARK    1  A    between atoms: C1_2  and  C14_17
REMARK    2  A    between atoms: N1_3  and  C2_4
REMARK    3  A    between atoms: C2_4  and  C3_5
REMARK    4  A    between atoms: N2_9  and  C7_10
REMARK    5  A    between atoms: C7_10  and  C8_11
REMARK                            x       y       z     vdW  Elec       q    Type
REMARK                         _______ _______ _______ _____ _____    ______ ____
ROOT
ATOM      1  O1  UNL     1      20.601  11.980  35.805  0.00  0.00    -0.270 OA
ATOM      2  C1  UNL     1      19.917  10.958  35.522  0.00  0.00    +0.244 C 
ATOM      3  N1  UNL     1      18.484  11.056  35.489  0.00  0.00    -0.310 N 
ATOM      4  H1  UNL     1      17.928  10.303  35.027  0.00  0.00    +0.149 HD
ENDROOT
BRANCH   2   5
ATOM      5  C14 UNL     1      20.609   9.678  35.228  0.00  0.00    +0.039 A 
ATOM      6  C15 UNL     1      20.192   8.890  34.117  0.00  0.00    +0.014 A 
ATOM      7  C16 UNL     1      20.845   7.685  33.799  0.00  0.00    +0.011 A 
ATOM      8  C17 UNL     1      21.916   7.295  34.604  0.00  0.00    -0.000 A 
ATOM      9  C18 UNL     1      22.748   6.197  34.525  0.00  0.00    +0.027 A 
ATOM     10  C19 UNL     1      23.642   6.339  35.580  0.00  0.00    +0.083 A 
ATOM     11  N3  UNL     1      23.388   7.470  36.277  0.00  0.00    -0.361 N 
ATOM     12  C20 UNL     1      22.329   8.043  35.673  0.00  0.00    +0.047 A 
ATOM     13  C21 UNL     1      21.707   9.242  36.015  0.00  0.00    +0.039 A 
ATOM     14  H22 UNL     1      23.909   7.824  37.111  0.00  0.00    +0.165 HD
ENDBRANCH   2   5
BRANCH   3  15
ATOM     15  C2  UNL     1      17.795  12.219  36.049  0.00  0.00    +0.123 C 
BRANCH  15  16
ATOM     16  C3  UNL     1      16.630  11.798  36.960  0.00  0.00    +0.074 C 
ATOM     17  C4  UNL     1      15.344  12.557  36.638  0.00  0.00    +0.022 C 
ATOM     18  C5  UNL     1      14.255  11.558  36.932  0.00  0.00    +0.017 C 
ATOM     19  C6  UNL     1      14.891  10.222  36.603  0.00  0.00    +0.085 C 
ATOM     20  N2  UNL     1      16.351  10.360  36.774  0.00  0.00    -0.294 NA
BRANCH  20  21
ATOM     21  C7  UNL     1      16.863   9.555  37.902  0.00  0.00    +0.120 C 
BRANCH  21  22
ATOM     22  C8  UNL     1      17.611   8.354  37.387  0.00  0.00    -0.033 A 
ATOM     23  C9  UNL     1      17.113   7.637  36.283  0.00  0.00    +0.005 A 
ATOM     24  C10 UNL     1      17.792   6.510  35.810  0.00  0.00    +0.000 A 
ATOM     25  C11 UNL     1      18.967   6.086  36.439  0.00  0.00    +0.000 A 
ATOM     26  C12 UNL     1      19.464   6.789  37.540  0.00  0.00    +0.000 A 
ATOM     27  C13 UNL     1      18.790   7.919  38.015  0.00  0.00    +0.005 A 
ENDBRANCH  21  22
ENDBRANCH  20  21
ENDBRANCH  15  16
ENDBRANCH   3  15
TORSDOF 5
ENDMDL
MODEL 7
REMARK VINA RESULT:    -5.218     13.349     15.605
REMARK INTER + INTRA:          -9.188
REMARK INTER:                  -7.554
REMARK INTRA:                  -1.634
REMARK UNBOUND:                -2.445
REMARK  Name = /home/qwerty/github/datacon2025hack/step_04_hit_selection/docking/ligands/lig_731.pdb
REMARK  5 active torsions:
REMARK  status: ('A' for Active; 'I' for Inactive)
REMARK    1  A    between atoms: C1_2  and  C14_17
REMARK    2  A    between atoms: N1_3  and  C2_4
REMARK    3  A    between atoms: C2_4  and  C3_5
REMARK    4  A    between atoms: N2_9  and  C7_10
REMARK    5  A    between atoms: C7_10  and  C8_11
REMARK                            x       y       z     vdW  Elec       q    Type
REMARK                         _______ _______ _______ _____ _____    ______ ____
ROOT
ATOM      1  O1  UNL     1      16.160  11.926  37.649  0.00  0.00    -0.270 OA
ATOM      2  C1  UNL     1      15.844  10.738  37.361  0.00  0.00    +0.244 C 
ATOM      3  N1  UNL     1      14.496  10.443  36.966  0.00  0.00    -0.310 N 
ATOM      4  H1  UNL     1      14.284   9.535  36.498  0.00  0.00    +0.149 HD
ENDROOT
BRANCH   2   5
ATOM      5  C14 UNL     1      16.876   9.674  37.435  0.00  0.00    +0.039 A 
ATOM      6  C15 UNL     1      16.479   8.306  37.447  0.00  0.00    +0.014 A 
ATOM      7  C16 UNL     1      17.435   7.275  37.491  0.00  0.00    +0.011 A 
ATOM      8  C17 UNL     1      18.782   7.639  37.516  0.00  0.00    -0.000 A 
ATOM      9  C18 UNL     1      19.923   6.865  37.536  0.00  0.00    +0.027 A 
ATOM     10  C19 UNL     1      20.979   7.769  37.537  0.00  0.00    +0.083 A 
ATOM     11  N3  UNL     1      20.522   9.042  37.512  0.00  0.00    -0.361 N 
ATOM     12  C20 UNL     1      19.179   8.949  37.503  0.00  0.00    +0.047 A 
ATOM     13  C21 UNL     1      18.259   9.994  37.456  0.00  0.00    +0.039 A 
ATOM     14  H22 UNL     1      21.097   9.915  37.500  0.00  0.00    +0.165 HD
ENDBRANCH   2   5
BRANCH   3  15
ATOM     15  C2  UNL     1      13.422  11.418  37.164  0.00  0.00    +0.123 C 
BRANCH  15  16
ATOM     16  C3  UNL     1      12.679  11.712  35.850  0.00  0.00    +0.074 C 
ATOM     17  C4  UNL     1      11.252  12.200  36.093  0.00  0.00    +0.022 C 
ATOM     18  C5  UNL     1      11.004  13.161  34.959  0.00  0.00    +0.017 C 
ATOM     19  C6  UNL     1      12.371  13.757  34.683  0.00  0.00    +0.085 C 
ATOM     20  N2  UNL     1      13.388  12.775  35.108  0.00  0.00    -0.294 NA
BRANCH  20  21
ATOM     21  C7  UNL     1      14.150  12.227  33.968  0.00  0.00    +0.120 C 
BRANCH  21  22
ATOM     22  C8  UNL     1      15.625  12.456  34.170  0.00  0.00    -0.033 A 
ATOM     23  C9  UNL     1      16.540  11.422  33.897  0.00  0.00    +0.005 A 
ATOM     24  C10 UNL     1      17.910  11.622  34.100  0.00  0.00    +0.000 A 
ATOM     25  C11 UNL     1      18.374  12.849  34.582  0.00  0.00    +0.000 A 
ATOM     26  C12 UNL     1      17.471  13.878  34.862  0.00  0.00    +0.000 A 
ATOM     27  C13 UNL     1      16.101  13.685  34.659  0.00  0.00    +0.005 A 
ENDBRANCH  21  22
ENDBRANCH  20  21
ENDBRANCH  15  16
ENDBRANCH   3  15
TORSDOF 5
ENDMDL
MODEL 8
REMARK VINA RESULT:    -5.198     13.125     15.006
REMARK INTER + INTRA:          -9.162
REMARK INTER:                  -6.733
REMARK INTRA:                  -2.429
REMARK UNBOUND:                -2.445
REMARK  Name = /home/qwerty/github/datacon2025hack/step_04_hit_selection/docking/ligands/lig_731.pdb
REMARK  5 active torsions:
REMARK  status: ('A' for Active; 'I' for Inactive)
REMARK    1  A    between atoms: C1_2  and  C14_17
REMARK    2  A    between atoms: N1_3  and  C2_4
REMARK    3  A    between atoms: C2_4  and  C3_5
REMARK    4  A    between atoms: N2_9  and  C7_10
REMARK    5  A    between atoms: C7_10  and  C8_11
REMARK                            x       y       z     vdW  Elec       q    Type
REMARK                         _______ _______ _______ _____ _____    ______ ____
ROOT
ATOM      1  O1  UNL     1      21.060   7.734  37.908  0.00  0.00    -0.270 OA
ATOM      2  C1  UNL     1      21.037   8.456  36.873  0.00  0.00    +0.244 C 
ATOM      3  N1  UNL     1      20.103   9.544  36.793  0.00  0.00    -0.310 N 
ATOM      4  H1  UNL     1      20.236  10.284  36.069  0.00  0.00    +0.149 HD
ENDROOT
BRANCH   2   5
ATOM      5  C14 UNL     1      21.978   8.165  35.762  0.00  0.00    +0.039 A 
ATOM      6  C15 UNL     1      22.024   9.030  34.632  0.00  0.00    +0.014 A 
ATOM      7  C16 UNL     1      22.923   8.794  33.576  0.00  0.00    +0.011 A 
ATOM      8  C17 UNL     1      23.770   7.690  33.679  0.00  0.00    -0.000 A 
ATOM      9  C18 UNL     1      24.754   7.227  32.829  0.00  0.00    +0.027 A 
ATOM     10  C19 UNL     1      25.278   6.102  33.454  0.00  0.00    +0.083 A 
ATOM     11  N3  UNL     1      24.660   5.877  34.636  0.00  0.00    -0.361 N 
ATOM     12  C20 UNL     1      23.739   6.851  34.759  0.00  0.00    +0.047 A 
ATOM     13  C21 UNL     1      22.863   7.057  35.824  0.00  0.00    +0.039 A 
ATOM     14  H22 UNL     1      24.860   5.104  35.311  0.00  0.00    +0.165 HD
ENDBRANCH   2   5
BRANCH   3  15
ATOM     15  C2  UNL     1      18.996   9.659  37.744  0.00  0.00    +0.123 C 
BRANCH  15  16
ATOM     16  C3  UNL     1      17.643   9.767  37.021  0.00  0.00    +0.074 C 
ATOM     17  C4  UNL     1      17.085  11.189  37.055  0.00  0.00    +0.022 C 
ATOM     18  C5  UNL     1      16.348  11.316  35.747  0.00  0.00    +0.017 C 
ATOM     19  C6  UNL     1      17.136  10.435  34.799  0.00  0.00    +0.085 C 
ATOM     20  N2  UNL     1      17.809   9.394  35.601  0.00  0.00    -0.294 NA
BRANCH  20  21
ATOM     21  C7  UNL     1      17.277   8.043  35.328  0.00  0.00    +0.120 C 
BRANCH  21  22
ATOM     22  C8  UNL     1      18.354   7.169  34.741  0.00  0.00    -0.033 A 
ATOM     23  C9  UNL     1      18.891   7.471  33.475  0.00  0.00    +0.005 A 
ATOM     24  C10 UNL     1      19.879   6.654  32.916  0.00  0.00    +0.000 A 
ATOM     25  C11 UNL     1      20.331   5.528  33.611  0.00  0.00    +0.000 A 
ATOM     26  C12 UNL     1      19.797   5.218  34.864  0.00  0.00    +0.000 A 
ATOM     27  C13 UNL     1      18.812   6.033  35.430  0.00  0.00    +0.005 A 
ENDBRANCH  21  22
ENDBRANCH  20  21
ENDBRANCH  15  16
ENDBRANCH   3  15
TORSDOF 5
ENDMDL
MODEL 9
REMARK VINA RESULT:    -5.138     10.444     13.301
REMARK INTER + INTRA:          -9.084
REMARK INTER:                  -7.435
REMARK INTRA:                  -1.649
REMARK UNBOUND:                -2.445
REMARK  Name = /home/qwerty/github/datacon2025hack/step_04_hit_selection/docking/ligands/lig_731.pdb
REMARK  5 active torsions:
REMARK  status: ('A' for Active; 'I' for Inactive)
REMARK    1  A    between atoms: C1_2  and  C14_17
REMARK    2  A    between atoms: N1_3  and  C2_4
REMARK    3  A    between atoms: C2_4  and  C3_5
REMARK    4  A    between atoms: N2_9  and  C7_10
REMARK    5  A    between atoms: C7_10  and  C8_11
REMARK                            x       y       z     vdW  Elec       q    Type
REMARK                         _______ _______ _______ _____ _____    ______ ____
ROOT
ATOM      1  O1  UNL     1      11.914   9.270  27.406  0.00  0.00    -0.270 OA
ATOM      2  C1  UNL     1      11.774  10.225  26.592  0.00  0.00    +0.244 C 
ATOM      3  N1  UNL     1      12.654  11.357  26.675  0.00  0.00    -0.310 N 
ATOM      4  H1  UNL     1      12.711  12.024  25.874  0.00  0.00    +0.149 HD
ENDROOT
BRANCH   2   5
ATOM      5  C14 UNL     1      10.704  10.155  25.566  0.00  0.00    +0.039 A 
ATOM      6  C15 UNL     1       9.341  10.076  25.973  0.00  0.00    +0.014 A 
ATOM      7  C16 UNL     1       8.304  10.034  25.024  0.00  0.00    +0.011 A 
ATOM      8  C17 UNL     1       8.656  10.078  23.674  0.00  0.00    -0.000 A 
ATOM      9  C18 UNL     1       7.872  10.077  22.539  0.00  0.00    +0.027 A 
ATOM     10  C19 UNL     1       8.766  10.153  21.477  0.00  0.00    +0.083 A 
ATOM     11  N3  UNL     1      10.041  10.206  21.925  0.00  0.00    -0.361 N 
ATOM     12  C20 UNL     1       9.960  10.156  23.268  0.00  0.00    +0.047 A 
ATOM     13  C21 UNL     1      11.012  10.202  24.181  0.00  0.00    +0.039 A 
ATOM     14  H22 UNL     1      10.908  10.273  21.345  0.00  0.00    +0.165 HD
ENDBRANCH   2   5
BRANCH   3  15
ATOM     15  C2  UNL     1      13.512  11.561  27.844  0.00  0.00    +0.123 C 
BRANCH  15  16
ATOM     16  C3  UNL     1      13.706  13.057  28.144  0.00  0.00    +0.074 C 
ATOM     17  C4  UNL     1      14.941  13.627  27.449  0.00  0.00    +0.022 C 
ATOM     18  C5  UNL     1      14.553  15.048  27.135  0.00  0.00    +0.017 C 
ATOM     19  C6  UNL     1      13.058  14.971  26.897  0.00  0.00    +0.085 C 
ATOM     20  N2  UNL     1      12.537  13.816  27.654  0.00  0.00    -0.294 NA
BRANCH  20  21
ATOM     21  C7  UNL     1      11.650  14.225  28.763  0.00  0.00    +0.120 C 
BRANCH  21  22
ATOM     22  C8  UNL     1      10.383  13.412  28.743  0.00  0.00    -0.033 A 
ATOM     23  C9  UNL     1       9.360  13.729  27.830  0.00  0.00    +0.005 A 
ATOM     24  C10 UNL     1       8.172  12.990  27.817  0.00  0.00    +0.000 A 
ATOM     25  C11 UNL     1       7.995  11.935  28.717  0.00  0.00    +0.000 A 
ATOM     26  C12 UNL     1       9.005  11.617  29.631  0.00  0.00    +0.000 A 
ATOM     27  C13 UNL     1      10.195  12.352  29.646  0.00  0.00    +0.005 A 
ENDBRANCH  21  22
ENDBRANCH  20  21
ENDBRANCH  15  16
ENDBRANCH   3  15
TORSDOF 5
ENDMDL
