MODEL 1
REMARK VINA RESULT:    -6.724      0.000      0.000
REMARK INTER + INTRA:          -7.200
REMARK INTER:                  -7.117
REMARK INTRA:                  -0.084
REMARK UNBOUND:                -0.084
REMARK  Name = /home/qwerty/github/datacon2025hack/step_04_hit_selection/docking/ligands/lig_77.pdb
REMARK  3 active torsions:
REMARK  status: ('A' for Active; 'I' for Inactive)
REMARK    1  A    between atoms: C1_1  and  C2_2
REMARK    2  A    between atoms: C5_5  and  C6_6
REMARK    3  A    between atoms: N6_23  and  C17_24
REMARK                            x       y       z     vdW  Elec       q    Type
REMARK                         _______ _______ _______ _____ _____    ______ ____
ROOT
ATOM      1  C6  UNL     1      10.315   7.176  20.704  0.00  0.00    +0.172 A 
ATOM      2  N1  UNL     1       9.641   6.130  20.184  0.00  0.00    -0.127 NA
ATOM      3  N2  UNL     1      10.477   5.105  20.138  0.00  0.00    -0.113 NA
ATOM      4  C7  UNL     1      11.652   5.539  20.634  0.00  0.00    +0.220 A 
ATOM      5  N3  UNL     1      12.803   4.691  20.773  0.00  0.00    -0.297 N 
ATOM      6  C8  UNL     1      13.593   4.697  22.011  0.00  0.00    +0.127 C 
ATOM      7  C9  UNL     1      13.877   3.262  22.462  0.00  0.00    +0.125 C 
ATOM      8  N4  UNL     1      14.420   2.448  21.363  0.00  0.00    -0.310 N 
ATOM      9  C10 UNL     1      14.974   1.153  21.671  0.00  0.00    +0.157 A 
ATOM     10  N5  UNL     1      14.392   0.394  22.643  0.00  0.00    -0.237 NA
ATOM     11  C11 UNL     1      14.867  -0.833  22.987  0.00  0.00    +0.113 A 
ATOM     12  C12 UNL     1      15.988  -1.353  22.342  0.00  0.00    +0.023 A 
ATOM     13  C13 UNL     1      16.618  -0.597  21.353  0.00  0.00    +0.043 A 
ATOM     14  C14 UNL     1      16.120   0.663  21.014  0.00  0.00    +0.163 A 
ATOM     15  F1  UNL     1      16.778   1.406  20.088  0.00  0.00    -0.202 F 
ATOM     16  C15 UNL     1      14.394   2.953  19.982  0.00  0.00    +0.125 C 
ATOM     17  C16 UNL     1      13.093   3.717  19.712  0.00  0.00    +0.127 C 
ATOM     18  N6  UNL     1      11.595   6.843  20.984  0.00  0.00    -0.298 N 
ATOM     19  C17 UNL     1      12.693   7.712  21.412  0.00  0.00    +0.154 C 
ENDROOT
BRANCH   1  24
ATOM     20  C1  UNL     1       7.295  11.418  22.158  0.00  0.00    +0.051 C 
ATOM     21  C2  UNL     1       8.250  10.452  21.542  0.00  0.00    -0.013 A 
ATOM     22  C3  UNL     1       9.246  10.767  20.625  0.00  0.00    +0.011 A 
ATOM     23  C4  UNL     1      10.036   9.667  20.270  0.00  0.00    +0.019 A 
ATOM     24  C5  UNL     1       9.684   8.492  20.930  0.00  0.00    +0.057 A 
ATOM     25  S1  UNL     1       8.369   8.822  21.934  0.00  0.00    -0.090 S 
ENDBRANCH   1  24
TORSDOF 1
ENDMDL
MODEL 2
REMARK VINA RESULT:    -6.637     15.866     16.656
REMARK INTER + INTRA:          -7.108
REMARK INTER:                  -6.967
REMARK INTRA:                  -0.141
REMARK UNBOUND:                -0.084
REMARK  Name = /home/qwerty/github/datacon2025hack/step_04_hit_selection/docking/ligands/lig_77.pdb
REMARK  3 active torsions:
REMARK  status: ('A' for Active; 'I' for Inactive)
REMARK    1  A    between atoms: C1_1  and  C2_2
REMARK    2  A    between atoms: C5_5  and  C6_6
REMARK    3  A    between atoms: N6_23  and  C17_24
REMARK                            x       y       z     vdW  Elec       q    Type
REMARK                         _______ _______ _______ _____ _____    ______ ____
ROOT
ATOM      1  C6  UNL     1      15.468  12.650  35.653  0.00  0.00    +0.172 A 
ATOM      2  N1  UNL     1      16.547  13.441  35.826  0.00  0.00    -0.127 NA
ATOM      3  N2  UNL     1      17.586  12.650  36.044  0.00  0.00    -0.113 NA
ATOM      4  C7  UNL     1      17.128  11.385  35.998  0.00  0.00    +0.220 A 
ATOM      5  N3  UNL     1      17.979  10.238  36.160  0.00  0.00    -0.297 N 
ATOM      6  C8  UNL     1      17.870   9.090  35.252  0.00  0.00    +0.127 C 
ATOM      7  C9  UNL     1      19.262   8.655  34.784  0.00  0.00    +0.125 C 
ATOM      8  N4  UNL     1      20.183   8.486  35.917  0.00  0.00    -0.310 N 
ATOM      9  C10 UNL     1      21.453   7.844  35.685  0.00  0.00    +0.157 A 
ATOM     10  N5  UNL     1      22.108   8.068  34.510  0.00  0.00    -0.237 NA
ATOM     11  C11 UNL     1      23.305   7.490  34.225  0.00  0.00    +0.113 A 
ATOM     12  C12 UNL     1      23.903   6.631  35.146  0.00  0.00    +0.023 A 
ATOM     13  C13 UNL     1      23.254   6.366  36.352  0.00  0.00    +0.043 A 
ATOM     14  C14 UNL     1      22.022   6.965  36.629  0.00  0.00    +0.163 A 
ATOM     15  F1  UNL     1      21.380   6.654  37.783  0.00  0.00    -0.202 F 
ATOM     16  C15 UNL     1      19.810   8.965  37.256  0.00  0.00    +0.125 C 
ATOM     17  C16 UNL     1      19.052  10.294  37.161  0.00  0.00    +0.127 C 
ATOM     18  N6  UNL     1      15.796  11.343  35.773  0.00  0.00    -0.298 N 
ATOM     19  C17 UNL     1      14.910  10.179  35.807  0.00  0.00    +0.154 C 
ENDROOT
BRANCH   1  24
ATOM     20  C1  UNL     1      10.286  14.185  35.557  0.00  0.00    +0.051 C 
ATOM     21  C2  UNL     1      11.712  13.849  35.274  0.00  0.00    -0.013 A 
ATOM     22  C3  UNL     1      12.407  14.165  34.114  0.00  0.00    +0.011 A 
ATOM     23  C4  UNL     1      13.752  13.783  34.156  0.00  0.00    +0.019 A 
ATOM     24  C5  UNL     1      14.126  13.193  35.360  0.00  0.00    +0.057 A 
ATOM     25  S1  UNL     1      12.770  13.125  36.361  0.00  0.00    -0.090 S 
ENDBRANCH   1  24
TORSDOF 1
ENDMDL
MODEL 3
REMARK VINA RESULT:    -6.428     16.170     18.794
REMARK INTER + INTRA:          -6.887
REMARK INTER:                  -6.729
REMARK INTRA:                  -0.159
REMARK UNBOUND:                -0.084
REMARK  Name = /home/qwerty/github/datacon2025hack/step_04_hit_selection/docking/ligands/lig_77.pdb
REMARK  3 active torsions:
REMARK  status: ('A' for Active; 'I' for Inactive)
REMARK    1  A    between atoms: C1_1  and  C2_2
REMARK    2  A    between atoms: C5_5  and  C6_6
REMARK    3  A    between atoms: N6_23  and  C17_24
REMARK                            x       y       z     vdW  Elec       q    Type
REMARK                         _______ _______ _______ _____ _____    ______ ____
ROOT
ATOM      1  C6  UNL     1      20.137   8.081  36.239  0.00  0.00    +0.172 A 
ATOM      2  N1  UNL     1      19.168   7.323  36.793  0.00  0.00    -0.127 NA
ATOM      3  N2  UNL     1      18.084   8.077  36.890  0.00  0.00    -0.113 NA
ATOM      4  C7  UNL     1      18.405   9.285  36.390  0.00  0.00    +0.220 A 
ATOM      5  N3  UNL     1      17.466  10.369  36.298  0.00  0.00    -0.297 N 
ATOM      6  C8  UNL     1      17.360  11.167  35.070  0.00  0.00    +0.127 C 
ATOM      7  C9  UNL     1      15.890  11.342  34.680  0.00  0.00    +0.125 C 
ATOM      8  N4  UNL     1      15.082  11.811  35.817  0.00  0.00    -0.310 N 
ATOM      9  C10 UNL     1      13.737  12.265  35.567  0.00  0.00    +0.157 A 
ATOM     10  N5  UNL     1      12.985  11.634  34.620  0.00  0.00    -0.237 NA
ATOM     11  C11 UNL     1      11.713  12.015  34.332  0.00  0.00    +0.113 A 
ATOM     12  C12 UNL     1      11.134  13.087  35.009  0.00  0.00    +0.023 A 
ATOM     13  C13 UNL     1      11.879  13.766  35.974  0.00  0.00    +0.043 A 
ATOM     14  C14 UNL     1      13.187  13.365  36.257  0.00  0.00    +0.163 A 
ATOM     15  F1  UNL     1      13.915  14.070  37.159  0.00  0.00    -0.202 F 
ATOM     16  C15 UNL     1      15.644  11.813  37.175  0.00  0.00    +0.125 C 
ATOM     17  C16 UNL     1      16.517  10.573  37.400  0.00  0.00    +0.127 C 
ATOM     18  N6  UNL     1      19.695   9.333  35.986  0.00  0.00    -0.298 N 
ATOM     19  C17 UNL     1      20.457  10.498  35.536  0.00  0.00    +0.154 C 
ENDROOT
BRANCH   1  24
ATOM     20  C1  UNL     1      24.783   6.290  34.135  0.00  0.00    +0.051 C 
ATOM     21  C2  UNL     1      23.617   6.660  34.988  0.00  0.00    -0.013 A 
ATOM     22  C3  UNL     1      23.557   6.556  36.372  0.00  0.00    +0.011 A 
ATOM     23  C4  UNL     1      22.359   7.040  36.909  0.00  0.00    +0.019 A 
ATOM     24  C5  UNL     1      21.487   7.555  35.953  0.00  0.00    +0.057 A 
ATOM     25  S1  UNL     1      22.202   7.379  34.436  0.00  0.00    -0.090 S 
ENDBRANCH   1  24
TORSDOF 1
ENDMDL
MODEL 4
REMARK VINA RESULT:    -6.415     15.952     16.685
REMARK INTER + INTRA:          -6.874
REMARK INTER:                  -6.791
REMARK INTRA:                  -0.083
REMARK UNBOUND:                -0.084
REMARK  Name = /home/qwerty/github/datacon2025hack/step_04_hit_selection/docking/ligands/lig_77.pdb
REMARK  3 active torsions:
REMARK  status: ('A' for Active; 'I' for Inactive)
REMARK    1  A    between atoms: C1_1  and  C2_2
REMARK    2  A    between atoms: C5_5  and  C6_6
REMARK    3  A    between atoms: N6_23  and  C17_24
REMARK                            x       y       z     vdW  Elec       q    Type
REMARK                         _______ _______ _______ _____ _____    ______ ____
ROOT
ATOM      1  C6  UNL     1      13.756  10.564  36.048  0.00  0.00    +0.172 A 
ATOM      2  N1  UNL     1      13.690   9.231  35.853  0.00  0.00    -0.127 NA
ATOM      3  N2  UNL     1      14.931   8.788  35.727  0.00  0.00    -0.113 NA
ATOM      4  C7  UNL     1      15.740   9.857  35.848  0.00  0.00    +0.220 A 
ATOM      5  N3  UNL     1      17.173   9.764  35.796  0.00  0.00    -0.297 N 
ATOM      6  C8  UNL     1      18.006  10.466  36.781  0.00  0.00    +0.127 C 
ATOM      7  C9  UNL     1      19.085   9.526  37.324  0.00  0.00    +0.125 C 
ATOM      8  N4  UNL     1      19.814   8.856  36.235  0.00  0.00    -0.310 N 
ATOM      9  C10 UNL     1      21.019   8.133  36.553  0.00  0.00    +0.157 A 
ATOM     10  N5  UNL     1      21.094   7.446  37.730  0.00  0.00    -0.237 NA
ATOM     11  C11 UNL     1      22.203   6.749  38.094  0.00  0.00    +0.113 A 
ATOM     12  C12 UNL     1      23.317   6.722  37.256  0.00  0.00    +0.023 A 
ATOM     13  C13 UNL     1      23.282   7.426  36.052  0.00  0.00    +0.043 A 
ATOM     14  C14 UNL     1      22.136   8.141  35.693  0.00  0.00    +0.163 A 
ATOM     15  F1  UNL     1      22.140   8.863  34.545  0.00  0.00    -0.202 F 
ATOM     16  C15 UNL     1      19.314   8.926  34.854  0.00  0.00    +0.125 C 
ATOM     17  C16 UNL     1      17.783   8.843  34.829  0.00  0.00    +0.127 C 
ATOM     18  N6  UNL     1      15.037  10.997  36.033  0.00  0.00    -0.298 N 
ATOM     19  C17 UNL     1      15.537  12.373  36.055  0.00  0.00    +0.154 C 
ENDROOT
BRANCH   1  24
ATOM     20  C1  UNL     1       9.744  14.185  35.956  0.00  0.00    +0.051 C 
ATOM     21  C2  UNL     1      10.727  13.108  36.267  0.00  0.00    -0.013 A 
ATOM     22  C3  UNL     1      10.645  12.213  37.327  0.00  0.00    +0.011 A 
ATOM     23  C4  UNL     1      11.676  11.268  37.332  0.00  0.00    +0.019 A 
ATOM     24  C5  UNL     1      12.554  11.395  36.258  0.00  0.00    +0.057 A 
ATOM     25  S1  UNL     1      12.057  12.706  35.321  0.00  0.00    -0.090 S 
ENDBRANCH   1  24
TORSDOF 1
ENDMDL
MODEL 5
REMARK VINA RESULT:    -6.351     15.752     18.569
REMARK INTER + INTRA:          -6.806
REMARK INTER:                  -6.618
REMARK INTRA:                  -0.187
REMARK UNBOUND:                -0.084
REMARK  Name = /home/qwerty/github/datacon2025hack/step_04_hit_selection/docking/ligands/lig_77.pdb
REMARK  3 active torsions:
REMARK  status: ('A' for Active; 'I' for Inactive)
REMARK    1  A    between atoms: C1_1  and  C2_2
REMARK    2  A    between atoms: C5_5  and  C6_6
REMARK    3  A    between atoms: N6_23  and  C17_24
REMARK                            x       y       z     vdW  Elec       q    Type
REMARK                         _______ _______ _______ _____ _____    ______ ____
ROOT
ATOM      1  C6  UNL     1      18.833  10.014  36.492  0.00  0.00    +0.172 A 
ATOM      2  N1  UNL     1      18.874  11.207  37.121  0.00  0.00    -0.127 NA
ATOM      3  N2  UNL     1      17.820  11.901  36.722  0.00  0.00    -0.113 NA
ATOM      4  C7  UNL     1      17.147  11.121  35.855  0.00  0.00    +0.220 A 
ATOM      5  N3  UNL     1      15.919  11.527  35.229  0.00  0.00    -0.297 N 
ATOM      6  C8  UNL     1      14.773  10.611  35.162  0.00  0.00    +0.127 C 
ATOM      7  C9  UNL     1      13.492  11.337  35.580  0.00  0.00    +0.125 C 
ATOM      8  N4  UNL     1      13.334  12.610  34.858  0.00  0.00    -0.310 N 
ATOM      9  C10 UNL     1      12.070  13.298  34.942  0.00  0.00    +0.157 A 
ATOM     10  N5  UNL     1      11.375  13.275  36.116  0.00  0.00    -0.237 NA
ATOM     11  C11 UNL     1      10.175  13.898  36.261  0.00  0.00    +0.113 A 
ATOM     12  C12 UNL     1       9.612  14.588  35.189  0.00  0.00    +0.023 A 
ATOM     13  C13 UNL     1      10.288  14.620  33.968  0.00  0.00    +0.043 A 
ATOM     14  C14 UNL     1      11.519  13.971  33.834  0.00  0.00    +0.163 A 
ATOM     15  F1  UNL     1      12.135  13.968  32.625  0.00  0.00    -0.202 F 
ATOM     16  C15 UNL     1      14.447  13.160  34.071  0.00  0.00    +0.125 C 
ATOM     17  C16 UNL     1      15.782  12.920  34.784  0.00  0.00    +0.127 C 
ATOM     18  N6  UNL     1      17.762   9.932  35.669  0.00  0.00    -0.298 N 
ATOM     19  C17 UNL     1      17.433   8.886  34.701  0.00  0.00    +0.154 C 
ENDROOT
BRANCH   1  24
ATOM     20  C1  UNL     1      23.111   6.710  36.542  0.00  0.00    +0.051 C 
ATOM     21  C2  UNL     1      21.792   7.389  36.700  0.00  0.00    -0.013 A 
ATOM     22  C3  UNL     1      20.755   6.968  37.523  0.00  0.00    +0.011 A 
ATOM     23  C4  UNL     1      19.660   7.839  37.519  0.00  0.00    +0.019 A 
ATOM     24  C5  UNL     1      19.845   8.963  36.718  0.00  0.00    +0.057 A 
ATOM     25  S1  UNL     1      21.365   8.853  35.994  0.00  0.00    -0.090 S 
ENDBRANCH   1  24
TORSDOF 1
ENDMDL
MODEL 6
REMARK VINA RESULT:    -6.279      1.902      2.625
REMARK INTER + INTRA:          -6.730
REMARK INTER:                  -6.572
REMARK INTRA:                  -0.159
REMARK UNBOUND:                -0.084
REMARK  Name = /home/qwerty/github/datacon2025hack/step_04_hit_selection/docking/ligands/lig_77.pdb
REMARK  3 active torsions:
REMARK  status: ('A' for Active; 'I' for Inactive)
REMARK    1  A    between atoms: C1_1  and  C2_2
REMARK    2  A    between atoms: C5_5  and  C6_6
REMARK    3  A    between atoms: N6_23  and  C17_24
REMARK                            x       y       z     vdW  Elec       q    Type
REMARK                         _______ _______ _______ _____ _____    ______ ____
ROOT
ATOM      1  C6  UNL     1      10.412   5.061  21.677  0.00  0.00    +0.172 A 
ATOM      2  N1  UNL     1       9.811   3.944  21.218  0.00  0.00    -0.127 NA
ATOM      3  N2  UNL     1      10.676   2.950  21.344  0.00  0.00    -0.113 NA
ATOM      4  C7  UNL     1      11.794   3.474  21.881  0.00  0.00    +0.220 A 
ATOM      5  N3  UNL     1      12.955   2.686  22.196  0.00  0.00    -0.297 N 
ATOM      6  C8  UNL     1      13.642   2.846  23.483  0.00  0.00    +0.127 C 
ATOM      7  C9  UNL     1      13.928   1.476  24.102  0.00  0.00    +0.125 C 
ATOM      8  N4  UNL     1      14.580   0.575  23.139  0.00  0.00    -0.310 N 
ATOM      9  C10 UNL     1      15.143  -0.662  23.622  0.00  0.00    +0.157 A 
ATOM     10  N5  UNL     1      14.506  -1.339  24.620  0.00  0.00    -0.237 NA
ATOM     11  C11 UNL     1      14.986  -2.507  25.125  0.00  0.00    +0.113 A 
ATOM     12  C12 UNL     1      16.169  -3.049  24.627  0.00  0.00    +0.023 A 
ATOM     13  C13 UNL     1      16.856  -2.375  23.616  0.00  0.00    +0.043 A 
ATOM     14  C14 UNL     1      16.352  -1.175  23.110  0.00  0.00    +0.163 A 
ATOM     15  F1  UNL     1      17.060  -0.506  22.165  0.00  0.00    -0.202 F 
ATOM     16  C15 UNL     1      14.651   0.935  21.716  0.00  0.00    +0.125 C 
ATOM     17  C16 UNL     1      13.355   1.621  21.268  0.00  0.00    +0.127 C 
ATOM     18  N6  UNL     1      11.674   4.804  22.088  0.00  0.00    -0.298 N 
ATOM     19  C17 UNL     1      12.709   5.751  22.507  0.00  0.00    +0.154 C 
ENDROOT
BRANCH   1  24
ATOM     20  C1  UNL     1       8.661  10.137  21.053  0.00  0.00    +0.051 C 
ATOM     21  C2  UNL     1       8.953   8.739  21.483  0.00  0.00    -0.013 A 
ATOM     22  C3  UNL     1       8.287   8.040  22.482  0.00  0.00    +0.011 A 
ATOM     23  C4  UNL     1       8.733   6.722  22.623  0.00  0.00    +0.019 A 
ATOM     24  C5  UNL     1       9.728   6.370  21.715  0.00  0.00    +0.057 A 
ATOM     25  S1  UNL     1      10.069   7.715  20.756  0.00  0.00    -0.090 S 
ENDBRANCH   1  24
TORSDOF 1
ENDMDL
MODEL 7
REMARK VINA RESULT:    -6.073      7.364      8.902
REMARK INTER + INTRA:          -6.512
REMARK INTER:                  -6.324
REMARK INTRA:                  -0.188
REMARK UNBOUND:                -0.084
REMARK  Name = /home/qwerty/github/datacon2025hack/step_04_hit_selection/docking/ligands/lig_77.pdb
REMARK  3 active torsions:
REMARK  status: ('A' for Active; 'I' for Inactive)
REMARK    1  A    between atoms: C1_1  and  C2_2
REMARK    2  A    between atoms: C5_5  and  C6_6
REMARK    3  A    between atoms: N6_23  and  C17_24
REMARK                            x       y       z     vdW  Elec       q    Type
REMARK                         _______ _______ _______ _____ _____    ______ ____
ROOT
ATOM      1  C6  UNL     1      18.790   6.003  21.660  0.00  0.00    +0.172 A 
ATOM      2  N1  UNL     1      18.402   4.729  21.451  0.00  0.00    -0.127 NA
ATOM      3  N2  UNL     1      18.950   3.988  22.401  0.00  0.00    -0.113 NA
ATOM      4  C7  UNL     1      19.663   4.822  23.181  0.00  0.00    +0.220 A 
ATOM      5  N3  UNL     1      20.381   4.382  24.346  0.00  0.00    -0.297 N 
ATOM      6  C8  UNL     1      20.294   5.128  25.607  0.00  0.00    +0.127 C 
ATOM      7  C9  UNL     1      20.050   4.167  26.773  0.00  0.00    +0.125 C 
ATOM      8  N4  UNL     1      21.006   3.050  26.760  0.00  0.00    -0.310 N 
ATOM      9  C10 UNL     1      21.083   2.192  27.916  0.00  0.00    +0.157 A 
ATOM     10  N5  UNL     1      19.941   1.893  28.601  0.00  0.00    -0.237 NA
ATOM     11  C11 UNL     1      19.943   1.096  29.702  0.00  0.00    +0.113 A 
ATOM     12  C12 UNL     1      21.140   0.557  30.171  0.00  0.00    +0.023 A 
ATOM     13  C13 UNL     1      22.330   0.854  29.505  0.00  0.00    +0.043 A 
ATOM     14  C14 UNL     1      22.311   1.678  28.377  0.00  0.00    +0.163 A 
ATOM     15  F1  UNL     1      23.484   2.000  27.774  0.00  0.00    -0.202 F 
ATOM     16  C15 UNL     1      21.862   2.819  25.587  0.00  0.00    +0.125 C 
ATOM     17  C16 UNL     1      21.089   3.096  24.292  0.00  0.00    +0.127 C 
ATOM     18  N6  UNL     1      19.603   6.097  22.737  0.00  0.00    -0.298 N 
ATOM     19  C17 UNL     1      20.358   7.256  23.214  0.00  0.00    +0.154 C 
ENDROOT
BRANCH   1  24
ATOM     20  C1  UNL     1      16.488  10.321  19.364  0.00  0.00    +0.051 C 
ATOM     21  C2  UNL     1      17.235   9.076  19.701  0.00  0.00    -0.013 A 
ATOM     22  C3  UNL     1      18.119   8.406  18.865  0.00  0.00    +0.011 A 
ATOM     23  C4  UNL     1      18.726   7.302  19.474  0.00  0.00    +0.019 A 
ATOM     24  C5  UNL     1      18.345   7.118  20.801  0.00  0.00    +0.057 A 
ATOM     25  S1  UNL     1      17.230   8.319  21.202  0.00  0.00    -0.090 S 
ENDBRANCH   1  24
TORSDOF 1
ENDMDL
MODEL 8
REMARK VINA RESULT:    -6.009      7.151      9.590
REMARK INTER + INTRA:          -6.444
REMARK INTER:                  -6.260
REMARK INTRA:                  -0.184
REMARK UNBOUND:                -0.084
REMARK  Name = /home/qwerty/github/datacon2025hack/step_04_hit_selection/docking/ligands/lig_77.pdb
REMARK  3 active torsions:
REMARK  status: ('A' for Active; 'I' for Inactive)
REMARK    1  A    between atoms: C1_1  and  C2_2
REMARK    2  A    between atoms: C5_5  and  C6_6
REMARK    3  A    between atoms: N6_23  and  C17_24
REMARK                            x       y       z     vdW  Elec       q    Type
REMARK                         _______ _______ _______ _____ _____    ______ ____
ROOT
ATOM      1  C6  UNL     1       9.558  11.435  28.963  0.00  0.00    +0.172 A 
ATOM      2  N1  UNL     1       8.279  11.025  29.090  0.00  0.00    -0.127 NA
ATOM      3  N2  UNL     1       7.943  10.423  27.960  0.00  0.00    -0.113 NA
ATOM      4  C7  UNL     1       9.024  10.472  27.157  0.00  0.00    +0.220 A 
ATOM      5  N3  UNL     1       9.051   9.889  25.844  0.00  0.00    -0.297 N 
ATOM      6  C8  UNL     1      10.193   9.077  25.409  0.00  0.00    +0.127 C 
ATOM      7  C9  UNL     1       9.701   7.786  24.749  0.00  0.00    +0.125 C 
ATOM      8  N4  UNL     1       8.685   8.059  23.721  0.00  0.00    -0.310 N 
ATOM      9  C10 UNL     1       8.297   6.992  22.832  0.00  0.00    +0.157 A 
ATOM     10  N5  UNL     1       8.222   5.718  23.314  0.00  0.00    -0.237 NA
ATOM     11  C11 UNL     1       7.868   4.666  22.529  0.00  0.00    +0.113 A 
ATOM     12  C12 UNL     1       7.572   4.868  21.181  0.00  0.00    +0.023 A 
ATOM     13  C13 UNL     1       7.654   6.156  20.651  0.00  0.00    +0.043 A 
ATOM     14  C14 UNL     1       8.022   7.227  21.470  0.00  0.00    +0.163 A 
ATOM     15  F1  UNL     1       8.149   8.463  20.925  0.00  0.00    -0.202 F 
ATOM     16  C15 UNL     1       8.082   9.396  23.610  0.00  0.00    +0.125 C 
ATOM     17  C16 UNL     1       7.855  10.002  25.000  0.00  0.00    +0.127 C 
ATOM     18  N6  UNL     1      10.055  11.118  27.746  0.00  0.00    -0.298 N 
ATOM     19  C17 UNL     1      11.333  11.510  27.151  0.00  0.00    +0.154 C 
ENDROOT
BRANCH   1  24
ATOM     20  C1  UNL     1      12.079  14.863  32.297  0.00  0.00    +0.051 C 
ATOM     21  C2  UNL     1      11.509  13.693  31.569  0.00  0.00    -0.013 A 
ATOM     22  C3  UNL     1      11.532  12.374  32.006  0.00  0.00    +0.011 A 
ATOM     23  C4  UNL     1      10.860  11.497  31.147  0.00  0.00    +0.019 A 
ATOM     24  C5  UNL     1      10.279  12.128  30.050  0.00  0.00    +0.057 A 
ATOM     25  S1  UNL     1      10.630  13.775  30.140  0.00  0.00    -0.090 S 
ENDBRANCH   1  24
TORSDOF 1
ENDMDL
MODEL 9
REMARK VINA RESULT:    -6.005     13.509     14.928
REMARK INTER + INTRA:          -6.440
REMARK INTER:                  -6.250
REMARK INTRA:                  -0.190
REMARK UNBOUND:                -0.084
REMARK  Name = /home/qwerty/github/datacon2025hack/step_04_hit_selection/docking/ligands/lig_77.pdb
REMARK  3 active torsions:
REMARK  status: ('A' for Active; 'I' for Inactive)
REMARK    1  A    between atoms: C1_1  and  C2_2
REMARK    2  A    between atoms: C5_5  and  C6_6
REMARK    3  A    between atoms: N6_23  and  C17_24
REMARK                            x       y       z     vdW  Elec       q    Type
REMARK                         _______ _______ _______ _____ _____    ______ ____
ROOT
ATOM      1  C6  UNL     1      19.446   7.641  35.656  0.00  0.00    +0.172 A 
ATOM      2  N1  UNL     1      20.779   7.752  35.480  0.00  0.00    -0.127 NA
ATOM      3  N2  UNL     1      21.166   6.727  34.736  0.00  0.00    -0.113 NA
ATOM      4  C7  UNL     1      20.062   6.005  34.466  0.00  0.00    +0.220 A 
ATOM      5  N3  UNL     1      20.081   4.822  33.649  0.00  0.00    -0.297 N 
ATOM      6  C8  UNL     1      19.072   4.618  32.602  0.00  0.00    +0.127 C 
ATOM      7  C9  UNL     1      19.744   4.168  31.303  0.00  0.00    +0.125 C 
ATOM      8  N4  UNL     1      20.661   3.040  31.533  0.00  0.00    -0.310 N 
ATOM      9  C10 UNL     1      21.185   2.333  30.391  0.00  0.00    +0.157 A 
ATOM     10  N5  UNL     1      21.488   3.028  29.257  0.00  0.00    -0.237 NA
ATOM     11  C11 UNL     1      21.980   2.422  28.144  0.00  0.00    +0.113 A 
ATOM     12  C12 UNL     1      22.187   1.044  28.133  0.00  0.00    +0.023 A 
ATOM     13  C13 UNL     1      21.873   0.298  29.270  0.00  0.00    +0.043 A 
ATOM     14  C14 UNL     1      21.365   0.935  30.405  0.00  0.00    +0.163 A 
ATOM     15  F1  UNL     1      21.015   0.187  31.482  0.00  0.00    -0.202 F 
ATOM     16  C15 UNL     1      21.031   2.652  32.902  0.00  0.00    +0.125 C 
ATOM     17  C16 UNL     1      21.209   3.891  33.785  0.00  0.00    +0.127 C 
ATOM     18  N6  UNL     1      18.962   6.537  35.043  0.00  0.00    -0.298 N 
ATOM     19  C17 UNL     1      17.614   5.971  35.114  0.00  0.00    +0.154 C 
ENDROOT
BRANCH   1  24
ATOM     20  C1  UNL     1      16.297  11.652  37.449  0.00  0.00    +0.051 C 
ATOM     21  C2  UNL     1      17.262  10.530  37.260  0.00  0.00    -0.013 A 
ATOM     22  C3  UNL     1      17.914   9.839  38.274  0.00  0.00    +0.011 A 
ATOM     23  C4  UNL     1      18.710   8.791  37.803  0.00  0.00    +0.019 A 
ATOM     24  C5  UNL     1      18.663   8.633  36.420  0.00  0.00    +0.057 A 
ATOM     25  S1  UNL     1      17.648   9.822  35.786  0.00  0.00    -0.090 S 
ENDBRANCH   1  24
TORSDOF 1
ENDMDL
