MODEL 1
REMARK VINA RESULT:    -7.542      0.000      0.000
REMARK INTER + INTRA:         -10.658
REMARK INTER:                  -9.746
REMARK INTRA:                  -0.912
REMARK UNBOUND:                -0.912
REMARK  Name = /home/qwerty/github/datacon2025hack/step_04_hit_selection/docking/ligands/lig_376.pdb
REMARK  7 active torsions:
REMARK  status: ('A' for Active; 'I' for Inactive)
REMARK    1  A    between atoms: C1_1  and  C2_2
REMARK    2  A    between atoms: C2_2  and  C3_3
REMARK    3  A    between atoms: C2_2  and  C4_4
REMARK    4  A    between atoms: C7_7  and  C8_8
REMARK    5  A    between atoms: C8_8  and  C9_9
REMARK    6  A    between atoms: C9_9  and  N1_10
REMARK    7  A    between atoms: N2_13  and  C11_14
REMARK                            x       y       z     vdW  Elec       q    Type
REMARK                         _______ _______ _______ _____ _____    ______ ____
ROOT
ATOM      1  N1  UNL     1       7.185   9.312  27.366  0.00  0.00    -0.299 N 
ATOM      2  C10 UNL     1       7.770   9.693  26.113  0.00  0.00    +0.304 C 
ATOM      3  O1  UNL     1       8.969  10.080  26.066  0.00  0.00    -0.253 OA
ATOM      4  N2  UNL     1       6.972   9.667  24.923  0.00  0.00    -0.269 N 
ATOM      5  H14 UNL     1       6.219   8.913  27.369  0.00  0.00    +0.150 HD
ATOM      6  H15 UNL     1       5.934   9.640  25.027  0.00  0.00    +0.156 HD
ENDROOT
BRANCH   4   7
ATOM      7  C11 UNL     1       7.516   9.920  23.622  0.00  0.00    +0.040 A 
ATOM      8  C12 UNL     1       7.300  11.163  23.001  0.00  0.00    +0.024 A 
ATOM      9  C13 UNL     1       7.793  11.411  21.707  0.00  0.00    +0.002 A 
ATOM     10  C14 UNL     1       8.488  10.412  21.012  0.00  0.00    +0.005 A 
ATOM     11  C15 UNL     1       8.679   9.176  21.631  0.00  0.00    -0.024 A 
ATOM     12  C16 UNL     1       8.211   8.931  22.905  0.00  0.00    -0.004 A 
ATOM     13  C17 UNL     1       8.460   7.513  23.281  0.00  0.00    +0.144 C 
ATOM     14  N3  UNL     1       9.129   6.968  22.101  0.00  0.00    -0.301 N 
ATOM     15  C18 UNL     1       9.571   5.610  21.986  0.00  0.00    +0.161 A 
ATOM     16  N4  UNL     1      10.188   5.122  20.889  0.00  0.00    -0.233 NA
ATOM     17  C19 UNL     1      10.504   3.807  21.035  0.00  0.00    +0.120 A 
ATOM     18  C20 UNL     1      10.137   3.243  22.251  0.00  0.00    +0.068 A 
ATOM     19  S1  UNL     1       9.392   4.434  23.178  0.00  0.00    -0.061 S 
ATOM     20  C21 UNL     1       9.303   7.964  21.047  0.00  0.00    +0.142 C 
ENDBRANCH   4   7
BRANCH   1  21
ATOM     21  C9  UNL     1       7.896   9.425  28.639  0.00  0.00    +0.110 C 
BRANCH  21  22
ATOM     22  C8  UNL     1       7.595  10.762  29.328  0.00  0.00    +0.054 C 
BRANCH  22  26
ATOM     23  C4  UNL     1      10.656  13.735  28.609  0.00  0.00    -0.045 A 
ATOM     24  C5  UNL     1      10.868  12.699  29.540  0.00  0.00    +0.004 A 
ATOM     25  C6  UNL     1       9.883  11.734  29.762  0.00  0.00    +0.004 A 
ATOM     26  C7  UNL     1       8.673  11.780  29.055  0.00  0.00    -0.046 A 
ATOM     27  C22 UNL     1       8.454  12.816  28.135  0.00  0.00    +0.004 A 
ATOM     28  C23 UNL     1       9.438  13.782  27.912  0.00  0.00    +0.004 A 
BRANCH  23  30
ATOM     29  C1  UNL     1      12.717  14.851  29.520  0.00  0.00    +0.012 C 
ATOM     30  C2  UNL     1      11.714  14.795  28.363  0.00  0.00    +0.013 C 
ATOM     31  C3  UNL     1      12.427  14.567  27.024  0.00  0.00    +0.012 C 
ENDBRANCH  23  30
ENDBRANCH  22  26
ENDBRANCH  21  22
ENDBRANCH   1  21
TORSDOF 5
ENDMDL
MODEL 2
REMARK VINA RESULT:    -7.401     12.749     15.338
REMARK INTER + INTRA:         -10.477
REMARK INTER:                  -9.852
REMARK INTRA:                  -0.625
REMARK UNBOUND:                -0.912
REMARK  Name = /home/qwerty/github/datacon2025hack/step_04_hit_selection/docking/ligands/lig_376.pdb
REMARK  7 active torsions:
REMARK  status: ('A' for Active; 'I' for Inactive)
REMARK    1  A    between atoms: C1_1  and  C2_2
REMARK    2  A    between atoms: C2_2  and  C3_3
REMARK    3  A    between atoms: C2_2  and  C4_4
REMARK    4  A    between atoms: C7_7  and  C8_8
REMARK    5  A    between atoms: C8_8  and  C9_9
REMARK    6  A    between atoms: C9_9  and  N1_10
REMARK    7  A    between atoms: N2_13  and  C11_14
REMARK                            x       y       z     vdW  Elec       q    Type
REMARK                         _______ _______ _______ _____ _____    ______ ____
ROOT
ATOM      1  N1  UNL     1      21.361   4.478  22.565  0.00  0.00    -0.299 N 
ATOM      2  C10 UNL     1      22.011   5.734  22.329  0.00  0.00    +0.304 C 
ATOM      3  O1  UNL     1      22.020   6.621  23.225  0.00  0.00    -0.253 OA
ATOM      4  N2  UNL     1      22.616   5.989  21.055  0.00  0.00    -0.269 N 
ATOM      5  H14 UNL     1      21.440   3.727  21.842  0.00  0.00    +0.150 HD
ATOM      6  H15 UNL     1      22.341   5.384  20.249  0.00  0.00    +0.156 HD
ENDROOT
BRANCH   4   7
ATOM      7  C11 UNL     1      23.382   7.169  20.785  0.00  0.00    +0.040 A 
ATOM      8  C12 UNL     1      24.778   7.154  20.959  0.00  0.00    +0.024 A 
ATOM      9  C13 UNL     1      25.539   8.316  20.735  0.00  0.00    +0.002 A 
ATOM     10  C14 UNL     1      24.910   9.511  20.359  0.00  0.00    +0.005 A 
ATOM     11  C15 UNL     1      23.523   9.518  20.208  0.00  0.00    -0.024 A 
ATOM     12  C16 UNL     1      22.773   8.379  20.410  0.00  0.00    -0.004 A 
ATOM     13  C17 UNL     1      21.323   8.687  20.284  0.00  0.00    +0.144 C 
ATOM     14  N3  UNL     1      21.312  10.117  19.977  0.00  0.00    -0.301 N 
ATOM     15  C18 UNL     1      20.120  10.883  19.763  0.00  0.00    +0.161 A 
ATOM     16  N4  UNL     1      20.128  12.202  19.480  0.00  0.00    -0.233 NA
ATOM     17  C19 UNL     1      18.867  12.689  19.325  0.00  0.00    +0.120 A 
ATOM     18  C20 UNL     1      17.850  11.756  19.487  0.00  0.00    +0.068 A 
ATOM     19  S1  UNL     1      18.554  10.268  19.835  0.00  0.00    -0.061 S 
ATOM     20  C21 UNL     1      22.657  10.683  19.905  0.00  0.00    +0.142 C 
ENDBRANCH   4   7
BRANCH   1  21
ATOM     21  C9  UNL     1      20.620   4.189  23.792  0.00  0.00    +0.110 C 
BRANCH  21  22
ATOM     22  C8  UNL     1      20.522   2.678  24.040  0.00  0.00    +0.054 C 
BRANCH  22  26
ATOM     23  C4  UNL     1      22.124   1.638  27.923  0.00  0.00    -0.045 A 
ATOM     24  C5  UNL     1      21.114   0.854  27.332  0.00  0.00    +0.004 A 
ATOM     25  C6  UNL     1      20.606   1.185  26.073  0.00  0.00    +0.004 A 
ATOM     26  C7  UNL     1      21.101   2.299  25.379  0.00  0.00    -0.046 A 
ATOM     27  C22 UNL     1      22.099   3.088  25.969  0.00  0.00    +0.004 A 
ATOM     28  C23 UNL     1      22.608   2.759  27.228  0.00  0.00    +0.004 A 
BRANCH  23  30
ATOM     29  C1  UNL     1      21.692   0.435  30.088  0.00  0.00    +0.012 C 
ATOM     30  C2  UNL     1      22.679   1.296  29.293  0.00  0.00    +0.013 C 
ATOM     31  C3  UNL     1      24.046   0.609  29.182  0.00  0.00    +0.012 C 
ENDBRANCH  23  30
ENDBRANCH  22  26
ENDBRANCH  21  22
ENDBRANCH   1  21
TORSDOF 5
ENDMDL
MODEL 3
REMARK VINA RESULT:    -7.399      6.517     11.678
REMARK INTER + INTRA:         -10.474
REMARK INTER:                  -9.571
REMARK INTRA:                  -0.902
REMARK UNBOUND:                -0.912
REMARK  Name = /home/qwerty/github/datacon2025hack/step_04_hit_selection/docking/ligands/lig_376.pdb
REMARK  7 active torsions:
REMARK  status: ('A' for Active; 'I' for Inactive)
REMARK    1  A    between atoms: C1_1  and  C2_2
REMARK    2  A    between atoms: C2_2  and  C3_3
REMARK    3  A    between atoms: C2_2  and  C4_4
REMARK    4  A    between atoms: C7_7  and  C8_8
REMARK    5  A    between atoms: C8_8  and  C9_9
REMARK    6  A    between atoms: C9_9  and  N1_10
REMARK    7  A    between atoms: N2_13  and  C11_14
REMARK                            x       y       z     vdW  Elec       q    Type
REMARK                         _______ _______ _______ _____ _____    ______ ____
ROOT
ATOM      1  N1  UNL     1      12.093  14.752  29.829  0.00  0.00    -0.299 N 
ATOM      2  C10 UNL     1      11.733  14.183  31.095  0.00  0.00    +0.304 C 
ATOM      3  O1  UNL     1      11.438  12.960  31.178  0.00  0.00    -0.253 OA
ATOM      4  N2  UNL     1      11.675  15.021  32.256  0.00  0.00    -0.269 N 
ATOM      5  H14 UNL     1      12.416  15.746  29.798  0.00  0.00    +0.150 HD
ATOM      6  H15 UNL     1      11.624  16.054  32.116  0.00  0.00    +0.156 HD
ENDROOT
BRANCH   4   7
ATOM      7  C11 UNL     1      11.439  14.504  33.572  0.00  0.00    +0.040 A 
ATOM      8  C12 UNL     1      10.158  14.600  34.144  0.00  0.00    +0.024 A 
ATOM      9  C13 UNL     1       9.921  14.133  35.450  0.00  0.00    +0.002 A 
ATOM     10  C14 UNL     1      10.968  13.587  36.205  0.00  0.00    +0.005 A 
ATOM     11  C15 UNL     1      12.238  13.515  35.634  0.00  0.00    -0.024 A 
ATOM     12  C16 UNL     1      12.474  13.956  34.349  0.00  0.00    -0.004 A 
ATOM     13  C17 UNL     1      13.924  13.858  34.027  0.00  0.00    +0.144 C 
ATOM     14  N3  UNL     1      14.499  13.304  35.252  0.00  0.00    -0.301 N 
ATOM     15  C18 UNL     1      15.893  13.025  35.428  0.00  0.00    +0.161 A 
ATOM     16  N4  UNL     1      16.409  12.513  36.566  0.00  0.00    -0.233 NA
ATOM     17  C19 UNL     1      17.755  12.345  36.475  0.00  0.00    +0.120 A 
ATOM     18  C20 UNL     1      18.317  12.726  35.262  0.00  0.00    +0.068 A 
ATOM     19  S1  UNL     1      17.083  13.291  34.267  0.00  0.00    -0.061 S 
ATOM     20  C21 UNL     1      13.492  13.058  36.282  0.00  0.00    +0.142 C 
ENDBRANCH   4   7
BRANCH   1  21
ATOM     21  C9  UNL     1      12.059  13.992  28.580  0.00  0.00    +0.110 C 
BRANCH  21  22
ATOM     22  C8  UNL     1      10.709  14.146  27.870  0.00  0.00    +0.054 C 
BRANCH  22  26
ATOM     23  C4  UNL     1       8.027  10.840  28.647  0.00  0.00    -0.045 A 
ATOM     24  C5  UNL     1       9.071  10.711  27.710  0.00  0.00    +0.004 A 
ATOM     25  C6  UNL     1       9.943  11.776  27.470  0.00  0.00    +0.004 A 
ATOM     26  C7  UNL     1       9.793  12.985  28.163  0.00  0.00    -0.046 A 
ATOM     27  C22 UNL     1       8.748  13.122  29.089  0.00  0.00    +0.004 A 
ATOM     28  C23 UNL     1       7.875  12.058  29.331  0.00  0.00    +0.004 A 
BRANCH  23  30
ATOM     29  C1  UNL     1       7.270   8.561  27.903  0.00  0.00    +0.012 C 
ATOM     30  C2  UNL     1       7.068   9.695  28.914  0.00  0.00    +0.013 C 
ATOM     31  C3  UNL     1       7.201   9.183  30.353  0.00  0.00    +0.012 C 
ENDBRANCH  23  30
ENDBRANCH  22  26
ENDBRANCH  21  22
ENDBRANCH   1  21
TORSDOF 5
ENDMDL
MODEL 4
REMARK VINA RESULT:    -7.287      3.628      6.891
REMARK INTER + INTRA:         -10.329
REMARK INTER:                  -9.324
REMARK INTRA:                  -1.005
REMARK UNBOUND:                -0.912
REMARK  Name = /home/qwerty/github/datacon2025hack/step_04_hit_selection/docking/ligands/lig_376.pdb
REMARK  7 active torsions:
REMARK  status: ('A' for Active; 'I' for Inactive)
REMARK    1  A    between atoms: C1_1  and  C2_2
REMARK    2  A    between atoms: C2_2  and  C3_3
REMARK    3  A    between atoms: C2_2  and  C4_4
REMARK    4  A    between atoms: C7_7  and  C8_8
REMARK    5  A    between atoms: C8_8  and  C9_9
REMARK    6  A    between atoms: C9_9  and  N1_10
REMARK    7  A    between atoms: N2_13  and  C11_14
REMARK                            x       y       z     vdW  Elec       q    Type
REMARK                         _______ _______ _______ _____ _____    ______ ____
ROOT
ATOM      1  N1  UNL     1      10.200   7.866  19.896  0.00  0.00    -0.299 N 
ATOM      2  C10 UNL     1      10.208   6.764  20.814  0.00  0.00    +0.304 C 
ATOM      3  O1  UNL     1      10.807   6.864  21.919  0.00  0.00    -0.253 OA
ATOM      4  N2  UNL     1       9.565   5.536  20.450  0.00  0.00    -0.269 N 
ATOM      5  H14 UNL     1       9.626   7.791  19.025  0.00  0.00    +0.150 HD
ATOM      6  H15 UNL     1       9.348   5.373  19.441  0.00  0.00    +0.156 HD
ENDROOT
BRANCH   4   7
ATOM      7  C11 UNL     1       9.431   4.435  21.357  0.00  0.00    +0.040 A 
ATOM      8  C12 UNL     1       8.305   4.351  22.196  0.00  0.00    +0.024 A 
ATOM      9  C13 UNL     1       8.179   3.297  23.120  0.00  0.00    +0.002 A 
ATOM     10  C14 UNL     1       9.187   2.329  23.230  0.00  0.00    +0.005 A 
ATOM     11  C15 UNL     1      10.307   2.434  22.405  0.00  0.00    -0.024 A 
ATOM     12  C16 UNL     1      10.430   3.455  21.487  0.00  0.00    -0.004 A 
ATOM     13  C17 UNL     1      11.757   3.388  20.815  0.00  0.00    +0.144 C 
ATOM     14  N3  UNL     1      12.381   2.217  21.430  0.00  0.00    -0.301 N 
ATOM     15  C18 UNL     1      13.692   1.743  21.100  0.00  0.00    +0.161 A 
ATOM     16  N4  UNL     1      14.255   0.660  21.676  0.00  0.00    -0.233 NA
ATOM     17  C19 UNL     1      15.502   0.423  21.188  0.00  0.00    +0.120 A 
ATOM     18  C20 UNL     1      15.938   1.321  20.221  0.00  0.00    +0.068 A 
ATOM     19  S1  UNL     1      14.716   2.450  19.966  0.00  0.00    -0.061 S 
ATOM     20  C21 UNL     1      11.517   1.577  22.418  0.00  0.00    +0.142 C 
ENDBRANCH   4   7
BRANCH   1  21
ATOM     21  C9  UNL     1      10.933   9.107  20.143  0.00  0.00    +0.110 C 
BRANCH  21  22
ATOM     22  C8  UNL     1       9.976  10.274  20.418  0.00  0.00    +0.054 C 
BRANCH  22  26
ATOM     23  C4  UNL     1       8.400  10.033  24.441  0.00  0.00    -0.045 A 
ATOM     24  C5  UNL     1       9.789   9.984  24.212  0.00  0.00    +0.004 A 
ATOM     25  C6  UNL     1      10.296  10.074  22.913  0.00  0.00    +0.004 A 
ATOM     26  C7  UNL     1       9.428  10.221  21.821  0.00  0.00    -0.046 A 
ATOM     27  C22 UNL     1       8.044  10.259  22.044  0.00  0.00    +0.004 A 
ATOM     28  C23 UNL     1       7.535  10.169  23.343  0.00  0.00    +0.004 A 
BRANCH  23  30
ATOM     29  C1  UNL     1       7.749   8.468  26.298  0.00  0.00    +0.012 C 
ATOM     30  C2  UNL     1       7.835   9.930  25.845  0.00  0.00    +0.013 C 
ATOM     31  C3  UNL     1       8.651  10.769  26.836  0.00  0.00    +0.012 C 
ENDBRANCH  23  30
ENDBRANCH  22  26
ENDBRANCH  21  22
ENDBRANCH   1  21
TORSDOF 5
ENDMDL
MODEL 5
REMARK VINA RESULT:    -7.276     10.768     13.974
REMARK INTER + INTRA:         -10.315
REMARK INTER:                  -9.420
REMARK INTRA:                  -0.895
REMARK UNBOUND:                -0.912
REMARK  Name = /home/qwerty/github/datacon2025hack/step_04_hit_selection/docking/ligands/lig_376.pdb
REMARK  7 active torsions:
REMARK  status: ('A' for Active; 'I' for Inactive)
REMARK    1  A    between atoms: C1_1  and  C2_2
REMARK    2  A    between atoms: C2_2  and  C3_3
REMARK    3  A    between atoms: C2_2  and  C4_4
REMARK    4  A    between atoms: C7_7  and  C8_8
REMARK    5  A    between atoms: C8_8  and  C9_9
REMARK    6  A    between atoms: C9_9  and  N1_10
REMARK    7  A    between atoms: N2_13  and  C11_14
REMARK                            x       y       z     vdW  Elec       q    Type
REMARK                         _______ _______ _______ _____ _____    ______ ____
ROOT
ATOM      1  N1  UNL     1      20.865   1.817  25.153  0.00  0.00    -0.299 N 
ATOM      2  C10 UNL     1      19.670   1.040  25.305  0.00  0.00    +0.304 C 
ATOM      3  O1  UNL     1      18.875   1.278  26.255  0.00  0.00    -0.253 OA
ATOM      4  N2  UNL     1      19.404  -0.035  24.394  0.00  0.00    -0.269 N 
ATOM      5  H14 UNL     1      21.464   1.659  24.311  0.00  0.00    +0.150 HD
ATOM      6  H15 UNL     1      20.197  -0.402  23.822  0.00  0.00    +0.156 HD
ENDROOT
BRANCH   4   7
ATOM      7  C11 UNL     1      18.180  -0.778  24.410  0.00  0.00    +0.040 A 
ATOM      8  C12 UNL     1      18.129  -2.033  25.043  0.00  0.00    +0.024 A 
ATOM      9  C13 UNL     1      16.944  -2.792  25.033  0.00  0.00    +0.002 A 
ATOM     10  C14 UNL     1      15.805  -2.314  24.370  0.00  0.00    +0.005 A 
ATOM     11  C15 UNL     1      15.874  -1.076  23.730  0.00  0.00    -0.024 A 
ATOM     12  C16 UNL     1      17.027  -0.320  23.749  0.00  0.00    -0.004 A 
ATOM     13  C17 UNL     1      16.859   0.897  22.911  0.00  0.00    +0.144 C 
ATOM     14  N3  UNL     1      15.489   0.774  22.415  0.00  0.00    -0.301 N 
ATOM     15  C18 UNL     1      14.861   1.728  21.550  0.00  0.00    +0.161 A 
ATOM     16  N4  UNL     1      13.594   1.599  21.102  0.00  0.00    -0.233 NA
ATOM     17  C19 UNL     1      13.240   2.637  20.297  0.00  0.00    +0.120 A 
ATOM     18  C20 UNL     1      14.227   3.596  20.100  0.00  0.00    +0.068 A 
ATOM     19  S1  UNL     1      15.591   3.128  20.967  0.00  0.00    -0.061 S 
ATOM     20  C21 UNL     1      14.824  -0.431  22.905  0.00  0.00    +0.142 C 
ENDBRANCH   4   7
BRANCH   1  21
ATOM     21  C9  UNL     1      21.265   2.849  26.109  0.00  0.00    +0.110 C 
BRANCH  21  22
ATOM     22  C8  UNL     1      22.384   2.350  27.032  0.00  0.00    +0.054 C 
BRANCH  22  26
ATOM     23  C4  UNL     1      20.917   1.117  30.912  0.00  0.00    -0.045 A 
ATOM     24  C5  UNL     1      20.994   2.483  30.576  0.00  0.00    +0.004 A 
ATOM     25  C6  UNL     1      21.457   2.878  29.318  0.00  0.00    +0.004 A 
ATOM     26  C7  UNL     1      21.844   1.919  28.372  0.00  0.00    -0.046 A 
ATOM     27  C22 UNL     1      21.779   0.558  28.706  0.00  0.00    +0.004 A 
ATOM     28  C23 UNL     1      21.316   0.161  29.963  0.00  0.00    +0.004 A 
BRANCH  23  30
ATOM     29  C1  UNL     1      20.393   1.848  33.260  0.00  0.00    +0.012 C 
ATOM     30  C2  UNL     1      20.423   0.673  32.276  0.00  0.00    +0.013 C 
ATOM     31  C3  UNL     1      19.049  -0.000  32.177  0.00  0.00    +0.012 C 
ENDBRANCH  23  30
ENDBRANCH  22  26
ENDBRANCH  21  22
ENDBRANCH   1  21
TORSDOF 5
ENDMDL
MODEL 6
REMARK VINA RESULT:    -7.239     14.106     17.536
REMARK INTER + INTRA:         -10.267
REMARK INTER:                  -9.387
REMARK INTRA:                  -0.880
REMARK UNBOUND:                -0.912
REMARK  Name = /home/qwerty/github/datacon2025hack/step_04_hit_selection/docking/ligands/lig_376.pdb
REMARK  7 active torsions:
REMARK  status: ('A' for Active; 'I' for Inactive)
REMARK    1  A    between atoms: C1_1  and  C2_2
REMARK    2  A    between atoms: C2_2  and  C3_3
REMARK    3  A    between atoms: C2_2  and  C4_4
REMARK    4  A    between atoms: C7_7  and  C8_8
REMARK    5  A    between atoms: C8_8  and  C9_9
REMARK    6  A    between atoms: C9_9  and  N1_10
REMARK    7  A    between atoms: N2_13  and  C11_14
REMARK                            x       y       z     vdW  Elec       q    Type
REMARK                         _______ _______ _______ _____ _____    ______ ____
ROOT
ATOM      1  N1  UNL     1      20.873   2.138  33.606  0.00  0.00    -0.299 N 
ATOM      2  C10 UNL     1      21.337   3.448  33.255  0.00  0.00    +0.304 C 
ATOM      3  O1  UNL     1      20.769   4.096  32.334  0.00  0.00    -0.253 OA
ATOM      4  N2  UNL     1      22.474   4.000  33.931  0.00  0.00    -0.269 N 
ATOM      5  H14 UNL     1      21.303   1.655  34.428  0.00  0.00    +0.150 HD
ATOM      6  H15 UNL     1      23.098   3.349  34.456  0.00  0.00    +0.156 HD
ENDROOT
BRANCH   4   7
ATOM      7  C11 UNL     1      22.923   5.344  33.718  0.00  0.00    +0.040 A 
ATOM      8  C12 UNL     1      24.085   5.584  32.963  0.00  0.00    +0.024 A 
ATOM      9  C13 UNL     1      24.560   6.896  32.779  0.00  0.00    +0.002 A 
ATOM     10  C14 UNL     1      23.892   7.978  33.368  0.00  0.00    +0.005 A 
ATOM     11  C15 UNL     1      22.752   7.725  34.131  0.00  0.00    -0.024 A 
ATOM     12  C16 UNL     1      22.271   6.444  34.302  0.00  0.00    -0.004 A 
ATOM     13  C17 UNL     1      21.113   6.447  35.236  0.00  0.00    +0.144 C 
ATOM     14  N3  UNL     1      20.965   7.862  35.577  0.00  0.00    -0.301 N 
ATOM     15  C18 UNL     1      19.963   8.372  36.464  0.00  0.00    +0.161 A 
ATOM     16  N4  UNL     1      19.840   9.681  36.768  0.00  0.00    -0.233 NA
ATOM     17  C19 UNL     1      18.812   9.900  37.632  0.00  0.00    +0.120 A 
ATOM     18  C20 UNL     1      18.114   8.763  38.021  0.00  0.00    +0.068 A 
ATOM     19  S1  UNL     1      18.807   7.436  37.253  0.00  0.00    -0.061 S 
ATOM     20  C21 UNL     1      21.952   8.705  34.906  0.00  0.00    +0.142 C 
ENDBRANCH   4   7
BRANCH   1  21
ATOM     21  C9  UNL     1      19.797   1.459  32.884  0.00  0.00    +0.110 C 
BRANCH  21  22
ATOM     22  C8  UNL     1      20.340   0.303  32.034  0.00  0.00    +0.054 C 
BRANCH  22  26
ATOM     23  C4  UNL     1      21.146   1.501  27.955  0.00  0.00    -0.045 A 
ATOM     24  C5  UNL     1      19.962   1.909  28.600  0.00  0.00    +0.004 A 
ATOM     25  C6  UNL     1      19.710   1.530  29.921  0.00  0.00    +0.004 A 
ATOM     26  C7  UNL     1      20.635   0.745  30.624  0.00  0.00    -0.046 A 
ATOM     27  C22 UNL     1      21.810   0.328  29.981  0.00  0.00    +0.004 A 
ATOM     28  C23 UNL     1      22.065   0.705  28.659  0.00  0.00    +0.004 A 
BRANCH  23  30
ATOM     29  C1  UNL     1      20.151   2.353  25.809  0.00  0.00    +0.012 C 
ATOM     30  C2  UNL     1      21.431   1.898  26.518  0.00  0.00    +0.013 C 
ATOM     31  C3  UNL     1      22.518   2.976  26.445  0.00  0.00    +0.012 C 
ENDBRANCH  23  30
ENDBRANCH  22  26
ENDBRANCH  21  22
ENDBRANCH   1  21
TORSDOF 5
ENDMDL
MODEL 7
REMARK VINA RESULT:    -7.130     14.815     16.389
REMARK INTER + INTRA:         -10.126
REMARK INTER:                  -9.027
REMARK INTRA:                  -1.098
REMARK UNBOUND:                -0.912
REMARK  Name = /home/qwerty/github/datacon2025hack/step_04_hit_selection/docking/ligands/lig_376.pdb
REMARK  7 active torsions:
REMARK  status: ('A' for Active; 'I' for Inactive)
REMARK    1  A    between atoms: C1_1  and  C2_2
REMARK    2  A    between atoms: C2_2  and  C3_3
REMARK    3  A    between atoms: C2_2  and  C4_4
REMARK    4  A    between atoms: C7_7  and  C8_8
REMARK    5  A    between atoms: C8_8  and  C9_9
REMARK    6  A    between atoms: C9_9  and  N1_10
REMARK    7  A    between atoms: N2_13  and  C11_14
REMARK                            x       y       z     vdW  Elec       q    Type
REMARK                         _______ _______ _______ _____ _____    ______ ____
ROOT
ATOM      1  N1  UNL     1      23.816   5.033  33.168  0.00  0.00    -0.299 N 
ATOM      2  C10 UNL     1      22.738   4.337  32.528  0.00  0.00    +0.304 C 
ATOM      3  O1  UNL     1      21.726   4.971  32.123  0.00  0.00    -0.253 OA
ATOM      4  N2  UNL     1      22.800   2.912  32.389  0.00  0.00    -0.269 N 
ATOM      5  H14 UNL     1      24.680   4.500  33.418  0.00  0.00    +0.150 HD
ATOM      6  H15 UNL     1      23.479   2.388  32.985  0.00  0.00    +0.156 HD
ENDROOT
BRANCH   4   7
ATOM      7  C11 UNL     1      21.820   2.163  31.660  0.00  0.00    +0.040 A 
ATOM      8  C12 UNL     1      22.012   1.902  30.292  0.00  0.00    +0.024 A 
ATOM      9  C13 UNL     1      21.040   1.202  29.554  0.00  0.00    +0.002 A 
ATOM     10  C14 UNL     1      19.855   0.775  30.171  0.00  0.00    +0.005 A 
ATOM     11  C15 UNL     1      19.669   1.057  31.525  0.00  0.00    -0.024 A 
ATOM     12  C16 UNL     1      20.624   1.729  32.258  0.00  0.00    -0.004 A 
ATOM     13  C17 UNL     1      20.130   1.984  33.638  0.00  0.00    +0.144 C 
ATOM     14  N3  UNL     1      18.798   1.381  33.632  0.00  0.00    -0.301 N 
ATOM     15  C18 UNL     1      17.916   1.374  34.760  0.00  0.00    +0.161 A 
ATOM     16  N4  UNL     1      16.689   0.812  34.738  0.00  0.00    -0.233 NA
ATOM     17  C19 UNL     1      16.056   0.943  35.935  0.00  0.00    +0.120 A 
ATOM     18  C20 UNL     1      16.779   1.613  36.916  0.00  0.00    +0.068 A 
ATOM     19  S1  UNL     1      18.264   2.055  36.260  0.00  0.00    -0.061 S 
ATOM     20  C21 UNL     1      18.464   0.777  32.344  0.00  0.00    +0.142 C 
ENDBRANCH   4   7
BRANCH   1  21
ATOM     21  C9  UNL     1      23.774   6.466  33.454  0.00  0.00    +0.110 C 
BRANCH  21  22
ATOM     22  C8  UNL     1      24.025   6.745  34.942  0.00  0.00    +0.054 C 
BRANCH  22  26
ATOM     23  C4  UNL     1      20.322   7.033  37.163  0.00  0.00    -0.045 A 
ATOM     24  C5  UNL     1      20.312   7.002  35.755  0.00  0.00    +0.004 A 
ATOM     25  C6  UNL     1      21.508   6.897  35.040  0.00  0.00    +0.004 A 
ATOM     26  C7  UNL     1      22.733   6.814  35.716  0.00  0.00    -0.046 A 
ATOM     27  C22 UNL     1      22.748   6.856  37.119  0.00  0.00    +0.004 A 
ATOM     28  C23 UNL     1      21.554   6.961  37.835  0.00  0.00    +0.004 A 
BRANCH  23  30
ATOM     29  C1  UNL     1      18.285   8.442  37.593  0.00  0.00    +0.012 C 
ATOM     30  C2  UNL     1      19.032   7.153  37.952  0.00  0.00    +0.013 C 
ATOM     31  C3  UNL     1      18.140   5.923  37.751  0.00  0.00    +0.012 C 
ENDBRANCH  23  30
ENDBRANCH  22  26
ENDBRANCH  21  22
ENDBRANCH   1  21
TORSDOF 5
ENDMDL
MODEL 8
REMARK VINA RESULT:    -7.102      5.407      8.779
REMARK INTER + INTRA:         -10.090
REMARK INTER:                  -9.131
REMARK INTRA:                  -0.959
REMARK UNBOUND:                -0.912
REMARK  Name = /home/qwerty/github/datacon2025hack/step_04_hit_selection/docking/ligands/lig_376.pdb
REMARK  7 active torsions:
REMARK  status: ('A' for Active; 'I' for Inactive)
REMARK    1  A    between atoms: C1_1  and  C2_2
REMARK    2  A    between atoms: C2_2  and  C3_3
REMARK    3  A    between atoms: C2_2  and  C4_4
REMARK    4  A    between atoms: C7_7  and  C8_8
REMARK    5  A    between atoms: C8_8  and  C9_9
REMARK    6  A    between atoms: C9_9  and  N1_10
REMARK    7  A    between atoms: N2_13  and  C11_14
REMARK                            x       y       z     vdW  Elec       q    Type
REMARK                         _______ _______ _______ _____ _____    ______ ____
ROOT
ATOM      1  N1  UNL     1       9.399   2.738  22.186  0.00  0.00    -0.299 N 
ATOM      2  C10 UNL     1      10.691   3.276  21.876  0.00  0.00    +0.304 C 
ATOM      3  O1  UNL     1      11.231   4.113  22.649  0.00  0.00    -0.253 OA
ATOM      4  N2  UNL     1      11.346   2.887  20.662  0.00  0.00    -0.269 N 
ATOM      5  H14 UNL     1       9.008   1.984  21.577  0.00  0.00    +0.150 HD
ATOM      6  H15 UNL     1      10.770   2.447  19.911  0.00  0.00    +0.156 HD
ENDROOT
BRANCH   4   7
ATOM      7  C11 UNL     1      12.683   3.289  20.341  0.00  0.00    +0.040 A 
ATOM      8  C12 UNL     1      12.900   4.346  19.439  0.00  0.00    +0.024 A 
ATOM      9  C13 UNL     1      14.208   4.726  19.084  0.00  0.00    +0.002 A 
ATOM     10  C14 UNL     1      15.311   4.039  19.610  0.00  0.00    +0.005 A 
ATOM     11  C15 UNL     1      15.082   2.980  20.489  0.00  0.00    -0.024 A 
ATOM     12  C16 UNL     1      13.804   2.612  20.853  0.00  0.00    -0.004 A 
ATOM     13  C17 UNL     1      13.842   1.399  21.713  0.00  0.00    +0.144 C 
ATOM     14  N3  UNL     1      15.272   1.111  21.819  0.00  0.00    -0.301 N 
ATOM     15  C18 UNL     1      15.815   0.013  22.562  0.00  0.00    +0.161 A 
ATOM     16  N4  UNL     1      17.138  -0.239  22.650  0.00  0.00    -0.233 NA
ATOM     17  C19 UNL     1      17.390  -1.337  23.411  0.00  0.00    +0.120 A 
ATOM     18  C20 UNL     1      16.264  -1.966  23.932  0.00  0.00    +0.068 A 
ATOM     19  S1  UNL     1      14.906  -1.114  23.421  0.00  0.00    -0.061 S 
ATOM     20  C21 UNL     1      16.091   2.072  21.086  0.00  0.00    +0.142 C 
ENDBRANCH   4   7
BRANCH   1  21
ATOM     21  C9  UNL     1       8.616   3.175  23.341  0.00  0.00    +0.110 C 
BRANCH  21  22
ATOM     22  C8  UNL     1       7.461   4.093  22.917  0.00  0.00    +0.054 C 
BRANCH  22  26
ATOM     23  C4  UNL     1       8.790   8.106  21.991  0.00  0.00    -0.045 A 
ATOM     24  C5  UNL     1       9.046   7.540  23.256  0.00  0.00    +0.004 A 
ATOM     25  C6  UNL     1       8.626   6.240  23.548  0.00  0.00    +0.004 A 
ATOM     26  C7  UNL     1       7.951   5.479  22.584  0.00  0.00    -0.046 A 
ATOM     27  C22 UNL     1       7.684   6.042  21.327  0.00  0.00    +0.004 A 
ATOM     28  C23 UNL     1       8.103   7.342  21.032  0.00  0.00    +0.004 A 
BRANCH  23  30
ATOM     29  C1  UNL     1       8.027  10.449  21.493  0.00  0.00    +0.012 C 
ATOM     30  C2  UNL     1       9.233   9.519  21.661  0.00  0.00    +0.013 C 
ATOM     31  C3  UNL     1      10.204  10.057  22.718  0.00  0.00    +0.012 C 
ENDBRANCH  23  30
ENDBRANCH  22  26
ENDBRANCH  21  22
ENDBRANCH   1  21
TORSDOF 5
ENDMDL
MODEL 9
REMARK VINA RESULT:    -7.042     11.739     14.811
REMARK INTER + INTRA:         -10.013
REMARK INTER:                  -8.995
REMARK INTRA:                  -1.017
REMARK UNBOUND:                -0.912
REMARK  Name = /home/qwerty/github/datacon2025hack/step_04_hit_selection/docking/ligands/lig_376.pdb
REMARK  7 active torsions:
REMARK  status: ('A' for Active; 'I' for Inactive)
REMARK    1  A    between atoms: C1_1  and  C2_2
REMARK    2  A    between atoms: C2_2  and  C3_3
REMARK    3  A    between atoms: C2_2  and  C4_4
REMARK    4  A    between atoms: C7_7  and  C8_8
REMARK    5  A    between atoms: C8_8  and  C9_9
REMARK    6  A    between atoms: C9_9  and  N1_10
REMARK    7  A    between atoms: N2_13  and  C11_14
REMARK                            x       y       z     vdW  Elec       q    Type
REMARK                         _______ _______ _______ _____ _____    ______ ____
ROOT
ATOM      1  N1  UNL     1      18.596  -1.255  24.794  0.00  0.00    -0.299 N 
ATOM      2  C10 UNL     1      19.025  -0.051  25.443  0.00  0.00    +0.304 C 
ATOM      3  O1  UNL     1      18.174   0.770  25.883  0.00  0.00    -0.253 OA
ATOM      4  N2  UNL     1      20.425   0.233  25.553  0.00  0.00    -0.269 N 
ATOM      5  H14 UNL     1      19.315  -1.960  24.514  0.00  0.00    +0.150 HD
ATOM      6  H15 UNL     1      21.084  -0.289  24.933  0.00  0.00    +0.156 HD
ENDROOT
BRANCH   4   7
ATOM      7  C11 UNL     1      20.932   1.353  26.289  0.00  0.00    +0.040 A 
ATOM      8  C12 UNL     1      21.130   1.249  27.678  0.00  0.00    +0.024 A 
ATOM      9  C13 UNL     1      21.590   2.352  28.419  0.00  0.00    +0.002 A 
ATOM     10  C14 UNL     1      21.834   3.578  27.784  0.00  0.00    +0.005 A 
ATOM     11  C15 UNL     1      21.616   3.674  26.410  0.00  0.00    -0.024 A 
ATOM     12  C16 UNL     1      21.180   2.592  25.674  0.00  0.00    -0.004 A 
ATOM     13  C17 UNL     1      20.933   2.994  24.262  0.00  0.00    +0.144 C 
ATOM     14  N3  UNL     1      21.282   4.414  24.255  0.00  0.00    -0.301 N 
ATOM     15  C18 UNL     1      21.204   5.252  23.096  0.00  0.00    +0.161 A 
ATOM     16  N4  UNL     1      21.530   6.562  23.105  0.00  0.00    -0.233 NA
ATOM     17  C19 UNL     1      21.367   7.128  21.879  0.00  0.00    +0.120 A 
ATOM     18  C20 UNL     1      20.908   6.268  20.888  0.00  0.00    +0.068 A 
ATOM     19  S1  UNL     1      20.701   4.744  21.571  0.00  0.00    -0.061 S 
ATOM     20  C21 UNL     1      21.726   4.887  25.564  0.00  0.00    +0.142 C 
ENDBRANCH   4   7
BRANCH   1  21
ATOM     21  C9  UNL     1      17.188  -1.557  24.536  0.00  0.00    +0.110 C 
BRANCH  21  22
ATOM     22  C8  UNL     1      16.956  -1.914  23.062  0.00  0.00    +0.054 C 
BRANCH  22  26
ATOM     23  C4  UNL     1      16.127   1.601  20.679  0.00  0.00    -0.045 A 
ATOM     24  C5  UNL     1      16.205   1.690  22.083  0.00  0.00    +0.004 A 
ATOM     25  C6  UNL     1      16.485   0.556  22.849  0.00  0.00    +0.004 A 
ATOM     26  C7  UNL     1      16.697  -0.684  22.230  0.00  0.00    -0.046 A 
ATOM     27  C22 UNL     1      16.609  -0.779  20.833  0.00  0.00    +0.004 A 
ATOM     28  C23 UNL     1      16.329   0.354  20.065  0.00  0.00    +0.004 A 
BRANCH  23  30
ATOM     29  C1  UNL     1      14.329   3.183  19.911  0.00  0.00    +0.012 C 
ATOM     30  C2  UNL     1      15.817   2.823  19.834  0.00  0.00    +0.013 C 
ATOM     31  C3  UNL     1      16.696   4.013  20.235  0.00  0.00    +0.012 C 
ENDBRANCH  23  30
ENDBRANCH  22  26
ENDBRANCH  21  22
ENDBRANCH   1  21
TORSDOF 5
ENDMDL
