MODEL 1
REMARK VINA RESULT:    -6.047      0.000      0.000
REMARK INTER + INTRA:          -7.749
REMARK INTER:                  -7.107
REMARK INTRA:                  -0.641
REMARK UNBOUND:                -0.641
REMARK  Name = /home/qwerty/github/datacon2025hack/step_04_hit_selection/docking/ligands/lig_137.pdb
REMARK  4 active torsions:
REMARK  status: ('A' for Active; 'I' for Inactive)
REMARK    1  A    between atoms: C1_1  and  N1_2
REMARK    2  A    between atoms: C3_4  and  C4_5
REMARK    3  A    between atoms: N5_16  and  C10_17
REMARK    4  A    between atoms: C10_17  and  C11_18
REMARK                            x       y       z     vdW  Elec       q    Type
REMARK                         _______ _______ _______ _____ _____    ______ ____
ROOT
ATOM      1  C4  UNL     1      21.396   4.100  32.371  0.00  0.00    +0.168 A 
ATOM      2  N2  UNL     1      20.284   3.807  33.075  0.00  0.00    -0.127 NA
ATOM      3  N3  UNL     1      20.296   4.562  34.162  0.00  0.00    -0.113 NA
ATOM      4  C5  UNL     1      21.428   5.289  34.117  0.00  0.00    +0.220 A 
ATOM      5  N4  UNL     1      21.770   6.257  35.122  0.00  0.00    -0.294 N 
ATOM      6  C6  UNL     1      23.009   6.222  35.882  0.00  0.00    +0.114 C 
ATOM      7  C7  UNL     1      22.742   7.033  37.144  0.00  0.00    +0.096 C 
ATOM      8  C8  UNL     1      21.493   7.858  36.844  0.00  0.00    +0.266 C 
ATOM      9  F1  UNL     1      20.699   7.987  37.972  0.00  0.00    -0.204 F 
ATOM     10  F2  UNL     1      21.857   9.114  36.389  0.00  0.00    -0.204 F 
ATOM     11  C9  UNL     1      20.762   7.097  35.744  0.00  0.00    +0.183 C 
ATOM     12  N5  UNL     1      22.147   5.035  33.001  0.00  0.00    -0.295 N 
ENDROOT
BRANCH   1  16
ATOM     13  C1  UNL     1      21.598   2.983  27.500  0.00  0.00    +0.172 C 
ATOM     14  N1  UNL     1      21.796   2.948  28.942  0.00  0.00    -0.274 N 
ATOM     15  C2  UNL     1      21.410   3.901  29.812  0.00  0.00    +0.119 A 
ATOM     16  C3  UNL     1      21.702   3.455  31.084  0.00  0.00    +0.057 A 
ATOM     17  C16 UNL     1      22.228   2.189  30.912  0.00  0.00    +0.146 A 
ATOM     18  N6  UNL     1      22.277   1.902  29.596  0.00  0.00    -0.179 NA
ENDBRANCH   1  16
BRANCH  12  19
ATOM     19  C10 UNL     1      23.455   5.584  32.623  0.00  0.00    +0.130 C 
BRANCH  19  20
ATOM     20  C11 UNL     1      23.399   7.119  32.495  0.00  0.00    +0.012 C 
ATOM     21  C12 UNL     1      24.699   7.813  32.879  0.00  0.00    +0.008 C 
ATOM     22  C13 UNL     1      24.670   9.150  32.152  0.00  0.00    +0.037 C 
ATOM     23  C14 UNL     1      23.725   8.976  30.961  0.00  0.00    +0.166 C 
ATOM     24  F3  UNL     1      22.710   9.919  31.016  0.00  0.00    -0.245 F 
ATOM     25  C15 UNL     1      23.140   7.570  31.063  0.00  0.00    +0.042 C 
ENDBRANCH  19  20
ENDBRANCH  12  19
TORSDOF 3
ENDMDL
MODEL 2
REMARK VINA RESULT:    -6.017     10.788     12.631
REMARK INTER + INTRA:          -7.713
REMARK INTER:                  -7.087
REMARK INTRA:                  -0.627
REMARK UNBOUND:                -0.641
REMARK  Name = /home/qwerty/github/datacon2025hack/step_04_hit_selection/docking/ligands/lig_137.pdb
REMARK  4 active torsions:
REMARK  status: ('A' for Active; 'I' for Inactive)
REMARK    1  A    between atoms: C1_1  and  N1_2
REMARK    2  A    between atoms: C3_4  and  C4_5
REMARK    3  A    between atoms: N5_16  and  C10_17
REMARK    4  A    between atoms: C10_17  and  C11_18
REMARK                            x       y       z     vdW  Elec       q    Type
REMARK                         _______ _______ _______ _____ _____    ______ ____
ROOT
ATOM      1  C4  UNL     1      12.464  12.792  31.904  0.00  0.00    +0.168 A 
ATOM      2  N2  UNL     1      13.685  12.482  31.423  0.00  0.00    -0.127 NA
ATOM      3  N3  UNL     1      14.545  12.620  32.419  0.00  0.00    -0.113 NA
ATOM      4  C5  UNL     1      13.840  13.032  33.489  0.00  0.00    +0.220 A 
ATOM      5  N4  UNL     1      14.438  13.257  34.775  0.00  0.00    -0.294 N 
ATOM      6  C6  UNL     1      14.357  14.520  35.490  0.00  0.00    +0.114 C 
ATOM      7  C7  UNL     1      15.519  14.512  36.475  0.00  0.00    +0.096 C 
ATOM      8  C8  UNL     1      15.958  13.054  36.579  0.00  0.00    +0.266 C 
ATOM      9  F1  UNL     1      17.333  12.957  36.724  0.00  0.00    -0.204 F 
ATOM     10  F2  UNL     1      15.336  12.451  37.659  0.00  0.00    -0.204 F 
ATOM     11  C9  UNL     1      15.496  12.401  35.282  0.00  0.00    +0.183 C 
ATOM     12  N5  UNL     1      12.522  13.146  33.210  0.00  0.00    -0.295 N 
ENDROOT
BRANCH   1  16
ATOM     13  C1  UNL     1       8.596  11.157  29.187  0.00  0.00    +0.172 C 
ATOM     14  N1  UNL     1       9.548  12.024  29.865  0.00  0.00    -0.274 N 
ATOM     15  C2  UNL     1      10.516  11.620  30.710  0.00  0.00    +0.119 A 
ATOM     16  C3  UNL     1      11.254  12.729  31.068  0.00  0.00    +0.057 A 
ATOM     17  C16 UNL     1      10.698  13.778  30.360  0.00  0.00    +0.146 A 
ATOM     18  N6  UNL     1       9.657  13.324  29.634  0.00  0.00    -0.179 NA
ENDBRANCH   1  16
BRANCH  12  19
ATOM     19  C10 UNL     1      11.448  13.618  34.093  0.00  0.00    +0.130 C 
BRANCH  19  20
ATOM     20  C11 UNL     1      10.925  12.479  34.991  0.00  0.00    +0.012 C 
ATOM     21  C12 UNL     1      11.309  11.089  34.503  0.00  0.00    +0.008 C 
ATOM     22  C13 UNL     1      11.257  10.202  35.739  0.00  0.00    +0.037 C 
ATOM     23  C14 UNL     1      11.433  11.126  36.945  0.00  0.00    +0.166 C 
ATOM     24  F3  UNL     1      10.361  10.989  37.812  0.00  0.00    -0.245 F 
ATOM     25  C15 UNL     1      11.490  12.552  36.404  0.00  0.00    +0.042 C 
ENDBRANCH  19  20
ENDBRANCH  12  19
TORSDOF 3
ENDMDL
MODEL 3
REMARK VINA RESULT:    -5.878     15.232     16.393
REMARK INTER + INTRA:          -7.550
REMARK INTER:                  -6.748
REMARK INTRA:                  -0.803
REMARK UNBOUND:                -0.641
REMARK  Name = /home/qwerty/github/datacon2025hack/step_04_hit_selection/docking/ligands/lig_137.pdb
REMARK  4 active torsions:
REMARK  status: ('A' for Active; 'I' for Inactive)
REMARK    1  A    between atoms: C1_1  and  N1_2
REMARK    2  A    between atoms: C3_4  and  C4_5
REMARK    3  A    between atoms: N5_16  and  C10_17
REMARK    4  A    between atoms: C10_17  and  C11_18
REMARK                            x       y       z     vdW  Elec       q    Type
REMARK                         _______ _______ _______ _____ _____    ______ ____
ROOT
ATOM      1  C4  UNL     1       8.350   8.708  23.769  0.00  0.00    +0.168 A 
ATOM      2  N2  UNL     1       7.653   9.851  23.603  0.00  0.00    -0.127 NA
ATOM      3  N3  UNL     1       7.449  10.364  24.805  0.00  0.00    -0.113 NA
ATOM      4  C5  UNL     1       8.005   9.517  25.690  0.00  0.00    +0.220 A 
ATOM      5  N4  UNL     1       8.012   9.763  27.105  0.00  0.00    -0.294 N 
ATOM      6  C6  UNL     1       7.461   8.840  28.085  0.00  0.00    +0.114 C 
ATOM      7  C7  UNL     1       7.177   9.676  29.326  0.00  0.00    +0.096 C 
ATOM      8  C8  UNL     1       7.981  10.961  29.147  0.00  0.00    +0.266 C 
ATOM      9  F1  UNL     1       7.296  12.052  29.657  0.00  0.00    -0.204 F 
ATOM     10  F2  UNL     1       9.204  10.844  29.786  0.00  0.00    -0.204 F 
ATOM     11  C9  UNL     1       8.190  11.100  27.644  0.00  0.00    +0.183 C 
ATOM     12  N5  UNL     1       8.591   8.462  25.079  0.00  0.00    -0.295 N 
ENDROOT
BRANCH   1  16
ATOM     13  C1  UNL     1      11.086   6.389  20.283  0.00  0.00    +0.172 C 
ATOM     14  N1  UNL     1       9.964   6.851  21.087  0.00  0.00    -0.274 N 
ATOM     15  C2  UNL     1      10.053   7.565  22.225  0.00  0.00    +0.119 A 
ATOM     16  C3  UNL     1       8.772   7.875  22.631  0.00  0.00    +0.057 A 
ATOM     17  C16 UNL     1       7.946   7.349  21.656  0.00  0.00    +0.146 A 
ATOM     18  N6  UNL     1       8.696   6.727  20.725  0.00  0.00    -0.179 NA
ENDBRANCH   1  16
BRANCH  12  19
ATOM     19  C10 UNL     1       9.249   7.307  25.701  0.00  0.00    +0.130 C 
BRANCH  19  20
ATOM     20  C11 UNL     1       8.275   6.120  25.842  0.00  0.00    +0.012 C 
ATOM     21  C12 UNL     1       8.445   5.058  24.764  0.00  0.00    +0.008 C 
ATOM     22  C13 UNL     1       7.887   3.778  25.372  0.00  0.00    +0.037 C 
ATOM     23  C14 UNL     1       7.960   3.951  26.891  0.00  0.00    +0.166 C 
ATOM     24  F3  UNL     1       6.703   3.788  27.451  0.00  0.00    -0.245 F 
ATOM     25  C15 UNL     1       8.471   5.365  27.151  0.00  0.00    +0.042 C 
ENDBRANCH  19  20
ENDBRANCH  12  19
TORSDOF 3
ENDMDL
MODEL 4
REMARK VINA RESULT:    -5.842      3.899      7.911
REMARK INTER + INTRA:          -7.508
REMARK INTER:                  -6.591
REMARK INTRA:                  -0.917
REMARK UNBOUND:                -0.641
REMARK  Name = /home/qwerty/github/datacon2025hack/step_04_hit_selection/docking/ligands/lig_137.pdb
REMARK  4 active torsions:
REMARK  status: ('A' for Active; 'I' for Inactive)
REMARK    1  A    between atoms: C1_1  and  N1_2
REMARK    2  A    between atoms: C3_4  and  C4_5
REMARK    3  A    between atoms: N5_16  and  C10_17
REMARK    4  A    between atoms: C10_17  and  C11_18
REMARK                            x       y       z     vdW  Elec       q    Type
REMARK                         _______ _______ _______ _____ _____    ______ ____
ROOT
ATOM      1  C4  UNL     1      21.292   5.166  32.874  0.00  0.00    +0.168 A 
ATOM      2  N2  UNL     1      21.590   6.013  31.868  0.00  0.00    -0.127 NA
ATOM      3  N3  UNL     1      21.786   5.281  30.784  0.00  0.00    -0.113 NA
ATOM      4  C5  UNL     1      21.627   3.995  31.147  0.00  0.00    +0.220 A 
ATOM      5  N4  UNL     1      21.731   2.905  30.218  0.00  0.00    -0.294 N 
ATOM      6  C6  UNL     1      22.654   1.793  30.383  0.00  0.00    +0.114 C 
ATOM      7  C7  UNL     1      22.835   1.198  28.993  0.00  0.00    +0.096 C 
ATOM      8  C8  UNL     1      21.669   1.730  28.163  0.00  0.00    +0.266 C 
ATOM      9  F1  UNL     1      22.059   1.976  26.857  0.00  0.00    -0.204 F 
ATOM     10  F2  UNL     1      20.630   0.814  28.171  0.00  0.00    -0.204 F 
ATOM     11  C9  UNL     1      21.235   3.015  28.857  0.00  0.00    +0.183 C 
ATOM     12  N5  UNL     1      21.307   3.877  32.456  0.00  0.00    -0.295 N 
ENDROOT
BRANCH   1  16
ATOM     13  C1  UNL     1      18.915   6.541  37.055  0.00  0.00    +0.172 C 
ATOM     14  N1  UNL     1      19.959   6.252  36.082  0.00  0.00    -0.274 N 
ATOM     15  C2  UNL     1      19.779   5.648  34.892  0.00  0.00    +0.119 A 
ATOM     16  C3  UNL     1      20.992   5.639  34.235  0.00  0.00    +0.057 A 
ATOM     17  C16 UNL     1      21.864   6.304  35.077  0.00  0.00    +0.146 A 
ATOM     18  N6  UNL     1      21.211   6.667  36.198  0.00  0.00    -0.179 NA
ENDBRANCH   1  16
BRANCH  12  19
ATOM     19  C10 UNL     1      21.109   2.647  33.231  0.00  0.00    +0.130 C 
BRANCH  19  20
ATOM     20  C11 UNL     1      19.722   2.032  32.958  0.00  0.00    +0.012 C 
ATOM     21  C12 UNL     1      19.778   0.593  32.463  0.00  0.00    +0.008 C 
ATOM     22  C13 UNL     1      18.424  -0.006  32.820  0.00  0.00    +0.037 C 
ATOM     23  C14 UNL     1      17.869   0.832  33.975  0.00  0.00    +0.166 C 
ATOM     24  F3  UNL     1      16.628   1.348  33.636  0.00  0.00    -0.245 F 
ATOM     25  C15 UNL     1      18.861   1.967  34.213  0.00  0.00    +0.042 C 
ENDBRANCH  19  20
ENDBRANCH  12  19
TORSDOF 3
ENDMDL
MODEL 5
REMARK VINA RESULT:    -5.836     15.137     17.091
REMARK INTER + INTRA:          -7.501
REMARK INTER:                  -6.857
REMARK INTRA:                  -0.644
REMARK UNBOUND:                -0.641
REMARK  Name = /home/qwerty/github/datacon2025hack/step_04_hit_selection/docking/ligands/lig_137.pdb
REMARK  4 active torsions:
REMARK  status: ('A' for Active; 'I' for Inactive)
REMARK    1  A    between atoms: C1_1  and  N1_2
REMARK    2  A    between atoms: C3_4  and  C4_5
REMARK    3  A    between atoms: N5_16  and  C10_17
REMARK    4  A    between atoms: C10_17  and  C11_18
REMARK                            x       y       z     vdW  Elec       q    Type
REMARK                         _______ _______ _______ _____ _____    ______ ____
ROOT
ATOM      1  C4  UNL     1       9.525   8.979  25.441  0.00  0.00    +0.168 A 
ATOM      2  N2  UNL     1      10.015   7.851  25.994  0.00  0.00    -0.127 NA
ATOM      3  N3  UNL     1       9.982   6.911  25.063  0.00  0.00    -0.113 NA
ATOM      4  C5  UNL     1       9.451   7.472  23.961  0.00  0.00    +0.220 A 
ATOM      5  N4  UNL     1       9.289   6.758  22.726  0.00  0.00    -0.294 N 
ATOM      6  C6  UNL     1       8.012   6.609  22.045  0.00  0.00    +0.114 C 
ATOM      7  C7  UNL     1       8.166   5.393  21.141  0.00  0.00    +0.096 C 
ATOM      8  C8  UNL     1       9.670   5.157  21.024  0.00  0.00    +0.266 C 
ATOM      9  F1  UNL     1       9.959   3.803  20.970  0.00  0.00    -0.204 F 
ATOM     10  F2  UNL     1      10.156   5.779  19.886  0.00  0.00    -0.204 F 
ATOM     11  C9  UNL     1      10.276   5.798  22.266  0.00  0.00    +0.183 C 
ATOM     12  N5  UNL     1       9.156   8.778  24.153  0.00  0.00    -0.295 N 
ENDROOT
BRANCH   1  16
ATOM     13  C1  UNL     1      10.647  13.139  27.981  0.00  0.00    +0.172 C 
ATOM     14  N1  UNL     1       9.910  12.075  27.314  0.00  0.00    -0.274 N 
ATOM     15  C2  UNL     1      10.450  11.091  26.571  0.00  0.00    +0.119 A 
ATOM     16  C3  UNL     1       9.431  10.242  26.190  0.00  0.00    +0.057 A 
ATOM     17  C16 UNL     1       8.292  10.755  26.782  0.00  0.00    +0.146 A 
ATOM     18  N6  UNL     1       8.609  11.875  27.461  0.00  0.00    -0.179 NA
ENDBRANCH   1  16
BRANCH  12  19
ATOM     19  C10 UNL     1       8.519   9.709  23.214  0.00  0.00    +0.130 C 
BRANCH  19  20
ATOM     20  C11 UNL     1       9.562  10.375  22.295  0.00  0.00    +0.012 C 
ATOM     21  C12 UNL     1      10.996  10.214  22.780  0.00  0.00    +0.008 C 
ATOM     22  C13 UNL     1      11.859  10.369  21.536  0.00  0.00    +0.037 C 
ATOM     23  C14 UNL     1      10.965  10.030  20.341  0.00  0.00    +0.166 C 
ATOM     24  F3  UNL     1      10.937  11.091  19.450  0.00  0.00    -0.245 F 
ATOM     25  C15 UNL     1       9.566   9.774  20.895  0.00  0.00    +0.042 C 
ENDBRANCH  19  20
ENDBRANCH  12  19
TORSDOF 3
ENDMDL
MODEL 6
REMARK VINA RESULT:    -5.820      7.612     10.713
REMARK INTER + INTRA:          -7.482
REMARK INTER:                  -6.640
REMARK INTRA:                  -0.843
REMARK UNBOUND:                -0.641
REMARK  Name = /home/qwerty/github/datacon2025hack/step_04_hit_selection/docking/ligands/lig_137.pdb
REMARK  4 active torsions:
REMARK  status: ('A' for Active; 'I' for Inactive)
REMARK    1  A    between atoms: C1_1  and  N1_2
REMARK    2  A    between atoms: C3_4  and  C4_5
REMARK    3  A    between atoms: N5_16  and  C10_17
REMARK    4  A    between atoms: C10_17  and  C11_18
REMARK                            x       y       z     vdW  Elec       q    Type
REMARK                         _______ _______ _______ _____ _____    ______ ____
ROOT
ATOM      1  C4  UNL     1      17.877   0.834  24.049  0.00  0.00    +0.168 A 
ATOM      2  N2  UNL     1      18.460  -0.323  24.420  0.00  0.00    -0.127 NA
ATOM      3  N3  UNL     1      19.551  -0.013  25.101  0.00  0.00    -0.113 NA
ATOM      4  C5  UNL     1      19.630   1.331  25.118  0.00  0.00    +0.220 A 
ATOM      5  N4  UNL     1      20.676   2.040  25.802  0.00  0.00    -0.294 N 
ATOM      6  C6  UNL     1      21.558   2.995  25.152  0.00  0.00    +0.114 C 
ATOM      7  C7  UNL     1      22.794   3.083  26.036  0.00  0.00    +0.096 C 
ATOM      8  C8  UNL     1      22.379   2.496  27.382  0.00  0.00    +0.266 C 
ATOM      9  F1  UNL     1      23.421   1.791  27.962  0.00  0.00    -0.204 F 
ATOM     10  F2  UNL     1      21.977   3.510  28.235  0.00  0.00    -0.204 F 
ATOM     11  C9  UNL     1      21.201   1.578  27.075  0.00  0.00    +0.183 C 
ATOM     12  N5  UNL     1      18.590   1.905  24.472  0.00  0.00    -0.295 N 
ENDROOT
BRANCH   1  16
ATOM     13  C1  UNL     1      14.531   1.017  20.335  0.00  0.00    +0.172 C 
ATOM     14  N1  UNL     1      15.135   0.953  21.658  0.00  0.00    -0.274 N 
ATOM     15  C2  UNL     1      16.446   0.789  21.917  0.00  0.00    +0.119 A 
ATOM     16  C3  UNL     1      16.620   0.869  23.283  0.00  0.00    +0.057 A 
ATOM     17  C16 UNL     1      15.363   1.131  23.794  0.00  0.00    +0.146 A 
ATOM     18  N6  UNL     1      14.473   1.177  22.783  0.00  0.00    -0.179 NA
ENDBRANCH   1  16
BRANCH  12  19
ATOM     19  C10 UNL     1      18.354   3.333  24.230  0.00  0.00    +0.130 C 
BRANCH  19  20
ATOM     20  C11 UNL     1      18.756   3.729  22.795  0.00  0.00    +0.012 C 
ATOM     21  C12 UNL     1      17.603   4.275  21.965  0.00  0.00    +0.008 C 
ATOM     22  C13 UNL     1      18.254   5.130  20.887  0.00  0.00    +0.037 C 
ATOM     23  C14 UNL     1      19.626   5.541  21.428  0.00  0.00    +0.166 C 
ATOM     24  F3  UNL     1      20.623   5.140  20.554  0.00  0.00    -0.245 F 
ATOM     25  C15 UNL     1      19.796   4.843  22.774  0.00  0.00    +0.042 C 
ENDBRANCH  19  20
ENDBRANCH  12  19
TORSDOF 3
ENDMDL
MODEL 7
REMARK VINA RESULT:    -5.816      5.282      8.330
REMARK INTER + INTRA:          -7.478
REMARK INTER:                  -6.563
REMARK INTRA:                  -0.915
REMARK UNBOUND:                -0.641
REMARK  Name = /home/qwerty/github/datacon2025hack/step_04_hit_selection/docking/ligands/lig_137.pdb
REMARK  4 active torsions:
REMARK  status: ('A' for Active; 'I' for Inactive)
REMARK    1  A    between atoms: C1_1  and  N1_2
REMARK    2  A    between atoms: C3_4  and  C4_5
REMARK    3  A    between atoms: N5_16  and  C10_17
REMARK    4  A    between atoms: C10_17  and  C11_18
REMARK                            x       y       z     vdW  Elec       q    Type
REMARK                         _______ _______ _______ _____ _____    ______ ____
ROOT
ATOM      1  C4  UNL     1      20.120  10.525  35.510  0.00  0.00    +0.168 A 
ATOM      2  N2  UNL     1      20.458  11.815  35.711  0.00  0.00    -0.127 NA
ATOM      3  N3  UNL     1      19.336  12.492  35.889  0.00  0.00    -0.113 NA
ATOM      4  C5  UNL     1      18.326  11.610  35.772  0.00  0.00    +0.220 A 
ATOM      5  N4  UNL     1      16.948  11.979  35.941  0.00  0.00    -0.294 N 
ATOM      6  C6  UNL     1      15.927  11.758  34.928  0.00  0.00    +0.114 C 
ATOM      7  C7  UNL     1      14.806  12.737  35.253  0.00  0.00    +0.096 C 
ATOM      8  C8  UNL     1      15.049  13.175  36.695  0.00  0.00    +0.266 C 
ATOM      9  F1  UNL     1      14.711  14.507  36.874  0.00  0.00    -0.204 F 
ATOM     10  F2  UNL     1      14.304  12.389  37.557  0.00  0.00    -0.204 F 
ATOM     11  C9  UNL     1      16.536  12.949  36.939  0.00  0.00    +0.183 C 
ATOM     12  N5  UNL     1      18.776  10.356  35.541  0.00  0.00    -0.295 N 
ENDROOT
BRANCH   1  16
ATOM     13  C1  UNL     1      23.456   6.867  36.218  0.00  0.00    +0.172 C 
ATOM     14  N1  UNL     1      22.603   7.866  35.590  0.00  0.00    -0.274 N 
ATOM     15  C2  UNL     1      21.645   8.582  36.209  0.00  0.00    +0.119 A 
ATOM     16  C3  UNL     1      21.127   9.475  35.293  0.00  0.00    +0.057 A 
ATOM     17  C16 UNL     1      21.859   9.273  34.138  0.00  0.00    +0.146 A 
ATOM     18  N6  UNL     1      22.752   8.285  34.343  0.00  0.00    -0.179 NA
ENDBRANCH   1  16
BRANCH  12  19
ATOM     19  C10 UNL     1      17.987   9.142  35.303  0.00  0.00    +0.130 C 
BRANCH  19  20
ATOM     20  C11 UNL     1      17.802   8.333  36.602  0.00  0.00    +0.012 C 
ATOM     21  C12 UNL     1      16.349   8.204  37.041  0.00  0.00    +0.008 C 
ATOM     22  C13 UNL     1      16.303   6.955  37.910  0.00  0.00    +0.037 C 
ATOM     23  C14 UNL     1      17.499   6.094  37.497  0.00  0.00    +0.166 C 
ATOM     24  F3  UNL     1      18.298   5.830  38.598  0.00  0.00    -0.245 F 
ATOM     25  C15 UNL     1      18.282   6.895  36.461  0.00  0.00    +0.042 C 
ENDBRANCH  19  20
ENDBRANCH  12  19
TORSDOF 3
ENDMDL
MODEL 8
REMARK VINA RESULT:    -5.815      6.041      8.728
REMARK INTER + INTRA:          -7.476
REMARK INTER:                  -6.594
REMARK INTRA:                  -0.883
REMARK UNBOUND:                -0.641
REMARK  Name = /home/qwerty/github/datacon2025hack/step_04_hit_selection/docking/ligands/lig_137.pdb
REMARK  4 active torsions:
REMARK  status: ('A' for Active; 'I' for Inactive)
REMARK    1  A    between atoms: C1_1  and  N1_2
REMARK    2  A    between atoms: C3_4  and  C4_5
REMARK    3  A    between atoms: N5_16  and  C10_17
REMARK    4  A    between atoms: C10_17  and  C11_18
REMARK                            x       y       z     vdW  Elec       q    Type
REMARK                         _______ _______ _______ _____ _____    ______ ____
ROOT
ATOM      1  C4  UNL     1      16.915  10.495  37.291  0.00  0.00    +0.168 A 
ATOM      2  N2  UNL     1      17.292   9.947  38.464  0.00  0.00    -0.127 NA
ATOM      3  N3  UNL     1      18.379   9.229  38.232  0.00  0.00    -0.113 NA
ATOM      4  C5  UNL     1      18.638   9.331  36.915  0.00  0.00    +0.220 A 
ATOM      5  N4  UNL     1      19.773   8.706  36.295  0.00  0.00    -0.294 N 
ATOM      6  C6  UNL     1      19.670   7.775  35.183  0.00  0.00    +0.114 C 
ATOM      7  C7  UNL     1      20.962   6.968  35.199  0.00  0.00    +0.096 C 
ATOM      8  C8  UNL     1      21.935   7.770  36.060  0.00  0.00    +0.266 C 
ATOM      9  F1  UNL     1      22.749   6.931  36.805  0.00  0.00    -0.204 F 
ATOM     10  F2  UNL     1      22.719   8.580  35.255  0.00  0.00    -0.204 F 
ATOM     11  C9  UNL     1      21.059   8.628  36.965  0.00  0.00    +0.183 C 
ATOM     12  N5  UNL     1      17.744  10.126  36.285  0.00  0.00    -0.295 N 
ENDROOT
BRANCH   1  16
ATOM     13  C1  UNL     1      12.320  12.275  36.436  0.00  0.00    +0.172 C 
ATOM     14  N1  UNL     1      13.726  12.178  36.803  0.00  0.00    -0.274 N 
ATOM     15  C2  UNL     1      14.438  11.039  36.891  0.00  0.00    +0.119 A 
ATOM     16  C3  UNL     1      15.744  11.379  37.179  0.00  0.00    +0.057 A 
ATOM     17  C16 UNL     1      15.760  12.761  37.207  0.00  0.00    +0.146 A 
ATOM     18  N6  UNL     1      14.517  13.225  36.976  0.00  0.00    -0.179 NA
ENDBRANCH   1  16
BRANCH  12  19
ATOM     19  C10 UNL     1      17.660  10.435  34.853  0.00  0.00    +0.130 C 
BRANCH  19  20
ATOM     20  C11 UNL     1      18.259  11.822  34.545  0.00  0.00    +0.012 C 
ATOM     21  C12 UNL     1      19.472  11.774  33.626  0.00  0.00    +0.008 C 
ATOM     22  C13 UNL     1      19.538  13.151  32.979  0.00  0.00    +0.037 C 
ATOM     23  C14 UNL     1      18.125  13.733  33.049  0.00  0.00    +0.166 C 
ATOM     24  F3  UNL     1      18.143  14.951  33.711  0.00  0.00    -0.245 F 
ATOM     25  C15 UNL     1      17.272  12.730  33.822  0.00  0.00    +0.042 C 
ENDBRANCH  19  20
ENDBRANCH  12  19
TORSDOF 3
ENDMDL
MODEL 9
REMARK VINA RESULT:    -5.803      2.939      5.084
REMARK INTER + INTRA:          -7.462
REMARK INTER:                  -6.672
REMARK INTRA:                  -0.790
REMARK UNBOUND:                -0.641
REMARK  Name = /home/qwerty/github/datacon2025hack/step_04_hit_selection/docking/ligands/lig_137.pdb
REMARK  4 active torsions:
REMARK  status: ('A' for Active; 'I' for Inactive)
REMARK    1  A    between atoms: C1_1  and  N1_2
REMARK    2  A    between atoms: C3_4  and  C4_5
REMARK    3  A    between atoms: N5_16  and  C10_17
REMARK    4  A    between atoms: C10_17  and  C11_18
REMARK                            x       y       z     vdW  Elec       q    Type
REMARK                         _______ _______ _______ _____ _____    ______ ____
ROOT
ATOM      1  C4  UNL     1      21.533   3.667  31.114  0.00  0.00    +0.168 A 
ATOM      2  N2  UNL     1      21.752   4.898  30.611  0.00  0.00    -0.127 NA
ATOM      3  N3  UNL     1      21.757   5.743  31.629  0.00  0.00    -0.113 NA
ATOM      4  C5  UNL     1      21.519   5.019  32.738  0.00  0.00    +0.220 A 
ATOM      5  N4  UNL     1      21.484   5.597  34.053  0.00  0.00    -0.294 N 
ATOM      6  C6  UNL     1      20.344   5.489  34.948  0.00  0.00    +0.114 C 
ATOM      7  C7  UNL     1      20.487   6.638  35.938  0.00  0.00    +0.096 C 
ATOM      8  C8  UNL     1      21.939   7.095  35.828  0.00  0.00    +0.266 C 
ATOM      9  F1  UNL     1      22.042   8.469  35.977  0.00  0.00    -0.204 F 
ATOM     10  F2  UNL     1      22.705   6.467  36.796  0.00  0.00    -0.204 F 
ATOM     11  C9  UNL     1      22.394   6.659  34.441  0.00  0.00    +0.183 C 
ATOM     12  N5  UNL     1      21.379   3.703  32.460  0.00  0.00    -0.295 N 
ENDROOT
BRANCH   1  16
ATOM     13  C1  UNL     1      22.667  -0.621  28.801  0.00  0.00    +0.172 C 
ATOM     14  N1  UNL     1      21.970   0.583  29.232  0.00  0.00    -0.274 N 
ATOM     15  C2  UNL     1      22.359   1.404  30.225  0.00  0.00    +0.119 A 
ATOM     16  C3  UNL     1      21.482   2.468  30.261  0.00  0.00    +0.057 A 
ATOM     17  C16 UNL     1      20.602   2.248  29.218  0.00  0.00    +0.146 A 
ATOM     18  N6  UNL     1      20.919   1.090  28.606  0.00  0.00    -0.179 NA
ENDBRANCH   1  16
BRANCH  12  19
ATOM     19  C10 UNL     1      21.058   2.611  33.387  0.00  0.00    +0.130 C 
BRANCH  19  20
ATOM     20  C11 UNL     1      19.623   2.092  33.163  0.00  0.00    +0.012 C 
ATOM     21  C12 UNL     1      19.565   0.662  32.642  0.00  0.00    +0.008 C 
ATOM     22  C13 UNL     1      18.192   0.145  33.047  0.00  0.00    +0.037 C 
ATOM     23  C14 UNL     1      17.741   0.994  34.238  0.00  0.00    +0.166 C 
ATOM     24  F3  UNL     1      16.523   1.595  33.962  0.00  0.00    -0.245 F 
ATOM     25  C15 UNL     1      18.814   2.058  34.453  0.00  0.00    +0.042 C 
ENDBRANCH  19  20
ENDBRANCH  12  19
TORSDOF 3
ENDMDL
