REMARK  Name = /home/qwerty/github/datacon2025hack/step_04_hit_selection/docking/ligands/lig_350.pdb
REMARK  2 active torsions:
REMARK  status: ('A' for Active; 'I' for Inactive)
REMARK    1  A    between atoms: C1_2  and  C2_3
REMARK    2  A    between atoms: N4_18  and  C13_19
REMARK                            x       y       z     vdW  Elec       q    Type
REMARK                         _______ _______ _______ _____ _____    ______ ____
ROOT
ATOM      1  O1  UNL     1       1.753   2.383   1.488  0.00  0.00    -0.268 OA
ATOM      2  C1  UNL     1       1.823   1.226   0.996  0.00  0.00    +0.263 C 
ATOM      3  N3  UNL     1       0.608   0.508   0.761  0.00  0.00    -0.293 N 
ATOM      4  C9  UNL     1       0.147  -0.803   0.247  0.00  0.00    +0.132 C 
ATOM      5  C10 UNL     1      -1.306  -0.537   0.460  0.00  0.00    +0.055 C 
ATOM      6  C11 UNL     1      -2.089  -1.506   1.318  0.00  0.00    +0.041 C 
ATOM      7  C12 UNL     1      -2.913  -1.706   0.042  0.00  0.00    +0.087 C 
ATOM      8  N4  UNL     1      -2.144  -0.706  -0.734  0.00  0.00    -0.291 NA
ATOM      9  C18 UNL     1      -0.831   0.794   0.956  0.00  0.00    +0.132 C 
ENDROOT
BRANCH   2  10
ATOM     10  C2  UNL     1       3.153   0.658   0.687  0.00  0.00    +0.104 A 
ATOM     11  C3  UNL     1       4.361   1.315   0.938  0.00  0.00    +0.042 A 
ATOM     12  C4  UNL     1       5.338   0.448   0.504  0.00  0.00    +0.021 A 
ATOM     13  C5  UNL     1       6.724   0.551   0.494  0.00  0.00    +0.033 A 
ATOM     14  C6  UNL     1       7.449  -0.534  -0.032  0.00  0.00    +0.060 A 
ATOM     15 CL1  UNL     1       9.201  -0.481  -0.079  0.00  0.00    -0.082 Cl
ATOM     16  C7  UNL     1       6.758  -1.667  -0.523  0.00  0.00    +0.133 A 
ATOM     17  N1  UNL     1       5.392  -1.716  -0.490  0.00  0.00    -0.236 NA
ATOM     18  C8  UNL     1       4.708  -0.661   0.021  0.00  0.00    +0.139 A 
ATOM     19  N2  UNL     1       3.375  -0.557   0.122  0.00  0.00    -0.335 N 
ATOM     20  H4  UNL     1       2.683  -1.273  -0.183  0.00  0.00    +0.167 HD
ENDBRANCH   2  10
BRANCH   8  21
ATOM     21  C13 UNL     1      -2.936   0.476  -1.181  0.00  0.00    +0.057 C 
ATOM     22  C14 UNL     1      -3.898   0.080  -2.310  0.00  0.00    +0.019 C 
ATOM     23  C15 UNL     1      -5.306   0.267  -1.770  0.00  0.00    +0.002 C 
ATOM     24  C16 UNL     1      -5.197   1.317  -0.681  0.00  0.00    +0.002 C 
ATOM     25  C17 UNL     1      -3.792   1.194  -0.108  0.00  0.00    +0.019 C 
ENDBRANCH   8  21
TORSDOF 2
