MODEL 1
REMARK VINA RESULT:    -6.793      0.000      0.000
REMARK INTER + INTRA:          -8.952
REMARK INTER:                  -8.381
REMARK INTRA:                  -0.570
REMARK UNBOUND:                -0.570
REMARK  Name = /home/qwerty/github/datacon2025hack/step_04_hit_selection/docking/ligands/lig_367.pdb
REMARK  5 active torsions:
REMARK  status: ('A' for Active; 'I' for Inactive)
REMARK    1  A    between atoms: C1_1  and  O1_2
REMARK    2  A    between atoms: O1_2  and  C2_3
REMARK    3  A    between atoms: C5_6  and  N1_7
REMARK    4  A    between atoms: N3_13  and  C9_14
REMARK    5  A    between atoms: C12_17  and  N4_18
REMARK                            x       y       z     vdW  Elec       q    Type
REMARK                         _______ _______ _______ _____ _____    ______ ____
ROOT
ATOM      1  N1  UNL     1      19.619   8.428  19.164  0.00  0.00    -0.327 N 
ATOM      2  C6  UNL     1      20.700   7.512  18.776  0.00  0.00    +0.124 C 
ATOM      3  C7  UNL     1      20.917   6.463  19.873  0.00  0.00    +0.128 C 
ATOM      4  N2  UNL     1      19.640   5.938  20.389  0.00  0.00    -0.282 N 
ATOM      5  C8  UNL     1      19.633   5.049  21.529  0.00  0.00    +0.307 C 
ATOM      6  O2  UNL     1      18.541   4.740  22.080  0.00  0.00    -0.252 OA
ATOM      7  N3  UNL     1      20.860   4.488  22.032  0.00  0.00    -0.268 N 
ATOM      8  C19 UNL     1      18.377   6.364  19.760  0.00  0.00    +0.128 C 
ATOM      9  C20 UNL     1      18.338   7.892  19.648  0.00  0.00    +0.124 C 
ATOM     10  H10 UNL     1      21.652   4.337  21.368  0.00  0.00    +0.156 HD
ENDROOT
BRANCH   1  14
ATOM     11  C2  UNL     1      20.169  12.640  18.921  0.00  0.00    +0.120 A 
ATOM     12  C3  UNL     1      21.250  11.767  18.689  0.00  0.00    +0.047 A 
ATOM     13  C4  UNL     1      21.067  10.384  18.766  0.00  0.00    +0.027 A 
ATOM     14  C5  UNL     1      19.808   9.851  19.078  0.00  0.00    +0.030 A 
ATOM     15  C21 UNL     1      18.731  10.723  19.310  0.00  0.00    +0.027 A 
ATOM     16  C22 UNL     1      18.913  12.105  19.225  0.00  0.00    +0.047 A 
BRANCH  11  18
ATOM     17  C1  UNL     1      20.027  14.917  19.943  0.00  0.00    +0.277 C 
ATOM     18  O1  UNL     1      20.302  14.035  18.859  0.00  0.00    -0.495 OA
ENDBRANCH  11  18
ENDBRANCH   1  14
BRANCH   7  19
ATOM     19  C9  UNL     1      21.002   3.983  23.369  0.00  0.00    +0.053 A 
ATOM     20  C10 UNL     1      21.546   4.771  24.395  0.00  0.00    +0.028 A 
ATOM     21  C11 UNL     1      21.704   4.242  25.677  0.00  0.00    +0.045 A 
ATOM     22  C12 UNL     1      21.311   2.916  25.935  0.00  0.00    +0.121 A 
ATOM     23  N5  UNL     1      20.807   2.166  24.914  0.00  0.00    -0.238 NA
ATOM     24  C18 UNL     1      20.653   2.658  23.656  0.00  0.00    +0.136 A 
BRANCH  22  25
ATOM     25  N4  UNL     1      21.461   2.324  27.246  0.00  0.00    -0.315 N 
ATOM     26  C13 UNL     1      21.830   3.190  28.378  0.00  0.00    +0.106 C 
ATOM     27  C14 UNL     1      21.509   2.522  29.718  0.00  0.00    +0.019 C 
ATOM     28  C15 UNL     1      22.177   1.146  29.839  0.00  0.00    +0.003 C 
ATOM     29  C16 UNL     1      22.162   0.331  28.528  0.00  0.00    +0.019 C 
ATOM     30  C17 UNL     1      21.202   0.892  27.472  0.00  0.00    +0.106 C 
ENDBRANCH  22  25
ENDBRANCH   7  19
TORSDOF 4
ENDMDL
MODEL 2
REMARK VINA RESULT:    -6.722     13.074     17.066
REMARK INTER + INTRA:          -8.864
REMARK INTER:                  -8.261
REMARK INTRA:                  -0.603
REMARK UNBOUND:                -0.570
REMARK  Name = /home/qwerty/github/datacon2025hack/step_04_hit_selection/docking/ligands/lig_367.pdb
REMARK  5 active torsions:
REMARK  status: ('A' for Active; 'I' for Inactive)
REMARK    1  A    between atoms: C1_1  and  O1_2
REMARK    2  A    between atoms: O1_2  and  C2_3
REMARK    3  A    between atoms: C5_6  and  N1_7
REMARK    4  A    between atoms: N3_13  and  C9_14
REMARK    5  A    between atoms: C12_17  and  N4_18
REMARK                            x       y       z     vdW  Elec       q    Type
REMARK                         _______ _______ _______ _____ _____    ______ ____
ROOT
ATOM      1  N1  UNL     1      18.177  10.878  36.890  0.00  0.00    -0.327 N 
ATOM      2  C6  UNL     1      18.413  12.302  36.617  0.00  0.00    +0.124 C 
ATOM      3  C7  UNL     1      17.286  12.860  35.738  0.00  0.00    +0.128 C 
ATOM      4  N2  UNL     1      15.961  12.393  36.184  0.00  0.00    -0.282 N 
ATOM      5  C8  UNL     1      14.788  12.692  35.395  0.00  0.00    +0.307 C 
ATOM      6  O2  UNL     1      13.684  12.148  35.675  0.00  0.00    -0.252 OA
ATOM      7  N3  UNL     1      14.855  13.626  34.301  0.00  0.00    -0.268 N 
ATOM      8  C19 UNL     1      15.855  11.584  37.411  0.00  0.00    +0.128 C 
ATOM      9  C20 UNL     1      16.860  10.427  37.364  0.00  0.00    +0.124 C 
ATOM     10  H10 UNL     1      15.559  14.397  34.342  0.00  0.00    +0.156 HD
ENDROOT
BRANCH   1  14
ATOM     11  C2  UNL     1      21.294   8.043  36.303  0.00  0.00    +0.120 A 
ATOM     12  C3  UNL     1      20.227   7.756  37.177  0.00  0.00    +0.047 A 
ATOM     13  C4  UNL     1      19.202   8.686  37.366  0.00  0.00    +0.027 A 
ATOM     14  C5  UNL     1      19.227   9.917  36.692  0.00  0.00    +0.030 A 
ATOM     15  C21 UNL     1      20.292  10.201  35.821  0.00  0.00    +0.027 A 
ATOM     16  C22 UNL     1      21.312   9.266  35.626  0.00  0.00    +0.047 A 
BRANCH  11  18
ATOM     17  C1  UNL     1      23.218   6.659  37.100  0.00  0.00    +0.277 C 
ATOM     18  O1  UNL     1      22.348   7.144  36.082  0.00  0.00    -0.495 OA
ENDBRANCH  11  18
ENDBRANCH   1  14
BRANCH   7  19
ATOM     19  C9  UNL     1      13.903  13.646  33.225  0.00  0.00    +0.053 A 
ATOM     20  C10 UNL     1      12.780  14.486  33.257  0.00  0.00    +0.028 A 
ATOM     21  C11 UNL     1      11.854  14.459  32.213  0.00  0.00    +0.045 A 
ATOM     22  C12 UNL     1      12.056  13.587  31.127  0.00  0.00    +0.121 A 
ATOM     23  N5  UNL     1      13.144  12.765  31.133  0.00  0.00    -0.238 NA
ATOM     24  C18 UNL     1      14.053  12.769  32.144  0.00  0.00    +0.136 A 
BRANCH  22  25
ATOM     25  N4  UNL     1      11.120  13.520  30.027  0.00  0.00    -0.315 N 
ATOM     26  C13 UNL     1      11.398  14.302  28.811  0.00  0.00    +0.106 C 
ATOM     27  C14 UNL     1      10.590  13.782  27.618  0.00  0.00    +0.019 C 
ATOM     28  C15 UNL     1       9.087  13.756  27.921  0.00  0.00    +0.003 C 
ATOM     29  C16 UNL     1       8.752  13.301  29.358  0.00  0.00    +0.019 C 
ATOM     30  C17 UNL     1       9.934  12.648  30.083  0.00  0.00    +0.106 C 
ENDBRANCH  22  25
ENDBRANCH   7  19
TORSDOF 4
ENDMDL
MODEL 3
REMARK VINA RESULT:    -6.576     10.740     13.143
REMARK INTER + INTRA:          -8.684
REMARK INTER:                  -8.110
REMARK INTRA:                  -0.574
REMARK UNBOUND:                -0.570
REMARK  Name = /home/qwerty/github/datacon2025hack/step_04_hit_selection/docking/ligands/lig_367.pdb
REMARK  5 active torsions:
REMARK  status: ('A' for Active; 'I' for Inactive)
REMARK    1  A    between atoms: C1_1  and  O1_2
REMARK    2  A    between atoms: O1_2  and  C2_3
REMARK    3  A    between atoms: C5_6  and  N1_7
REMARK    4  A    between atoms: N3_13  and  C9_14
REMARK    5  A    between atoms: C12_17  and  N4_18
REMARK                            x       y       z     vdW  Elec       q    Type
REMARK                         _______ _______ _______ _____ _____    ______ ____
ROOT
ATOM      1  N1  UNL     1      20.989  15.847  28.404  0.00  0.00    -0.327 N 
ATOM      2  C6  UNL     1      20.222  17.092  28.549  0.00  0.00    +0.124 C 
ATOM      3  C7  UNL     1      18.732  16.771  28.721  0.00  0.00    +0.128 C 
ATOM      4  N2  UNL     1      18.517  15.647  29.650  0.00  0.00    -0.282 N 
ATOM      5  C8  UNL     1      17.191  15.101  29.827  0.00  0.00    +0.307 C 
ATOM      6  O2  UNL     1      17.031  14.033  30.480  0.00  0.00    -0.252 OA
ATOM      7  N3  UNL     1      16.040  15.775  29.287  0.00  0.00    -0.268 N 
ATOM      8  C19 UNL     1      19.672  15.061  30.355  0.00  0.00    +0.128 C 
ATOM      9  C20 UNL     1      20.789  14.744  29.355  0.00  0.00    +0.124 C 
ATOM     10  H10 UNL     1      16.071  16.814  29.179  0.00  0.00    +0.156 HD
ENDROOT
BRANCH   1  14
ATOM     11  C2  UNL     1      23.786  15.393  25.230  0.00  0.00    +0.120 A 
ATOM     12  C3  UNL     1      22.943  16.521  25.279  0.00  0.00    +0.047 A 
ATOM     13  C4  UNL     1      22.028  16.671  26.325  0.00  0.00    +0.027 A 
ATOM     14  C5  UNL     1      21.935  15.698  27.332  0.00  0.00    +0.030 A 
ATOM     15  C21 UNL     1      22.776  14.574  27.280  0.00  0.00    +0.027 A 
ATOM     16  C22 UNL     1      23.697  14.430  26.239  0.00  0.00    +0.047 A 
BRANCH  11  18
ATOM     17  C1  UNL     1      24.620  14.175  23.212  0.00  0.00    +0.277 C 
ATOM     18  O1  UNL     1      24.718  15.196  24.201  0.00  0.00    -0.495 OA
ENDBRANCH  11  18
ENDBRANCH   1  14
BRANCH   7  19
ATOM     19  C9  UNL     1      14.790  15.113  29.029  0.00  0.00    +0.053 A 
ATOM     20  C10 UNL     1      14.473  14.619  27.754  0.00  0.00    +0.028 A 
ATOM     21  C11 UNL     1      13.238  14.012  27.525  0.00  0.00    +0.045 A 
ATOM     22  C12 UNL     1      12.315  13.893  28.580  0.00  0.00    +0.121 A 
ATOM     23  N5  UNL     1      12.640  14.403  29.803  0.00  0.00    -0.238 NA
ATOM     24  C18 UNL     1      13.834  15.007  30.046  0.00  0.00    +0.136 A 
BRANCH  22  25
ATOM     25  N4  UNL     1      11.021  13.277  28.389  0.00  0.00    -0.315 N 
ATOM     26  C13 UNL     1      10.803  12.441  27.197  0.00  0.00    +0.106 C 
ATOM     27  C14 UNL     1       9.587  11.527  27.372  0.00  0.00    +0.019 C 
ATOM     28  C15 UNL     1       8.324  12.326  27.720  0.00  0.00    +0.003 C 
ATOM     29  C16 UNL     1       8.579  13.496  28.695  0.00  0.00    +0.019 C 
ATOM     30  C17 UNL     1       9.946  13.428  29.384  0.00  0.00    +0.106 C 
ENDBRANCH  22  25
ENDBRANCH   7  19
TORSDOF 4
ENDMDL
MODEL 4
REMARK VINA RESULT:    -6.513     10.387     13.914
REMARK INTER + INTRA:          -8.606
REMARK INTER:                  -8.043
REMARK INTRA:                  -0.563
REMARK UNBOUND:                -0.570
REMARK  Name = /home/qwerty/github/datacon2025hack/step_04_hit_selection/docking/ligands/lig_367.pdb
REMARK  5 active torsions:
REMARK  status: ('A' for Active; 'I' for Inactive)
REMARK    1  A    between atoms: C1_1  and  O1_2
REMARK    2  A    between atoms: O1_2  and  C2_3
REMARK    3  A    between atoms: C5_6  and  N1_7
REMARK    4  A    between atoms: N3_13  and  C9_14
REMARK    5  A    between atoms: C12_17  and  N4_18
REMARK                            x       y       z     vdW  Elec       q    Type
REMARK                         _______ _______ _______ _____ _____    ______ ____
ROOT
ATOM      1  N1  UNL     1      18.369  10.856  36.765  0.00  0.00    -0.327 N 
ATOM      2  C6  UNL     1      18.746   9.859  37.776  0.00  0.00    +0.124 C 
ATOM      3  C7  UNL     1      19.368   8.634  37.095  0.00  0.00    +0.128 C 
ATOM      4  N2  UNL     1      20.316   9.018  36.034  0.00  0.00    -0.282 N 
ATOM      5  C8  UNL     1      20.892   8.005  35.179  0.00  0.00    +0.307 C 
ATOM      6  O2  UNL     1      21.560   8.343  34.163  0.00  0.00    -0.252 OA
ATOM      7  N3  UNL     1      20.735   6.608  35.486  0.00  0.00    -0.268 N 
ATOM      8  C19 UNL     1      20.629  10.444  35.827  0.00  0.00    +0.128 C 
ATOM      9  C20 UNL     1      19.333  11.256  35.729  0.00  0.00    +0.124 C 
ATOM     10  H10 UNL     1      20.625   6.322  36.485  0.00  0.00    +0.156 HD
ENDROOT
BRANCH   1  14
ATOM     11  C2  UNL     1      14.489  12.602  36.796  0.00  0.00    +0.120 A 
ATOM     12  C3  UNL     1      14.647  11.215  36.992  0.00  0.00    +0.047 A 
ATOM     13  C4  UNL     1      15.922  10.644  36.985  0.00  0.00    +0.027 A 
ATOM     14  C5  UNL     1      17.056  11.444  36.779  0.00  0.00    +0.030 A 
ATOM     15  C21 UNL     1      16.897  12.825  36.583  0.00  0.00    +0.027 A 
ATOM     16  C22 UNL     1      15.622  13.397  36.598  0.00  0.00    +0.047 A 
BRANCH  11  18
ATOM     17  C1  UNL     1      12.746  14.048  35.737  0.00  0.00    +0.277 C 
ATOM     18  O1  UNL     1      13.231  13.222  36.791  0.00  0.00    -0.495 OA
ENDBRANCH  11  18
ENDBRANCH   1  14
BRANCH   7  19
ATOM     19  C9  UNL     1      20.873   5.567  34.505  0.00  0.00    +0.053 A 
ATOM     20  C10 UNL     1      22.126   5.017  34.193  0.00  0.00    +0.028 A 
ATOM     21  C11 UNL     1      22.234   4.032  33.211  0.00  0.00    +0.045 A 
ATOM     22  C12 UNL     1      21.079   3.591  32.538  0.00  0.00    +0.121 A 
ATOM     23  N5  UNL     1      19.878   4.160  32.844  0.00  0.00    -0.238 NA
ATOM     24  C18 UNL     1      19.752   5.127  33.791  0.00  0.00    +0.136 A 
BRANCH  22  25
ATOM     25  N4  UNL     1      21.143   2.577  31.508  0.00  0.00    -0.315 N 
ATOM     26  C13 UNL     1      20.822   1.185  31.863  0.00  0.00    +0.106 C 
ATOM     27  C14 UNL     1      20.499   0.354  30.618  0.00  0.00    +0.019 C 
ATOM     28  C15 UNL     1      21.637   0.409  29.590  0.00  0.00    +0.003 C 
ATOM     29  C16 UNL     1      22.289   1.802  29.461  0.00  0.00    +0.019 C 
ATOM     30  C17 UNL     1      21.471   2.922  30.114  0.00  0.00    +0.106 C 
ENDBRANCH  22  25
ENDBRANCH   7  19
TORSDOF 4
ENDMDL
MODEL 5
REMARK VINA RESULT:    -6.433     12.215     14.528
REMARK INTER + INTRA:          -8.508
REMARK INTER:                  -7.918
REMARK INTRA:                  -0.590
REMARK UNBOUND:                -0.570
REMARK  Name = /home/qwerty/github/datacon2025hack/step_04_hit_selection/docking/ligands/lig_367.pdb
REMARK  5 active torsions:
REMARK  status: ('A' for Active; 'I' for Inactive)
REMARK    1  A    between atoms: C1_1  and  O1_2
REMARK    2  A    between atoms: O1_2  and  C2_3
REMARK    3  A    between atoms: C5_6  and  N1_7
REMARK    4  A    between atoms: N3_13  and  C9_14
REMARK    5  A    between atoms: C12_17  and  N4_18
REMARK                            x       y       z     vdW  Elec       q    Type
REMARK                         _______ _______ _______ _____ _____    ______ ____
ROOT
ATOM      1  N1  UNL     1       9.758  12.545  29.149  0.00  0.00    -0.327 N 
ATOM      2  C6  UNL     1       9.932  13.561  30.195  0.00  0.00    +0.124 C 
ATOM      3  C7  UNL     1      11.359  14.122  30.147  0.00  0.00    +0.128 C 
ATOM      4  N2  UNL     1      11.797  14.388  28.765  0.00  0.00    -0.282 N 
ATOM      5  C8  UNL     1      13.163  14.780  28.504  0.00  0.00    +0.307 C 
ATOM      6  O2  UNL     1      13.587  14.836  27.316  0.00  0.00    -0.252 OA
ATOM      7  N3  UNL     1      14.046  15.134  29.584  0.00  0.00    -0.268 N 
ATOM      8  C19 UNL     1      10.842  14.205  27.656  0.00  0.00    +0.128 C 
ATOM      9  C20 UNL     1      10.170  12.832  27.767  0.00  0.00    +0.124 C 
ATOM     10  H10 UNL     1      13.637  15.541  30.454  0.00  0.00    +0.156 HD
ENDROOT
BRANCH   1  14
ATOM     11  C2  UNL     1       8.081   8.753  30.106  0.00  0.00    +0.120 A 
ATOM     12  C3  UNL     1       7.260   9.795  29.632  0.00  0.00    +0.047 A 
ATOM     13  C4  UNL     1       7.812  11.038  29.314  0.00  0.00    +0.027 A 
ATOM     14  C5  UNL     1       9.189  11.264  29.469  0.00  0.00    +0.030 A 
ATOM     15  C21 UNL     1      10.006  10.224  29.942  0.00  0.00    +0.027 A 
ATOM     16  C22 UNL     1       9.454   8.979  30.251  0.00  0.00    +0.047 A 
BRANCH  11  18
ATOM     17  C1  UNL     1       7.078   6.546  29.496  0.00  0.00    +0.277 C 
ATOM     18  O1  UNL     1       7.575   7.489  30.441  0.00  0.00    -0.495 OA
ENDBRANCH  11  18
ENDBRANCH   1  14
BRANCH   7  19
ATOM     19  C9  UNL     1      15.478  15.099  29.472  0.00  0.00    +0.053 A 
ATOM     20  C10 UNL     1      16.221  16.261  29.213  0.00  0.00    +0.028 A 
ATOM     21  C11 UNL     1      17.608  16.191  29.075  0.00  0.00    +0.045 A 
ATOM     22  C12 UNL     1      18.257  14.949  29.202  0.00  0.00    +0.121 A 
ATOM     23  N5  UNL     1      17.508  13.832  29.430  0.00  0.00    -0.238 NA
ATOM     24  C18 UNL     1      16.156  13.876  29.559  0.00  0.00    +0.136 A 
BRANCH  22  25
ATOM     25  N4  UNL     1      19.691  14.826  29.060  0.00  0.00    -0.315 N 
ATOM     26  C13 UNL     1      20.327  15.319  27.827  0.00  0.00    +0.106 C 
ATOM     27  C14 UNL     1      21.831  15.530  28.022  0.00  0.00    +0.019 C 
ATOM     28  C15 UNL     1      22.521  14.254  28.523  0.00  0.00    +0.003 C 
ATOM     29  C16 UNL     1      21.694  13.469  29.564  0.00  0.00    +0.019 C 
ATOM     30  C17 UNL     1      20.522  14.271  30.142  0.00  0.00    +0.106 C 
ENDBRANCH  22  25
ENDBRANCH   7  19
TORSDOF 4
ENDMDL
MODEL 6
REMARK VINA RESULT:    -6.420     10.250     13.149
REMARK INTER + INTRA:          -8.492
REMARK INTER:                  -7.857
REMARK INTRA:                  -0.636
REMARK UNBOUND:                -0.570
REMARK  Name = /home/qwerty/github/datacon2025hack/step_04_hit_selection/docking/ligands/lig_367.pdb
REMARK  5 active torsions:
REMARK  status: ('A' for Active; 'I' for Inactive)
REMARK    1  A    between atoms: C1_1  and  O1_2
REMARK    2  A    between atoms: O1_2  and  C2_3
REMARK    3  A    between atoms: C5_6  and  N1_7
REMARK    4  A    between atoms: N3_13  and  C9_14
REMARK    5  A    between atoms: C12_17  and  N4_18
REMARK                            x       y       z     vdW  Elec       q    Type
REMARK                         _______ _______ _______ _____ _____    ______ ____
ROOT
ATOM      1  N1  UNL     1      10.980   3.950  20.940  0.00  0.00    -0.327 N 
ATOM      2  C6  UNL     1       9.705   3.630  21.596  0.00  0.00    +0.124 C 
ATOM      3  C7  UNL     1       9.268   4.799  22.487  0.00  0.00    +0.128 C 
ATOM      4  N2  UNL     1       9.460   6.099  21.819  0.00  0.00    -0.282 N 
ATOM      5  C8  UNL     1       9.245   7.326  22.552  0.00  0.00    +0.307 C 
ATOM      6  O2  UNL     1       9.577   8.432  22.042  0.00  0.00    -0.252 OA
ATOM      7  N3  UNL     1       8.629   7.307  23.853  0.00  0.00    -0.268 N 
ATOM      8  C19 UNL     1       9.918   6.131  20.418  0.00  0.00    +0.128 C 
ATOM      9  C20 UNL     1      11.151   5.237  20.250  0.00  0.00    +0.124 C 
ATOM     10  H10 UNL     1       7.954   6.543  24.078  0.00  0.00    +0.156 HD
ENDROOT
BRANCH   1  14
ATOM     11  C2  UNL     1      14.210   1.181  21.035  0.00  0.00    +0.120 A 
ATOM     12  C3  UNL     1      13.063   0.964  21.824  0.00  0.00    +0.047 A 
ATOM     13  C4  UNL     1      12.002   1.872  21.789  0.00  0.00    +0.027 A 
ATOM     14  C5  UNL     1      12.069   3.011  20.972  0.00  0.00    +0.030 A 
ATOM     15  C21 UNL     1      13.213   3.226  20.187  0.00  0.00    +0.027 A 
ATOM     16  C22 UNL     1      14.270   2.313  20.216  0.00  0.00    +0.047 A 
BRANCH  11  18
ATOM     17  C1  UNL     1      16.307   0.266  20.029  0.00  0.00    +0.277 C 
ATOM     18  O1  UNL     1      15.301   0.301  21.037  0.00  0.00    -0.495 OA
ENDBRANCH  11  18
ENDBRANCH   1  14
BRANCH   7  19
ATOM     19  C9  UNL     1       8.778   8.370  24.808  0.00  0.00    +0.053 A 
ATOM     20  C10 UNL     1       7.819   9.389  24.925  0.00  0.00    +0.028 A 
ATOM     21  C11 UNL     1       8.008  10.428  25.837  0.00  0.00    +0.045 A 
ATOM     22  C12 UNL     1       9.161  10.445  26.643  0.00  0.00    +0.121 A 
ATOM     23  N5  UNL     1      10.087   9.455  26.492  0.00  0.00    -0.238 NA
ATOM     24  C18 UNL     1       9.929   8.439  25.603  0.00  0.00    +0.136 A 
BRANCH  22  25
ATOM     25  N4  UNL     1       9.402  11.504  27.598  0.00  0.00    -0.315 N 
ATOM     26  C13 UNL     1      10.703  11.556  28.286  0.00  0.00    +0.106 C 
ATOM     27  C14 UNL     1      10.958  12.941  28.889  0.00  0.00    +0.019 C 
ATOM     28  C15 UNL     1       9.822  13.366  29.830  0.00  0.00    +0.003 C 
ATOM     29  C16 UNL     1       8.418  12.973  29.324  0.00  0.00    +0.019 C 
ATOM     30  C17 UNL     1       8.396  12.550  27.851  0.00  0.00    +0.106 C 
ENDBRANCH  22  25
ENDBRANCH   7  19
TORSDOF 4
ENDMDL
MODEL 7
REMARK VINA RESULT:    -6.387      8.548     13.327
REMARK INTER + INTRA:          -8.451
REMARK INTER:                  -7.887
REMARK INTRA:                  -0.564
REMARK UNBOUND:                -0.570
REMARK  Name = /home/qwerty/github/datacon2025hack/step_04_hit_selection/docking/ligands/lig_367.pdb
REMARK  5 active torsions:
REMARK  status: ('A' for Active; 'I' for Inactive)
REMARK    1  A    between atoms: C1_1  and  O1_2
REMARK    2  A    between atoms: O1_2  and  C2_3
REMARK    3  A    between atoms: C5_6  and  N1_7
REMARK    4  A    between atoms: N3_13  and  C9_14
REMARK    5  A    between atoms: C12_17  and  N4_18
REMARK                            x       y       z     vdW  Elec       q    Type
REMARK                         _______ _______ _______ _____ _____    ______ ____
ROOT
ATOM      1  N1  UNL     1      20.035   8.735  36.776  0.00  0.00    -0.327 N 
ATOM      2  C6  UNL     1      19.715   7.367  37.208  0.00  0.00    +0.124 C 
ATOM      3  C7  UNL     1      20.096   6.368  36.109  0.00  0.00    +0.128 C 
ATOM      4  N2  UNL     1      21.411   6.678  35.519  0.00  0.00    -0.282 N 
ATOM      5  C8  UNL     1      21.878   5.939  34.368  0.00  0.00    +0.307 C 
ATOM      6  O2  UNL     1      22.915   6.315  33.755  0.00  0.00    -0.252 OA
ATOM      7  N3  UNL     1      21.187   4.757  33.923  0.00  0.00    -0.268 N 
ATOM      8  C19 UNL     1      22.217   7.774  36.085  0.00  0.00    +0.128 C 
ATOM      9  C20 UNL     1      21.361   9.039  36.217  0.00  0.00    +0.124 C 
ATOM     10  H10 UNL     1      20.668   4.184  34.625  0.00  0.00    +0.156 HD
ENDROOT
BRANCH   1  14
ATOM     11  C2  UNL     1      17.138  11.833  37.104  0.00  0.00    +0.120 A 
ATOM     12  C3  UNL     1      16.909  10.579  37.704  0.00  0.00    +0.047 A 
ATOM     13  C4  UNL     1      17.863   9.564  37.598  0.00  0.00    +0.027 A 
ATOM     14  C5  UNL     1      19.055   9.781  36.891  0.00  0.00    +0.030 A 
ATOM     15  C21 UNL     1      19.281  11.031  36.293  0.00  0.00    +0.027 A 
ATOM     16  C22 UNL     1      18.331  12.049  36.406  0.00  0.00    +0.047 A 
BRANCH  11  18
ATOM     17  C1  UNL     1      15.914  13.771  36.105  0.00  0.00    +0.277 C 
ATOM     18  O1  UNL     1      16.211  12.883  37.179  0.00  0.00    -0.495 OA
ENDBRANCH  11  18
ENDBRANCH   1  14
BRANCH   7  19
ATOM     19  C9  UNL     1      21.298   4.238  32.588  0.00  0.00    +0.053 A 
ATOM     20  C10 UNL     1      21.950   3.023  32.327  0.00  0.00    +0.028 A 
ATOM     21  C11 UNL     1      22.073   2.561  31.016  0.00  0.00    +0.045 A 
ATOM     22  C12 UNL     1      21.535   3.317  29.958  0.00  0.00    +0.121 A 
ATOM     23  N5  UNL     1      20.928   4.505  30.239  0.00  0.00    -0.238 NA
ATOM     24  C18 UNL     1      20.805   4.979  31.507  0.00  0.00    +0.136 A 
BRANCH  22  25
ATOM     25  N4  UNL     1      21.644   2.881  28.584  0.00  0.00    -0.315 N 
ATOM     26  C13 UNL     1      21.826   3.894  27.531  0.00  0.00    +0.106 C 
ATOM     27  C14 UNL     1      22.365   3.267  26.242  0.00  0.00    +0.019 C 
ATOM     28  C15 UNL     1      21.469   2.121  25.753  0.00  0.00    +0.003 C 
ATOM     29  C16 UNL     1      20.918   1.235  26.890  0.00  0.00    +0.019 C 
ATOM     30  C17 UNL     1      21.629   1.451  28.231  0.00  0.00    +0.106 C 
ENDBRANCH  22  25
ENDBRANCH   7  19
TORSDOF 4
ENDMDL
MODEL 8
REMARK VINA RESULT:    -6.325      5.961     11.000
REMARK INTER + INTRA:          -8.374
REMARK INTER:                  -7.767
REMARK INTRA:                  -0.607
REMARK UNBOUND:                -0.570
REMARK  Name = /home/qwerty/github/datacon2025hack/step_04_hit_selection/docking/ligands/lig_367.pdb
REMARK  5 active torsions:
REMARK  status: ('A' for Active; 'I' for Inactive)
REMARK    1  A    between atoms: C1_1  and  O1_2
REMARK    2  A    between atoms: O1_2  and  C2_3
REMARK    3  A    between atoms: C5_6  and  N1_7
REMARK    4  A    between atoms: N3_13  and  C9_14
REMARK    5  A    between atoms: C12_17  and  N4_18
REMARK                            x       y       z     vdW  Elec       q    Type
REMARK                         _______ _______ _______ _____ _____    ______ ____
ROOT
ATOM      1  N1  UNL     1      13.410   3.516  21.135  0.00  0.00    -0.327 N 
ATOM      2  C6  UNL     1      13.476   3.717  19.682  0.00  0.00    +0.124 C 
ATOM      3  C7  UNL     1      14.503   4.807  19.350  0.00  0.00    +0.128 C 
ATOM      4  N2  UNL     1      15.737   4.655  20.141  0.00  0.00    -0.282 N 
ATOM      5  C8  UNL     1      16.764   5.670  20.077  0.00  0.00    +0.307 C 
ATOM      6  O2  UNL     1      17.737   5.635  20.880  0.00  0.00    -0.252 OA
ATOM      7  N3  UNL     1      16.706   6.714  19.087  0.00  0.00    -0.268 N 
ATOM      8  C19 UNL     1      15.889   3.487  21.026  0.00  0.00    +0.128 C 
ATOM      9  C20 UNL     1      14.646   3.335  21.910  0.00  0.00    +0.124 C 
ATOM     10  H10 UNL     1      16.233   6.518  18.177  0.00  0.00    +0.156 HD
ENDROOT
BRANCH   1  14
ATOM     11  C2  UNL     1       9.649   3.459  23.123  0.00  0.00    +0.120 A 
ATOM     12  C3  UNL     1      10.835   3.675  23.852  0.00  0.00    +0.047 A 
ATOM     13  C4  UNL     1      12.069   3.697  23.197  0.00  0.00    +0.027 A 
ATOM     14  C5  UNL     1      12.140   3.500  21.810  0.00  0.00    +0.030 A 
ATOM     15  C21 UNL     1      10.956   3.284  21.085  0.00  0.00    +0.027 A 
ATOM     16  C22 UNL     1       9.722   3.271  21.740  0.00  0.00    +0.047 A 
BRANCH  11  18
ATOM     17  C1  UNL     1       7.223   4.056  23.211  0.00  0.00    +0.277 C 
ATOM     18  O1  UNL     1       8.387   3.424  23.734  0.00  0.00    -0.495 OA
ENDBRANCH  11  18
ENDBRANCH   1  14
BRANCH   7  19
ATOM     19  C9  UNL     1      17.397   7.966  19.224  0.00  0.00    +0.053 A 
ATOM     20  C10 UNL     1      18.663   8.170  18.653  0.00  0.00    +0.028 A 
ATOM     21  C11 UNL     1      19.326   9.385  18.832  0.00  0.00    +0.045 A 
ATOM     22  C12 UNL     1      18.716  10.406  19.585  0.00  0.00    +0.121 A 
ATOM     23  N5  UNL     1      17.496  10.172  20.148  0.00  0.00    -0.238 NA
ATOM     24  C18 UNL     1      16.837   8.993  19.994  0.00  0.00    +0.136 A 
BRANCH  22  25
ATOM     25  N4  UNL     1      19.367  11.678  19.802  0.00  0.00    -0.315 N 
ATOM     26  C13 UNL     1      19.055  12.435  21.026  0.00  0.00    +0.106 C 
ATOM     27  C14 UNL     1      20.126  13.489  21.317  0.00  0.00    +0.019 C 
ATOM     28  C15 UNL     1      20.329  14.434  20.125  0.00  0.00    +0.003 C 
ATOM     29  C16 UNL     1      20.272  13.725  18.755  0.00  0.00    +0.019 C 
ATOM     30  C17 UNL     1      20.367  12.198  18.854  0.00  0.00    +0.106 C 
ENDBRANCH  22  25
ENDBRANCH   7  19
TORSDOF 4
ENDMDL
MODEL 9
REMARK VINA RESULT:    -6.254     10.718     12.936
REMARK INTER + INTRA:          -8.287
REMARK INTER:                  -7.749
REMARK INTRA:                  -0.538
REMARK UNBOUND:                -0.570
REMARK  Name = /home/qwerty/github/datacon2025hack/step_04_hit_selection/docking/ligands/lig_367.pdb
REMARK  5 active torsions:
REMARK  status: ('A' for Active; 'I' for Inactive)
REMARK    1  A    between atoms: C1_1  and  O1_2
REMARK    2  A    between atoms: O1_2  and  C2_3
REMARK    3  A    between atoms: C5_6  and  N1_7
REMARK    4  A    between atoms: N3_13  and  C9_14
REMARK    5  A    between atoms: C12_17  and  N4_18
REMARK                            x       y       z     vdW  Elec       q    Type
REMARK                         _______ _______ _______ _____ _____    ______ ____
ROOT
ATOM      1  N1  UNL     1      18.856  15.851  27.614  0.00  0.00    -0.327 N 
ATOM      2  C6  UNL     1      17.940  16.763  26.916  0.00  0.00    +0.124 C 
ATOM      3  C7  UNL     1      16.490  16.302  27.114  0.00  0.00    +0.128 C 
ATOM      4  N2  UNL     1      16.229  15.901  28.509  0.00  0.00    -0.282 N 
ATOM      5  C8  UNL     1      14.964  15.298  28.861  0.00  0.00    +0.307 C 
ATOM      6  O2  UNL     1      14.802  14.794  30.006  0.00  0.00    -0.252 OA
ATOM      7  N3  UNL     1      13.869  15.287  27.925  0.00  0.00    -0.268 N 
ATOM      8  C19 UNL     1      17.285  16.078  29.522  0.00  0.00    +0.128 C 
ATOM      9  C20 UNL     1      18.602  15.481  29.014  0.00  0.00    +0.124 C 
ATOM     10  H10 UNL     1      13.803  16.054  27.220  0.00  0.00    +0.156 HD
ENDROOT
BRANCH   1  14
ATOM     11  C2  UNL     1      22.236  14.247  25.589  0.00  0.00    +0.120 A 
ATOM     12  C3  UNL     1      22.327  15.487  26.252  0.00  0.00    +0.047 A 
ATOM     13  C4  UNL     1      21.216  16.010  26.919  0.00  0.00    +0.027 A 
ATOM     14  C5  UNL     1      20.001  15.310  26.933  0.00  0.00    +0.030 A 
ATOM     15  C21 UNL     1      19.913  14.074  26.271  0.00  0.00    +0.027 A 
ATOM     16  C22 UNL     1      21.026  13.547  25.610  0.00  0.00    +0.047 A 
BRANCH  11  18
ATOM     17  C1  UNL     1      24.107  14.369  23.934  0.00  0.00    +0.277 C 
ATOM     18  O1  UNL     1      23.320  13.681  24.903  0.00  0.00    -0.495 OA
ENDBRANCH  11  18
ENDBRANCH   1  14
BRANCH   7  19
ATOM     19  C9  UNL     1      12.775  14.358  28.008  0.00  0.00    +0.053 A 
ATOM     20  C10 UNL     1      12.759  13.177  27.250  0.00  0.00    +0.028 A 
ATOM     21  C11 UNL     1      11.668  12.311  27.324  0.00  0.00    +0.045 A 
ATOM     22  C12 UNL     1      10.586  12.626  28.167  0.00  0.00    +0.121 A 
ATOM     23  N5  UNL     1      10.617  13.792  28.874  0.00  0.00    -0.238 NA
ATOM     24  C18 UNL     1      11.666  14.654  28.810  0.00  0.00    +0.136 A 
BRANCH  22  25
ATOM     25  N4  UNL     1       9.431  11.762  28.272  0.00  0.00    -0.315 N 
ATOM     26  C13 UNL     1       9.075  11.212  29.590  0.00  0.00    +0.106 C 
ATOM     27  C14 UNL     1       7.625  10.717  29.613  0.00  0.00    +0.019 C 
ATOM     28  C15 UNL     1       7.359   9.694  28.501  0.00  0.00    +0.003 C 
ATOM     29  C16 UNL     1       8.054  10.035  27.165  0.00  0.00    +0.019 C 
ATOM     30  C17 UNL     1       8.584  11.471  27.102  0.00  0.00    +0.106 C 
ENDBRANCH  22  25
ENDBRANCH   7  19
TORSDOF 4
ENDMDL
