MODEL 1
REMARK VINA RESULT:    -6.094      0.000      0.000
REMARK INTER + INTRA:          -8.587
REMARK INTER:                  -8.054
REMARK INTRA:                  -0.533
REMARK UNBOUND:                -0.533
REMARK  Name = /home/qwerty/github/datacon2025hack/step_04_hit_selection/docking/ligands/lig_562.pdb
REMARK  10 active torsions:
REMARK  status: ('A' for Active; 'I' for Inactive)
REMARK    1  A    between atoms: C1_1  and  C2_2
REMARK    2  A    between atoms: C2_2  and  C3_3
REMARK    3  A    between atoms: C2_2  and  C4_4
REMARK    4  A    between atoms: C5_6  and  C6_7
REMARK    5  A    between atoms: C6_7  and  N2_8
REMARK    6  A    between atoms: C8_10  and  O1_11
REMARK    7  A    between atoms: C9_12  and  N3_13
REMARK    8  A    between atoms: N3_13  and  C10_14
REMARK    9  A    between atoms: C11_15  and  C12_17
REMARK   10  A    between atoms: C12_17  and  C13_18
REMARK                            x       y       z     vdW  Elec       q    Type
REMARK                         _______ _______ _______ _____ _____    ______ ____
ROOT
ATOM      1  N2  UNL     1      17.943  10.384  36.391  0.00  0.00    -0.291 NA
ATOM      2  C7  UNL     1      18.018  11.808  36.018  0.00  0.00    +0.118 C 
ATOM      3  C8  UNL     1      16.719  12.498  36.433  0.00  0.00    +0.150 C 
ATOM      4  C9  UNL     1      15.736  11.362  36.739  0.00  0.00    +0.119 C 
ATOM      5  C17 UNL     1      16.515  10.060  36.540  0.00  0.00    +0.110 C 
ENDROOT
BRANCH   4   6
ATOM      6  N3  UNL     1      14.523  11.419  35.896  0.00  0.00    -0.297 N 
ATOM      7  C10 UNL     1      14.585  10.795  34.572  0.00  0.00    +0.132 C 
ATOM      8  C11 UNL     1      13.325  12.104  36.337  0.00  0.00    +0.222 C 
ATOM      9  O2  UNL     1      13.427  13.219  36.916  0.00  0.00    -0.275 OA
BRANCH   8  10
ATOM     10  C12 UNL     1      11.936  11.523  36.144  0.00  0.00    +0.044 C 
ATOM     11  C13 UNL     1      11.311  11.934  34.798  0.00  0.00    +0.021 C 
ATOM     12  C14 UNL     1      11.002  11.826  37.328  0.00  0.00    +0.016 C 
ATOM     13  C15 UNL     1      10.854  10.336  37.600  0.00  0.00    +0.002 C 
ATOM     14  C16 UNL     1      11.805  10.021  36.455  0.00  0.00    +0.016 C 
ENDBRANCH   8  10
ENDBRANCH   4   6
BRANCH   3  15
ATOM     15  O1  UNL     1      16.910  13.335  37.550  0.00  0.00    -0.389 OA
ATOM     16  H13 UNL     1      17.874  13.320  37.786  0.00  0.00    +0.210 HD
ENDBRANCH   3  15
BRANCH   1  17
ATOM     17  C6  UNL     1      18.697  10.087  37.628  0.00  0.00    +0.164 C 
BRANCH  17  20
ATOM     18  C4  UNL     1      20.975   7.443  37.016  0.00  0.00    +0.230 A 
ATOM     19  N1  UNL     1      20.713   8.763  36.934  0.00  0.00    -0.195 NA
ATOM     20  C5  UNL     1      19.481   8.820  37.479  0.00  0.00    +0.186 A 
ATOM     21  N4  UNL     1      19.023   7.611  37.861  0.00  0.00    -0.060 NA
ATOM     22  O3  UNL     1      19.980   6.787  37.560  0.00  0.00    -0.338 OA
BRANCH  18  24
ATOM     23  C1  UNL     1      22.885   7.622  35.425  0.00  0.00    +0.017 C 
ATOM     24  C2  UNL     1      22.251   6.803  36.553  0.00  0.00    +0.072 C 
ATOM     25  C3  UNL     1      23.220   6.641  37.728  0.00  0.00    +0.017 C 
ENDBRANCH  18  24
ENDBRANCH  17  20
ENDBRANCH   1  17
TORSDOF 6
ENDMDL
MODEL 2
REMARK VINA RESULT:    -6.017      6.491      9.536
REMARK INTER + INTRA:          -8.485
REMARK INTER:                  -7.793
REMARK INTRA:                  -0.692
REMARK UNBOUND:                -0.533
REMARK  Name = /home/qwerty/github/datacon2025hack/step_04_hit_selection/docking/ligands/lig_562.pdb
REMARK  10 active torsions:
REMARK  status: ('A' for Active; 'I' for Inactive)
REMARK    1  A    between atoms: C1_1  and  C2_2
REMARK    2  A    between atoms: C2_2  and  C3_3
REMARK    3  A    between atoms: C2_2  and  C4_4
REMARK    4  A    between atoms: C5_6  and  C6_7
REMARK    5  A    between atoms: C6_7  and  N2_8
REMARK    6  A    between atoms: C8_10  and  O1_11
REMARK    7  A    between atoms: C9_12  and  N3_13
REMARK    8  A    between atoms: N3_13  and  C10_14
REMARK    9  A    between atoms: C11_15  and  C12_17
REMARK   10  A    between atoms: C12_17  and  C13_18
REMARK                            x       y       z     vdW  Elec       q    Type
REMARK                         _______ _______ _______ _____ _____    ______ ____
ROOT
ATOM      1  N2  UNL     1      12.141  13.314  31.757  0.00  0.00    -0.291 NA
ATOM      2  C7  UNL     1      13.073  13.685  30.677  0.00  0.00    +0.118 C 
ATOM      3  C8  UNL     1      12.269  14.216  29.490  0.00  0.00    +0.150 C 
ATOM      4  C9  UNL     1      10.817  13.812  29.770  0.00  0.00    +0.119 C 
ATOM      5  C17 UNL     1      10.825  13.110  31.130  0.00  0.00    +0.110 C 
ENDROOT
BRANCH   4   6
ATOM      6  N3  UNL     1      10.250  12.957  28.706  0.00  0.00    -0.297 N 
ATOM      7  C10 UNL     1      11.096  12.666  27.545  0.00  0.00    +0.132 C 
ATOM      8  C11 UNL     1       8.892  12.458  28.778  0.00  0.00    +0.222 C 
ATOM      9  O2  UNL     1       7.971  13.223  29.169  0.00  0.00    -0.275 OA
BRANCH   8  10
ATOM     10  C12 UNL     1       8.530  11.029  28.414  0.00  0.00    +0.044 C 
ATOM     11  C13 UNL     1       8.209  10.870  26.917  0.00  0.00    +0.021 C 
ATOM     12  C14 UNL     1       7.411  10.461  29.305  0.00  0.00    +0.016 C 
ATOM     13  C15 UNL     1       8.355   9.380  29.810  0.00  0.00    +0.002 C 
ATOM     14  C16 UNL     1       9.481   9.952  28.962  0.00  0.00    +0.016 C 
ENDBRANCH   8  10
ENDBRANCH   4   6
BRANCH   3  15
ATOM     15  O1  UNL     1      12.404  15.612  29.355  0.00  0.00    -0.389 OA
ATOM     16  H13 UNL     1      13.372  15.825  29.296  0.00  0.00    +0.210 HD
ENDBRANCH   3  15
BRANCH   1  17
ATOM     17  C6  UNL     1      12.080  14.338  32.822  0.00  0.00    +0.164 C 
BRANCH  17  20
ATOM     18  C4  UNL     1      11.348  12.460  35.736  0.00  0.00    +0.230 A 
ATOM     19  N1  UNL     1      12.068  12.568  34.601  0.00  0.00    -0.195 NA
ATOM     20  C5  UNL     1      11.608  13.737  34.109  0.00  0.00    +0.186 A 
ATOM     21  N4  UNL     1      10.665  14.296  34.893  0.00  0.00    -0.060 NA
ATOM     22  O3  UNL     1      10.536  13.476  35.891  0.00  0.00    -0.338 OA
BRANCH  18  24
ATOM     23  C1  UNL     1      12.927  11.124  37.127  0.00  0.00    +0.017 C 
ATOM     24  C2  UNL     1      11.467  11.323  36.709  0.00  0.00    +0.072 C 
ATOM     25  C3  UNL     1      10.574  11.571  37.928  0.00  0.00    +0.017 C 
ENDBRANCH  18  24
ENDBRANCH  17  20
ENDBRANCH   1  17
TORSDOF 6
ENDMDL
MODEL 3
REMARK VINA RESULT:    -5.929      8.814     11.598
REMARK INTER + INTRA:          -8.369
REMARK INTER:                  -7.678
REMARK INTRA:                  -0.692
REMARK UNBOUND:                -0.533
REMARK  Name = /home/qwerty/github/datacon2025hack/step_04_hit_selection/docking/ligands/lig_562.pdb
REMARK  10 active torsions:
REMARK  status: ('A' for Active; 'I' for Inactive)
REMARK    1  A    between atoms: C1_1  and  C2_2
REMARK    2  A    between atoms: C2_2  and  C3_3
REMARK    3  A    between atoms: C2_2  and  C4_4
REMARK    4  A    between atoms: C5_6  and  C6_7
REMARK    5  A    between atoms: C6_7  and  N2_8
REMARK    6  A    between atoms: C8_10  and  O1_11
REMARK    7  A    between atoms: C9_12  and  N3_13
REMARK    8  A    between atoms: N3_13  and  C10_14
REMARK    9  A    between atoms: C11_15  and  C12_17
REMARK   10  A    between atoms: C12_17  and  C13_18
REMARK                            x       y       z     vdW  Elec       q    Type
REMARK                         _______ _______ _______ _____ _____    ______ ____
ROOT
ATOM      1  N2  UNL     1      21.186   4.198  32.545  0.00  0.00    -0.291 NA
ATOM      2  C7  UNL     1      20.066   3.325  32.943  0.00  0.00    +0.118 C 
ATOM      3  C8  UNL     1      20.311   1.922  32.386  0.00  0.00    +0.150 C 
ATOM      4  C9  UNL     1      21.429   2.086  31.350  0.00  0.00    +0.119 C 
ATOM      5  C17 UNL     1      21.826   3.563  31.382  0.00  0.00    +0.110 C 
ENDROOT
BRANCH   4   6
ATOM      6  N3  UNL     1      21.019   1.648  29.999  0.00  0.00    -0.297 N 
ATOM      7  C10 UNL     1      19.664   1.113  29.840  0.00  0.00    +0.132 C 
ATOM      8  C11 UNL     1      21.932   1.701  28.876  0.00  0.00    +0.222 C 
ATOM      9  O2  UNL     1      23.130   1.343  29.034  0.00  0.00    -0.275 OA
BRANCH   8  10
ATOM     10  C12 UNL     1      21.508   2.191  27.503  0.00  0.00    +0.044 C 
ATOM     11  C13 UNL     1      20.848   1.082  26.664  0.00  0.00    +0.021 C 
ATOM     12  C14 UNL     1      22.655   2.881  26.744  0.00  0.00    +0.016 C 
ATOM     13  C15 UNL     1      21.861   4.178  26.711  0.00  0.00    +0.002 C 
ATOM     14  C16 UNL     1      20.733   3.521  27.493  0.00  0.00    +0.016 C 
ENDBRANCH   8  10
ENDBRANCH   4   6
BRANCH   3  15
ATOM     15  O1  UNL     1      20.672   1.017  33.403  0.00  0.00    -0.389 OA
ATOM     16  H13 UNL     1      19.842   0.609  33.763  0.00  0.00    +0.210 HD
ENDBRANCH   3  15
BRANCH   1  17
ATOM     17  C6  UNL     1      22.151   4.409  33.646  0.00  0.00    +0.164 C 
BRANCH  17  20
ATOM     18  C4  UNL     1      23.731   7.519  33.027  0.00  0.00    +0.230 A 
ATOM     19  N1  UNL     1      22.595   6.859  33.329  0.00  0.00    -0.195 NA
ATOM     20  C5  UNL     1      23.033   5.583  33.359  0.00  0.00    +0.186 A 
ATOM     21  N4  UNL     1      24.349   5.479  33.086  0.00  0.00    -0.060 NA
ATOM     22  O3  UNL     1      24.743   6.699  32.889  0.00  0.00    -0.338 OA
BRANCH  18  24
ATOM     23  C1  UNL     1      25.213   9.408  32.356  0.00  0.00    +0.017 C 
ATOM     24  C2  UNL     1      23.828   9.009  32.876  0.00  0.00    +0.072 C 
ATOM     25  C3  UNL     1      22.723   9.523  31.949  0.00  0.00    +0.017 C 
ENDBRANCH  18  24
ENDBRANCH  17  20
ENDBRANCH   1  17
TORSDOF 6
ENDMDL
MODEL 4
REMARK VINA RESULT:    -5.923      3.111      9.283
REMARK INTER + INTRA:          -8.360
REMARK INTER:                  -7.903
REMARK INTRA:                  -0.458
REMARK UNBOUND:                -0.533
REMARK  Name = /home/qwerty/github/datacon2025hack/step_04_hit_selection/docking/ligands/lig_562.pdb
REMARK  10 active torsions:
REMARK  status: ('A' for Active; 'I' for Inactive)
REMARK    1  A    between atoms: C1_1  and  C2_2
REMARK    2  A    between atoms: C2_2  and  C3_3
REMARK    3  A    between atoms: C2_2  and  C4_4
REMARK    4  A    between atoms: C5_6  and  C6_7
REMARK    5  A    between atoms: C6_7  and  N2_8
REMARK    6  A    between atoms: C8_10  and  O1_11
REMARK    7  A    between atoms: C9_12  and  N3_13
REMARK    8  A    between atoms: N3_13  and  C10_14
REMARK    9  A    between atoms: C11_15  and  C12_17
REMARK   10  A    between atoms: C12_17  and  C13_18
REMARK                            x       y       z     vdW  Elec       q    Type
REMARK                         _______ _______ _______ _____ _____    ______ ____
ROOT
ATOM      1  N2  UNL     1      18.771  10.545  35.674  0.00  0.00    -0.291 NA
ATOM      2  C7  UNL     1      18.889   9.317  36.481  0.00  0.00    +0.118 C 
ATOM      3  C8  UNL     1      20.317   8.785  36.367  0.00  0.00    +0.150 C 
ATOM      4  C9  UNL     1      20.938   9.538  35.184  0.00  0.00    +0.119 C 
ATOM      5  C17 UNL     1      19.866  10.514  34.691  0.00  0.00    +0.110 C 
ENDROOT
BRANCH   4   6
ATOM      6  N3  UNL     1      21.400   8.631  34.113  0.00  0.00    -0.297 N 
ATOM      7  C10 UNL     1      20.413   8.189  33.124  0.00  0.00    +0.132 C 
ATOM      8  C11 UNL     1      22.767   8.155  34.060  0.00  0.00    +0.222 C 
ATOM      9  O2  UNL     1      23.339   7.794  35.124  0.00  0.00    -0.275 OA
BRANCH   8  10
ATOM     10  C12 UNL     1      23.557   8.086  32.765  0.00  0.00    +0.044 C 
ATOM     11  C13 UNL     1      23.215   6.834  31.937  0.00  0.00    +0.021 C 
ATOM     12  C14 UNL     1      25.072   8.230  32.992  0.00  0.00    +0.016 C 
ATOM     13  C15 UNL     1      25.084   9.495  32.146  0.00  0.00    +0.002 C 
ATOM     14  C16 UNL     1      23.580   9.387  31.943  0.00  0.00    +0.016 C 
ENDBRANCH   8  10
ENDBRANCH   4   6
BRANCH   3  15
ATOM     15  O1  UNL     1      21.045   8.993  37.555  0.00  0.00    -0.389 OA
ATOM     16  H13 UNL     1      21.436   8.124  37.835  0.00  0.00    +0.210 HD
ENDBRANCH   3  15
BRANCH   1  17
ATOM     17  C6  UNL     1      18.823  11.769  36.503  0.00  0.00    +0.164 C 
BRANCH  17  20
ATOM     18  C4  UNL     1      16.074  13.955  36.038  0.00  0.00    +0.230 A 
ATOM     19  N1  UNL     1      16.717  13.091  36.848  0.00  0.00    -0.195 NA
ATOM     20  C5  UNL     1      17.768  12.742  36.077  0.00  0.00    +0.186 A 
ATOM     21  N4  UNL     1      17.757  13.352  34.875  0.00  0.00    -0.060 NA
ATOM     22  O3  UNL     1      16.694  14.097  34.893  0.00  0.00    -0.338 OA
BRANCH  18  24
ATOM     23  C1  UNL     1      15.103  16.143  36.733  0.00  0.00    +0.017 C 
ATOM     24  C2  UNL     1      14.809  14.677  36.404  0.00  0.00    +0.072 C 
ATOM     25  C3  UNL     1      13.785  14.560  35.272  0.00  0.00    +0.017 C 
ENDBRANCH  18  24
ENDBRANCH  17  20
ENDBRANCH   1  17
TORSDOF 6
ENDMDL
MODEL 5
REMARK VINA RESULT:    -5.893     10.889     14.413
REMARK INTER + INTRA:          -8.321
REMARK INTER:                  -7.593
REMARK INTRA:                  -0.728
REMARK UNBOUND:                -0.533
REMARK  Name = /home/qwerty/github/datacon2025hack/step_04_hit_selection/docking/ligands/lig_562.pdb
REMARK  10 active torsions:
REMARK  status: ('A' for Active; 'I' for Inactive)
REMARK    1  A    between atoms: C1_1  and  C2_2
REMARK    2  A    between atoms: C2_2  and  C3_3
REMARK    3  A    between atoms: C2_2  and  C4_4
REMARK    4  A    between atoms: C5_6  and  C6_7
REMARK    5  A    between atoms: C6_7  and  N2_8
REMARK    6  A    between atoms: C8_10  and  O1_11
REMARK    7  A    between atoms: C9_12  and  N3_13
REMARK    8  A    between atoms: N3_13  and  C10_14
REMARK    9  A    between atoms: C11_15  and  C12_17
REMARK   10  A    between atoms: C12_17  and  C13_18
REMARK                            x       y       z     vdW  Elec       q    Type
REMARK                         _______ _______ _______ _____ _____    ______ ____
ROOT
ATOM      1  N2  UNL     1       8.647   9.463  25.968  0.00  0.00    -0.291 NA
ATOM      2  C7  UNL     1       8.337   8.595  27.119  0.00  0.00    +0.118 C 
ATOM      3  C8  UNL     1       7.804   9.460  28.261  0.00  0.00    +0.150 C 
ATOM      4  C9  UNL     1       8.145  10.903  27.872  0.00  0.00    +0.119 C 
ATOM      5  C17 UNL     1       8.815  10.826  26.498  0.00  0.00    +0.110 C 
ENDROOT
BRANCH   4   6
ATOM      6  N3  UNL     1       9.003  11.573  28.873  0.00  0.00    -0.297 N 
ATOM      7  C10 UNL     1       9.420  10.794  30.041  0.00  0.00    +0.132 C 
ATOM      8  C11 UNL     1       9.385  12.963  28.734  0.00  0.00    +0.222 C 
ATOM      9  O2  UNL     1       8.527  13.807  28.356  0.00  0.00    -0.275 OA
BRANCH   8  10
ATOM     10  C12 UNL     1      10.795  13.453  29.011  0.00  0.00    +0.044 C 
ATOM     11  C13 UNL     1      11.000  13.840  30.487  0.00  0.00    +0.021 C 
ATOM     12  C14 UNL     1      11.225  14.579  28.056  0.00  0.00    +0.016 C 
ATOM     13  C15 UNL     1      12.354  13.707  27.526  0.00  0.00    +0.002 C 
ATOM     14  C16 UNL     1      11.919  12.570  28.440  0.00  0.00    +0.016 C 
ENDBRANCH   8  10
ENDBRANCH   4   6
BRANCH   3  15
ATOM     15  O1  UNL     1       6.418   9.284  28.442  0.00  0.00    -0.389 OA
ATOM     16  H13 UNL     1       6.170   9.664  29.325  0.00  0.00    +0.210 HD
ENDBRANCH   3  15
BRANCH   1  17
ATOM     17  C6  UNL     1       7.597   9.413  24.928  0.00  0.00    +0.164 C 
BRANCH  17  20
ATOM     18  C4  UNL     1       9.363  10.058  21.925  0.00  0.00    +0.230 A 
ATOM     19  N1  UNL     1       9.313   9.392  23.096  0.00  0.00    -0.195 NA
ATOM     20  C5  UNL     1       8.144   9.838  23.601  0.00  0.00    +0.186 A 
ATOM     21  N4  UNL     1       7.530  10.723  22.790  0.00  0.00    -0.060 NA
ATOM     22  O3  UNL     1       8.316  10.828  21.762  0.00  0.00    -0.338 OA
BRANCH  18  24
ATOM     23  C1  UNL     1      10.159  10.735  19.662  0.00  0.00    +0.017 C 
ATOM     24  C2  UNL     1      10.474   9.926  20.924  0.00  0.00    +0.072 C 
ATOM     25  C3  UNL     1      11.802  10.368  21.545  0.00  0.00    +0.017 C 
ENDBRANCH  18  24
ENDBRANCH  17  20
ENDBRANCH   1  17
TORSDOF 6
ENDMDL
MODEL 6
REMARK VINA RESULT:    -5.658     15.678     16.938
REMARK INTER + INTRA:          -8.011
REMARK INTER:                  -7.534
REMARK INTRA:                  -0.477
REMARK UNBOUND:                -0.533
REMARK  Name = /home/qwerty/github/datacon2025hack/step_04_hit_selection/docking/ligands/lig_562.pdb
REMARK  10 active torsions:
REMARK  status: ('A' for Active; 'I' for Inactive)
REMARK    1  A    between atoms: C1_1  and  C2_2
REMARK    2  A    between atoms: C2_2  and  C3_3
REMARK    3  A    between atoms: C2_2  and  C4_4
REMARK    4  A    between atoms: C5_6  and  C6_7
REMARK    5  A    between atoms: C6_7  and  N2_8
REMARK    6  A    between atoms: C8_10  and  O1_11
REMARK    7  A    between atoms: C9_12  and  N3_13
REMARK    8  A    between atoms: N3_13  and  C10_14
REMARK    9  A    between atoms: C11_15  and  C12_17
REMARK   10  A    between atoms: C12_17  and  C13_18
REMARK                            x       y       z     vdW  Elec       q    Type
REMARK                         _______ _______ _______ _____ _____    ______ ____
ROOT
ATOM      1  N2  UNL     1      10.789   3.965  22.289  0.00  0.00    -0.291 NA
ATOM      2  C7  UNL     1       9.666   3.368  23.036  0.00  0.00    +0.118 C 
ATOM      3  C8  UNL     1       8.440   4.270  22.891  0.00  0.00    +0.150 C 
ATOM      4  C9  UNL     1       8.974   5.595  22.333  0.00  0.00    +0.119 C 
ATOM      5  C17 UNL     1      10.478   5.394  22.127  0.00  0.00    +0.110 C 
ENDROOT
BRANCH   4   6
ATOM      6  N3  UNL     1       8.682   6.742  23.217  0.00  0.00    -0.297 N 
ATOM      7  C10 UNL     1       8.685   6.504  24.663  0.00  0.00    +0.132 C 
ATOM      8  C11 UNL     1       8.359   8.049  22.682  0.00  0.00    +0.222 C 
ATOM      9  O2  UNL     1       7.585   8.138  21.690  0.00  0.00    -0.275 OA
BRANCH   8  10
ATOM     10  C12 UNL     1       8.932   9.331  23.259  0.00  0.00    +0.044 C 
ATOM     11  C13 UNL     1       8.008   9.959  24.319  0.00  0.00    +0.021 C 
ATOM     12  C14 UNL     1       9.327  10.342  22.169  0.00  0.00    +0.016 C 
ATOM     13  C15 UNL     1      10.776  10.281  22.630  0.00  0.00    +0.002 C 
ATOM     14  C16 UNL     1      10.407   9.253  23.690  0.00  0.00    +0.016 C 
ENDBRANCH   8  10
ENDBRANCH   4   6
BRANCH   3  15
ATOM     15  O1  UNL     1       7.474   3.700  22.039  0.00  0.00    -0.389 OA
ATOM     16  H13 UNL     1       7.659   4.005  21.113  0.00  0.00    +0.210 HD
ENDBRANCH   3  15
BRANCH   1  17
ATOM     17  C6  UNL     1      11.007   3.307  20.984  0.00  0.00    +0.164 C 
BRANCH  17  20
ATOM     18  C4  UNL     1      14.113   1.649  20.584  0.00  0.00    +0.230 A 
ATOM     19  N1  UNL     1      13.282   2.627  20.171  0.00  0.00    -0.195 NA
ATOM     20  C5  UNL     1      12.243   2.463  21.015  0.00  0.00    +0.186 A 
ATOM     21  N4  UNL     1      12.431   1.446  21.880  0.00  0.00    -0.060 NA
ATOM     22  O3  UNL     1      13.601   0.971  21.582  0.00  0.00    -0.338 OA
BRANCH  18  24
ATOM     23  C1  UNL     1      16.372   2.598  20.130  0.00  0.00    +0.017 C 
ATOM     24  C2  UNL     1      15.461   1.375  19.985  0.00  0.00    +0.072 C 
ATOM     25  C3  UNL     1      16.090   0.140  20.635  0.00  0.00    +0.017 C 
ENDBRANCH  18  24
ENDBRANCH  17  20
ENDBRANCH   1  17
TORSDOF 6
ENDMDL
MODEL 7
REMARK VINA RESULT:    -5.641     16.114     17.498
REMARK INTER + INTRA:          -7.988
REMARK INTER:                  -7.682
REMARK INTRA:                  -0.307
REMARK UNBOUND:                -0.533
REMARK  Name = /home/qwerty/github/datacon2025hack/step_04_hit_selection/docking/ligands/lig_562.pdb
REMARK  10 active torsions:
REMARK  status: ('A' for Active; 'I' for Inactive)
REMARK    1  A    between atoms: C1_1  and  C2_2
REMARK    2  A    between atoms: C2_2  and  C3_3
REMARK    3  A    between atoms: C2_2  and  C4_4
REMARK    4  A    between atoms: C5_6  and  C6_7
REMARK    5  A    between atoms: C6_7  and  N2_8
REMARK    6  A    between atoms: C8_10  and  O1_11
REMARK    7  A    between atoms: C9_12  and  N3_13
REMARK    8  A    between atoms: N3_13  and  C10_14
REMARK    9  A    between atoms: C11_15  and  C12_17
REMARK   10  A    between atoms: C12_17  and  C13_18
REMARK                            x       y       z     vdW  Elec       q    Type
REMARK                         _______ _______ _______ _____ _____    ______ ____
ROOT
ATOM      1  N2  UNL     1      12.348   3.794  21.466  0.00  0.00    -0.291 NA
ATOM      2  C7  UNL     1      10.899   3.668  21.712  0.00  0.00    +0.118 C 
ATOM      3  C8  UNL     1      10.194   4.907  21.160  0.00  0.00    +0.150 C 
ATOM      4  C9  UNL     1      11.309   5.928  20.902  0.00  0.00    +0.119 C 
ATOM      5  C17 UNL     1      12.620   5.227  21.264  0.00  0.00    +0.110 C 
ENDROOT
BRANCH   4   6
ATOM      6  N3  UNL     1      11.119   7.180  21.664  0.00  0.00    -0.297 N 
ATOM      7  C10 UNL     1      11.963   7.394  22.843  0.00  0.00    +0.132 C 
ATOM      8  C11 UNL     1      10.107   8.148  21.292  0.00  0.00    +0.222 C 
ATOM      9  O2  UNL     1       8.963   7.746  20.947  0.00  0.00    -0.275 OA
BRANCH   8  10
ATOM     10  C12 UNL     1      10.372   9.642  21.282  0.00  0.00    +0.044 C 
ATOM     11  C13 UNL     1      10.363  10.247  22.698  0.00  0.00    +0.021 C 
ATOM     12  C14 UNL     1       9.434  10.401  20.327  0.00  0.00    +0.016 C 
ATOM     13  C15 UNL     1      10.631  10.864  19.510  0.00  0.00    +0.002 C 
ATOM     14  C16 UNL     1      11.569  10.089  20.424  0.00  0.00    +0.016 C 
ENDBRANCH   8  10
ENDBRANCH   4   6
BRANCH   3  15
ATOM     15  O1  UNL     1       9.475   4.615  19.985  0.00  0.00    -0.389 OA
ATOM     16  H13 UNL     1      10.083   4.139  19.360  0.00  0.00    +0.210 HD
ENDBRANCH   3  15
BRANCH   1  17
ATOM     17  C6  UNL     1      12.793   2.990  20.309  0.00  0.00    +0.164 C 
BRANCH  17  20
ATOM     18  C4  UNL     1      15.287   0.539  20.879  0.00  0.00    +0.230 A 
ATOM     19  N1  UNL     1      14.865   1.584  20.139  0.00  0.00    -0.195 NA
ATOM     20  C5  UNL     1      13.699   1.883  20.749  0.00  0.00    +0.186 A 
ATOM     21  N4  UNL     1      13.431   1.067  21.788  0.00  0.00    -0.060 NA
ATOM     22  O3  UNL     1      14.440   0.252  21.836  0.00  0.00    -0.338 OA
BRANCH  18  24
ATOM     23  C1  UNL     1      16.847  -1.178  21.790  0.00  0.00    +0.017 C 
ATOM     24  C2  UNL     1      16.573  -0.199  20.645  0.00  0.00    +0.072 C 
ATOM     25  C3  UNL     1      16.530  -0.926  19.298  0.00  0.00    +0.017 C 
ENDBRANCH  18  24
ENDBRANCH  17  20
ENDBRANCH   1  17
TORSDOF 6
ENDMDL
MODEL 8
REMARK VINA RESULT:    -5.625     16.188     18.893
REMARK INTER + INTRA:          -7.967
REMARK INTER:                  -7.464
REMARK INTRA:                  -0.503
REMARK UNBOUND:                -0.533
REMARK  Name = /home/qwerty/github/datacon2025hack/step_04_hit_selection/docking/ligands/lig_562.pdb
REMARK  10 active torsions:
REMARK  status: ('A' for Active; 'I' for Inactive)
REMARK    1  A    between atoms: C1_1  and  C2_2
REMARK    2  A    between atoms: C2_2  and  C3_3
REMARK    3  A    between atoms: C2_2  and  C4_4
REMARK    4  A    between atoms: C5_6  and  C6_7
REMARK    5  A    between atoms: C6_7  and  N2_8
REMARK    6  A    between atoms: C8_10  and  O1_11
REMARK    7  A    between atoms: C9_12  and  N3_13
REMARK    8  A    between atoms: N3_13  and  C10_14
REMARK    9  A    between atoms: C11_15  and  C12_17
REMARK   10  A    between atoms: C12_17  and  C13_18
REMARK                            x       y       z     vdW  Elec       q    Type
REMARK                         _______ _______ _______ _____ _____    ______ ____
ROOT
ATOM      1  N2  UNL     1      12.999   2.927  21.542  0.00  0.00    -0.291 NA
ATOM      2  C7  UNL     1      14.150   2.668  20.658  0.00  0.00    +0.118 C 
ATOM      3  C8  UNL     1      14.671   1.255  20.925  0.00  0.00    +0.150 C 
ATOM      4  C9  UNL     1      14.015   0.823  22.241  0.00  0.00    +0.119 C 
ATOM      5  C17 UNL     1      13.101   1.976  22.661  0.00  0.00    +0.110 C 
ENDROOT
BRANCH   4   6
ATOM      6  N3  UNL     1      15.006   0.489  23.286  0.00  0.00    -0.297 N 
ATOM      7  C10 UNL     1      15.550   1.591  24.084  0.00  0.00    +0.132 C 
ATOM      8  C11 UNL     1      15.462  -0.871  23.491  0.00  0.00    +0.222 C 
ATOM      9  O2  UNL     1      15.718  -1.595  22.492  0.00  0.00    -0.275 OA
BRANCH   8  10
ATOM     10  C12 UNL     1      15.632  -1.473  24.874  0.00  0.00    +0.044 C 
ATOM     11  C13 UNL     1      17.038  -1.229  25.450  0.00  0.00    +0.021 C 
ATOM     12  C14 UNL     1      15.243  -2.961  24.919  0.00  0.00    +0.016 C 
ATOM     13  C15 UNL     1      14.146  -2.650  25.926  0.00  0.00    +0.002 C 
ATOM     14  C16 UNL     1      14.494  -1.170  25.865  0.00  0.00    +0.016 C 
ENDBRANCH   8  10
ENDBRANCH   4   6
BRANCH   3  15
ATOM     15  O1  UNL     1      14.350   0.377  19.871  0.00  0.00    -0.389 OA
ATOM     16  H13 UNL     1      13.516   0.701  19.441  0.00  0.00    +0.210 HD
ENDBRANCH   3  15
BRANCH   1  17
ATOM     17  C6  UNL     1      11.708   2.794  20.835  0.00  0.00    +0.164 C 
BRANCH  17  20
ATOM     18  C4  UNL     1       9.603   5.636  20.633  0.00  0.00    +0.230 A 
ATOM     19  N1  UNL     1       9.708   4.311  20.856  0.00  0.00    -0.195 NA
ATOM     20  C5  UNL     1      11.036   4.125  20.702  0.00  0.00    +0.186 A 
ATOM     21  N4  UNL     1      11.689   5.264  20.398  0.00  0.00    -0.060 NA
ATOM     22  O3  UNL     1      10.767   6.176  20.369  0.00  0.00    -0.338 OA
BRANCH  18  24
ATOM     23  C1  UNL     1       7.216   5.561  21.347  0.00  0.00    +0.017 C 
ATOM     24  C2  UNL     1       8.314   6.404  20.690  0.00  0.00    +0.072 C 
ATOM     25  C3  UNL     1       8.515   7.725  21.437  0.00  0.00    +0.017 C 
ENDBRANCH  18  24
ENDBRANCH  17  20
ENDBRANCH   1  17
TORSDOF 6
ENDMDL
MODEL 9
REMARK VINA RESULT:    -5.621      6.488     11.333
REMARK INTER + INTRA:          -7.961
REMARK INTER:                  -7.618
REMARK INTRA:                  -0.343
REMARK UNBOUND:                -0.533
REMARK  Name = /home/qwerty/github/datacon2025hack/step_04_hit_selection/docking/ligands/lig_562.pdb
REMARK  10 active torsions:
REMARK  status: ('A' for Active; 'I' for Inactive)
REMARK    1  A    between atoms: C1_1  and  C2_2
REMARK    2  A    between atoms: C2_2  and  C3_3
REMARK    3  A    between atoms: C2_2  and  C4_4
REMARK    4  A    between atoms: C5_6  and  C6_7
REMARK    5  A    between atoms: C6_7  and  N2_8
REMARK    6  A    between atoms: C8_10  and  O1_11
REMARK    7  A    between atoms: C9_12  and  N3_13
REMARK    8  A    between atoms: N3_13  and  C10_14
REMARK    9  A    between atoms: C11_15  and  C12_17
REMARK   10  A    between atoms: C12_17  and  C13_18
REMARK                            x       y       z     vdW  Elec       q    Type
REMARK                         _______ _______ _______ _____ _____    ______ ____
ROOT
ATOM      1  N2  UNL     1      21.399   5.010  33.350  0.00  0.00    -0.291 NA
ATOM      2  C7  UNL     1      20.280   4.078  33.583  0.00  0.00    +0.118 C 
ATOM      3  C8  UNL     1      20.648   2.709  33.009  0.00  0.00    +0.150 C 
ATOM      4  C9  UNL     1      21.870   2.958  32.117  0.00  0.00    +0.119 C 
ATOM      5  C17 UNL     1      22.195   4.448  32.247  0.00  0.00    +0.110 C 
ENDROOT
BRANCH   4   6
ATOM      6  N3  UNL     1      21.637   2.560  30.713  0.00  0.00    -0.297 N 
ATOM      7  C10 UNL     1      21.370   3.622  29.739  0.00  0.00    +0.132 C 
ATOM      8  C11 UNL     1      21.628   1.168  30.312  0.00  0.00    +0.222 C 
ATOM      9  O2  UNL     1      21.048   0.317  31.039  0.00  0.00    -0.275 OA
BRANCH   8  10
ATOM     10  C12 UNL     1      22.309   0.680  29.045  0.00  0.00    +0.044 C 
ATOM     11  C13 UNL     1      21.514   1.040  27.777  0.00  0.00    +0.021 C 
ATOM     12  C14 UNL     1      22.653  -0.819  29.102  0.00  0.00    +0.016 C 
ATOM     13  C15 UNL     1      24.132  -0.491  28.967  0.00  0.00    +0.002 C 
ATOM     14  C16 UNL     1      23.812   0.997  28.946  0.00  0.00    +0.016 C 
ENDBRANCH   8  10
ENDBRANCH   4   6
BRANCH   3  15
ATOM     15  O1  UNL     1      20.930   1.779  34.028  0.00  0.00    -0.389 OA
ATOM     16  H13 UNL     1      20.088   1.598  34.523  0.00  0.00    +0.210 HD
ENDBRANCH   3  15
BRANCH   1  17
ATOM     17  C6  UNL     1      22.221   5.213  34.562  0.00  0.00    +0.164 C 
BRANCH  17  20
ATOM     18  C4  UNL     1      21.378   8.512  35.542  0.00  0.00    +0.230 A 
ATOM     19  N1  UNL     1      21.585   7.641  34.534  0.00  0.00    -0.195 NA
ATOM     20  C5  UNL     1      21.885   6.517  35.216  0.00  0.00    +0.186 A 
ATOM     21  N4  UNL     1      21.867   6.699  36.552  0.00  0.00    -0.060 NA
ATOM     22  O3  UNL     1      21.546   7.946  36.711  0.00  0.00    -0.338 OA
BRANCH  18  24
ATOM     23  C1  UNL     1      20.902  10.290  33.861  0.00  0.00    +0.017 C 
ATOM     24  C2  UNL     1      20.993   9.951  35.352  0.00  0.00    +0.072 C 
ATOM     25  C3  UNL     1      19.670  10.244  36.065  0.00  0.00    +0.017 C 
ENDBRANCH  18  24
ENDBRANCH  17  20
ENDBRANCH   1  17
TORSDOF 6
ENDMDL
