REMARK  Name = /home/qwerty/github/datacon2025hack/step_04_hit_selection/docking/ligands/lig_397.pdb
REMARK  3 active torsions:
REMARK  status: ('A' for Active; 'I' for Inactive)
REMARK    1  A    between atoms: N1_3  and  C2_4
REMARK    2  A    between atoms: N2_15  and  C11_16
REMARK    3  A    between atoms: C17_24  and  C18_25
REMARK                            x       y       z     vdW  Elec       q    Type
REMARK                         _______ _______ _______ _____ _____    ______ ____
ROOT
ATOM      1  C11 UNL     1       1.321  -1.246  -1.451  0.00  0.00    +0.044 A 
ATOM      2  C12 UNL     1       0.604  -1.842  -2.502  0.00  0.00    +0.024 A 
ATOM      3  C13 UNL     1       1.243  -2.193  -3.691  0.00  0.00    +0.004 A 
ATOM      4  C14 UNL     1       2.609  -1.964  -3.848  0.00  0.00    +0.026 A 
ATOM      5  C15 UNL     1       3.352  -1.374  -2.814  0.00  0.00    +0.051 A 
ATOM      6  N3  UNL     1       4.688  -1.152  -2.974  0.00  0.00    -0.322 N 
ATOM      7  C16 UNL     1       5.443  -0.571  -2.001  0.00  0.00    +0.257 A 
ATOM      8  O4  UNL     1       6.680  -0.417  -2.190  0.00  0.00    -0.267 OA
ATOM      9  C17 UNL     1       4.849  -0.164  -0.791  0.00  0.00    +0.047 A 
ATOM     10  C24 UNL     1       3.477  -0.391  -0.605  0.00  0.00    +0.025 A 
ATOM     11  C25 UNL     1       2.710  -1.009  -1.606  0.00  0.00    +0.020 A 
ATOM     12  H15 UNL     1       5.156  -1.437  -3.866  0.00  0.00    +0.169 HD
ENDROOT
BRANCH   9  13
ATOM     13  C18 UNL     1       5.637   0.495   0.281  0.00  0.00    -0.013 A 
ATOM     14  C19 UNL     1       6.480   1.583  -0.013  0.00  0.00    +0.011 A 
ATOM     15  C20 UNL     1       7.211   2.205   1.003  0.00  0.00    +0.039 A 
ATOM     16  C21 UNL     1       7.106   1.752   2.321  0.00  0.00    +0.123 A 
ATOM     17  F1  UNL     1       7.816   2.357   3.304  0.00  0.00    -0.205 F 
ATOM     18  C22 UNL     1       6.267   0.677   2.624  0.00  0.00    +0.039 A 
ATOM     19  C23 UNL     1       5.533   0.052   1.612  0.00  0.00    +0.011 A 
ENDBRANCH   9  13
BRANCH   1  23
ATOM     20  O1  UNL     1      -1.122   0.221  -1.196  0.00  0.00    -0.252 OA
ATOM     21  C1  UNL     1      -0.623  -0.287  -0.154  0.00  0.00    +0.308 C 
ATOM     22  N1  UNL     1      -1.291  -0.149   1.110  0.00  0.00    -0.269 N 
ATOM     23  N2  UNL     1       0.650  -0.946  -0.214  0.00  0.00    -0.269 N 
ATOM     24  H1  UNL     1      -0.727  -0.308   1.975  0.00  0.00    +0.156 HD
ATOM     25  H11 UNL     1       1.108  -1.216   0.684  0.00  0.00    +0.156 HD
BRANCH  22  26
ATOM     26  C2  UNL     1      -2.649   0.298   1.261  0.00  0.00    +0.038 A 
ATOM     27  C3  UNL     1      -3.006   1.037   2.394  0.00  0.00    +0.027 A 
ATOM     28  C4  UNL     1      -4.320   1.472   2.567  0.00  0.00    +0.051 A 
ATOM     29  C5  UNL     1      -5.312   1.149   1.633  0.00  0.00    +0.162 A 
ATOM     30  C6  UNL     1      -4.967   0.379   0.496  0.00  0.00    +0.164 A 
ATOM     31  C7  UNL     1      -3.640  -0.034   0.321  0.00  0.00    +0.072 A 
ATOM     32  O2  UNL     1      -5.878   0.055  -0.516  0.00  0.00    -0.488 OA
ATOM     33  C8  UNL     1      -7.191  -0.445  -0.294  0.00  0.00    +0.232 C 
ATOM     34  C9  UNL     1      -8.113   0.635   0.255  0.00  0.00    +0.082 C 
ATOM     35  C10 UNL     1      -7.800   0.930   1.714  0.00  0.00    +0.232 C 
ATOM     36  O3  UNL     1      -6.593   1.669   1.849  0.00  0.00    -0.488 OA
ENDBRANCH  22  26
ENDBRANCH   1  23
TORSDOF 3
