MODEL 1
REMARK VINA RESULT:    -6.982      0.000      0.000
REMARK INTER + INTRA:          -9.319
REMARK INTER:                  -8.615
REMARK INTRA:                  -0.703
REMARK UNBOUND:                -0.703
REMARK  Name = /home/qwerty/github/datacon2025hack/step_04_hit_selection/docking/ligands/lig_752.pdb
REMARK  5 active torsions:
REMARK  status: ('A' for Active; 'I' for Inactive)
REMARK    1  A    between atoms: C1_1  and  C2_2
REMARK    2  A    between atoms: C3_3  and  C4_4
REMARK    3  A    between atoms: N1_6  and  C5_7
REMARK    4  A    between atoms: N4_16  and  C11_17
REMARK    5  A    between atoms: C14_20  and  C15_21
REMARK                            x       y       z     vdW  Elec       q    Type
REMARK                         _______ _______ _______ _____ _____    ______ ____
ROOT
ATOM      1  C1  UNL     1       7.567   3.297  26.645  0.00  0.00    +0.068 C 
ATOM      2  C2  UNL     1       8.326   2.526  25.604  0.00  0.00    +0.074 A 
ATOM      3  C3  UNL     1       8.611   1.169  25.598  0.00  0.00    +0.170 A 
ATOM      4  N2  UNL     1       9.169   0.869  24.407  0.00  0.00    -0.124 NA
ATOM      5  N3  UNL     1       9.244   1.997  23.717  0.00  0.00    -0.060 NA
ATOM      6  N4  UNL     1       8.756   3.009  24.418  0.00  0.00    -0.216 N 
ENDROOT
BRANCH   6   7
ATOM      7  C11 UNL     1       8.704   4.359  23.925  0.00  0.00    +0.067 A 
ATOM      8  C12 UNL     1       7.880   4.673  22.836  0.00  0.00    +0.028 A 
ATOM      9  C13 UNL     1       7.833   5.976  22.334  0.00  0.00    +0.010 A 
ATOM     10  C14 UNL     1       8.622   6.990  22.906  0.00  0.00    -0.018 A 
ATOM     11  C21 UNL     1       9.464   6.667  23.984  0.00  0.00    +0.010 A 
ATOM     12  C22 UNL     1       9.509   5.363  24.485  0.00  0.00    +0.028 A 
BRANCH  10  13
ATOM     13  C15 UNL     1       8.574   8.376  22.374  0.00  0.00    -0.018 A 
ATOM     14  C16 UNL     1       9.285   8.723  21.209  0.00  0.00    +0.008 A 
ATOM     15  C17 UNL     1       9.238  10.028  20.711  0.00  0.00    +0.001 A 
ATOM     16  C18 UNL     1       8.483  11.001  21.368  0.00  0.00    +0.000 A 
ATOM     17  C19 UNL     1       7.773  10.671  22.524  0.00  0.00    +0.001 A 
ATOM     18  C20 UNL     1       7.818   9.367  23.027  0.00  0.00    +0.008 A 
ENDBRANCH  10  13
ENDBRANCH   6   7
BRANCH   3  19
ATOM     19  C4  UNL     1       8.345   0.166  26.644  0.00  0.00    +0.270 C 
ATOM     20  O1  UNL     1       7.279  -0.504  26.588  0.00  0.00    -0.268 OA
ATOM     21  N1  UNL     1       9.312  -0.109  27.669  0.00  0.00    -0.280 N 
ATOM     22  H4  UNL     1      10.319   0.053  27.443  0.00  0.00    +0.155 HD
BRANCH  21  23
ATOM     23  C5  UNL     1       8.992  -0.726  28.928  0.00  0.00    +0.034 A 
ATOM     24  C6  UNL     1       7.828  -0.382  29.639  0.00  0.00    +0.025 A 
ATOM     25  C7  UNL     1       7.552  -0.979  30.873  0.00  0.00    +0.022 A 
ATOM     26  C8  UNL     1       8.439  -1.915  31.414  0.00  0.00    +0.041 A 
ATOM     27 CL1  UNL     1       8.092  -2.663  32.962  0.00  0.00    -0.084 Cl
ATOM     28  C9  UNL     1       9.608  -2.249  30.722  0.00  0.00    +0.022 A 
ATOM     29  C10 UNL     1       9.887  -1.651  29.488  0.00  0.00    +0.025 A 
ENDBRANCH  21  23
ENDBRANCH   3  19
TORSDOF 4
ENDMDL
MODEL 2
REMARK VINA RESULT:    -6.980      4.114     10.641
REMARK INTER + INTRA:          -9.316
REMARK INTER:                  -8.479
REMARK INTRA:                  -0.838
REMARK UNBOUND:                -0.703
REMARK  Name = /home/qwerty/github/datacon2025hack/step_04_hit_selection/docking/ligands/lig_752.pdb
REMARK  5 active torsions:
REMARK  status: ('A' for Active; 'I' for Inactive)
REMARK    1  A    between atoms: C1_1  and  C2_2
REMARK    2  A    between atoms: C3_3  and  C4_4
REMARK    3  A    between atoms: N1_6  and  C5_7
REMARK    4  A    between atoms: N4_16  and  C11_17
REMARK    5  A    between atoms: C14_20  and  C15_21
REMARK                            x       y       z     vdW  Elec       q    Type
REMARK                         _______ _______ _______ _____ _____    ______ ____
ROOT
ATOM      1  C1  UNL     1       8.288   4.041  25.525  0.00  0.00    +0.068 C 
ATOM      2  C2  UNL     1       8.759   2.960  24.596  0.00  0.00    +0.074 A 
ATOM      3  C3  UNL     1       9.116   3.089  23.262  0.00  0.00    +0.170 A 
ATOM      4  N2  UNL     1       9.629   1.910  22.855  0.00  0.00    -0.124 NA
ATOM      5  N3  UNL     1       9.570   1.083  23.888  0.00  0.00    -0.060 NA
ATOM      6  N4  UNL     1       9.040   1.685  24.941  0.00  0.00    -0.216 N 
ENDROOT
BRANCH   6   7
ATOM      7  C11 UNL     1       8.851   1.036  26.210  0.00  0.00    +0.067 A 
ATOM      8  C12 UNL     1       7.612   0.458  26.521  0.00  0.00    +0.028 A 
ATOM      9  C13 UNL     1       7.408  -0.159  27.758  0.00  0.00    +0.010 A 
ATOM     10  C14 UNL     1       8.438  -0.199  28.715  0.00  0.00    -0.018 A 
ATOM     11  C21 UNL     1       9.672   0.399  28.408  0.00  0.00    +0.010 A 
ATOM     12  C22 UNL     1       9.875   1.017  27.171  0.00  0.00    +0.028 A 
BRANCH  10  13
ATOM     13  C15 UNL     1       8.223  -0.856  30.030  0.00  0.00    -0.018 A 
ATOM     14  C16 UNL     1       6.997  -0.718  30.709  0.00  0.00    +0.008 A 
ATOM     15  C17 UNL     1       6.798  -1.337  31.946  0.00  0.00    +0.001 A 
ATOM     16  C18 UNL     1       7.818  -2.098  32.520  0.00  0.00    +0.000 A 
ATOM     17  C19 UNL     1       9.039  -2.243  31.859  0.00  0.00    +0.001 A 
ATOM     18  C20 UNL     1       9.243  -1.625  30.621  0.00  0.00    +0.008 A 
ENDBRANCH  10  13
ENDBRANCH   6   7
BRANCH   3  19
ATOM     19  C4  UNL     1       9.024   4.276  22.393  0.00  0.00    +0.270 C 
ATOM     20  O1  UNL     1       8.471   4.163  21.265  0.00  0.00    -0.268 OA
ATOM     21  N1  UNL     1       9.479   5.560  22.844  0.00  0.00    -0.280 N 
ATOM     22  H4  UNL     1       9.462   5.749  23.872  0.00  0.00    +0.155 HD
BRANCH  21  23
ATOM     23  C5  UNL     1       9.819   6.645  21.963  0.00  0.00    +0.034 A 
ATOM     24  C6  UNL     1      10.973   6.603  21.159  0.00  0.00    +0.025 A 
ATOM     25  C7  UNL     1      11.294   7.682  20.328  0.00  0.00    +0.022 A 
ATOM     26  C8  UNL     1      10.475   8.815  20.301  0.00  0.00    +0.041 A 
ATOM     27 CL1  UNL     1      10.880  10.166  19.260  0.00  0.00    -0.084 Cl
ATOM     28  C9  UNL     1       9.337   8.871  21.112  0.00  0.00    +0.022 A 
ATOM     29  C10 UNL     1       9.015   7.795  21.945  0.00  0.00    +0.025 A 
ENDBRANCH  21  23
ENDBRANCH   3  19
TORSDOF 4
ENDMDL
MODEL 3
REMARK VINA RESULT:    -6.836     13.289     15.881
REMARK INTER + INTRA:          -9.137
REMARK INTER:                  -8.475
REMARK INTRA:                  -0.662
REMARK UNBOUND:                -0.703
REMARK  Name = /home/qwerty/github/datacon2025hack/step_04_hit_selection/docking/ligands/lig_752.pdb
REMARK  5 active torsions:
REMARK  status: ('A' for Active; 'I' for Inactive)
REMARK    1  A    between atoms: C1_1  and  C2_2
REMARK    2  A    between atoms: C3_3  and  C4_4
REMARK    3  A    between atoms: N1_6  and  C5_7
REMARK    4  A    between atoms: N4_16  and  C11_17
REMARK    5  A    between atoms: C14_20  and  C15_21
REMARK                            x       y       z     vdW  Elec       q    Type
REMARK                         _______ _______ _______ _____ _____    ______ ____
ROOT
ATOM      1  C1  UNL     1      16.818  13.228  27.463  0.00  0.00    +0.068 C 
ATOM      2  C2  UNL     1      16.839  14.618  28.030  0.00  0.00    +0.074 A 
ATOM      3  C3  UNL     1      15.910  15.198  28.882  0.00  0.00    +0.170 A 
ATOM      4  N2  UNL     1      16.396  16.395  29.270  0.00  0.00    -0.124 NA
ATOM      5  N3  UNL     1      17.564  16.555  28.667  0.00  0.00    -0.060 NA
ATOM      6  N4  UNL     1      17.847  15.509  27.907  0.00  0.00    -0.216 N 
ENDROOT
BRANCH   6   7
ATOM      7  C11 UNL     1      19.053  15.399  27.131  0.00  0.00    +0.067 A 
ATOM      8  C12 UNL     1      19.130  16.008  25.871  0.00  0.00    +0.028 A 
ATOM      9  C13 UNL     1      20.289  15.894  25.097  0.00  0.00    +0.010 A 
ATOM     10  C14 UNL     1      21.390  15.156  25.566  0.00  0.00    -0.018 A 
ATOM     11  C21 UNL     1      21.302  14.529  26.821  0.00  0.00    +0.010 A 
ATOM     12  C22 UNL     1      20.142  14.644  27.593  0.00  0.00    +0.028 A 
BRANCH  10  13
ATOM     13  C15 UNL     1      22.623  15.033  24.746  0.00  0.00    -0.018 A 
ATOM     14  C16 UNL     1      23.568  16.077  24.712  0.00  0.00    +0.008 A 
ATOM     15  C17 UNL     1      24.727  15.959  23.939  0.00  0.00    +0.001 A 
ATOM     16  C18 UNL     1      24.955  14.801  23.192  0.00  0.00    +0.000 A 
ATOM     17  C19 UNL     1      24.026  13.759  23.217  0.00  0.00    +0.001 A 
ATOM     18  C20 UNL     1      22.865  13.873  23.988  0.00  0.00    +0.008 A 
ENDBRANCH  10  13
ENDBRANCH   6   7
BRANCH   3  19
ATOM     19  C4  UNL     1      14.627  14.651  29.356  0.00  0.00    +0.270 C 
ATOM     20  O1  UNL     1      14.639  13.654  30.128  0.00  0.00    -0.268 OA
ATOM     21  N1  UNL     1      13.384  15.283  29.018  0.00  0.00    -0.280 N 
ATOM     22  H4  UNL     1      13.396  16.310  28.829  0.00  0.00    +0.155 HD
BRANCH  21  23
ATOM     23  C5  UNL     1      12.109  14.618  29.065  0.00  0.00    +0.034 A 
ATOM     24  C6  UNL     1      11.334  14.436  27.904  0.00  0.00    +0.025 A 
ATOM     25  C7  UNL     1      10.086  13.808  27.980  0.00  0.00    +0.022 A 
ATOM     26  C8  UNL     1       9.596  13.367  29.213  0.00  0.00    +0.041 A 
ATOM     27 CL1  UNL     1       8.031  12.581  29.306  0.00  0.00    -0.084 Cl
ATOM     28  C9  UNL     1      10.352  13.562  30.373  0.00  0.00    +0.022 A 
ATOM     29  C10 UNL     1      11.599  14.192  30.301  0.00  0.00    +0.025 A 
ENDBRANCH  21  23
ENDBRANCH   3  19
TORSDOF 4
ENDMDL
MODEL 4
REMARK VINA RESULT:    -6.799      8.860     10.149
REMARK INTER + INTRA:          -9.093
REMARK INTER:                  -8.431
REMARK INTRA:                  -0.662
REMARK UNBOUND:                -0.703
REMARK  Name = /home/qwerty/github/datacon2025hack/step_04_hit_selection/docking/ligands/lig_752.pdb
REMARK  5 active torsions:
REMARK  status: ('A' for Active; 'I' for Inactive)
REMARK    1  A    between atoms: C1_1  and  C2_2
REMARK    2  A    between atoms: C3_3  and  C4_4
REMARK    3  A    between atoms: N1_6  and  C5_7
REMARK    4  A    between atoms: N4_16  and  C11_17
REMARK    5  A    between atoms: C14_20  and  C15_21
REMARK                            x       y       z     vdW  Elec       q    Type
REMARK                         _______ _______ _______ _____ _____    ______ ____
ROOT
ATOM      1  C1  UNL     1      17.794   4.165  21.387  0.00  0.00    +0.068 C 
ATOM      2  C2  UNL     1      16.594   4.275  20.492  0.00  0.00    +0.074 A 
ATOM      3  C3  UNL     1      15.584   3.341  20.314  0.00  0.00    +0.170 A 
ATOM      4  N2  UNL     1      14.626   3.908  19.552  0.00  0.00    -0.124 NA
ATOM      5  N3  UNL     1      15.039   5.132  19.255  0.00  0.00    -0.060 NA
ATOM      6  N4  UNL     1      16.222   5.372  19.797  0.00  0.00    -0.216 N 
ENDROOT
BRANCH   6   7
ATOM      7  C11 UNL     1      16.920   6.620  19.648  0.00  0.00    +0.067 A 
ATOM      8  C12 UNL     1      17.892   6.762  18.647  0.00  0.00    +0.028 A 
ATOM      9  C13 UNL     1      18.592   7.963  18.503  0.00  0.00    +0.010 A 
ATOM     10  C14 UNL     1      18.341   9.043  19.367  0.00  0.00    -0.018 A 
ATOM     11  C21 UNL     1      17.381   8.892  20.383  0.00  0.00    +0.010 A 
ATOM     12  C22 UNL     1      16.682   7.690  20.526  0.00  0.00    +0.028 A 
BRANCH  10  13
ATOM     13  C15 UNL     1      19.084  10.321  19.215  0.00  0.00    -0.018 A 
ATOM     14  C16 UNL     1      20.427  10.324  18.792  0.00  0.00    +0.008 A 
ATOM     15  C17 UNL     1      21.123  11.528  18.650  0.00  0.00    +0.001 A 
ATOM     16  C18 UNL     1      20.489  12.740  18.928  0.00  0.00    +0.000 A 
ATOM     17  C19 UNL     1      19.158  12.752  19.348  0.00  0.00    +0.001 A 
ATOM     18  C20 UNL     1      18.457  11.550  19.492  0.00  0.00    +0.008 A 
ENDBRANCH  10  13
ENDBRANCH   6   7
BRANCH   3  19
ATOM     19  C4  UNL     1      15.483   1.977  20.861  0.00  0.00    +0.270 C 
ATOM     20  O1  UNL     1      14.833   1.110  20.216  0.00  0.00    -0.268 OA
ATOM     21  N1  UNL     1      16.175   1.609  22.063  0.00  0.00    -0.280 N 
ATOM     22  H4  UNL     1      17.051   2.127  22.298  0.00  0.00    +0.155 HD
BRANCH  21  23
ATOM     23  C5  UNL     1      15.816   0.481  22.881  0.00  0.00    +0.034 A 
ATOM     24  C6  UNL     1      16.567  -0.708  22.862  0.00  0.00    +0.025 A 
ATOM     25  C7  UNL     1      16.183  -1.799  23.649  0.00  0.00    +0.022 A 
ATOM     26  C8  UNL     1      15.042  -1.716  24.453  0.00  0.00    +0.041 A 
ATOM     27 CL1  UNL     1      14.562  -3.085  25.439  0.00  0.00    -0.084 Cl
ATOM     28  C9  UNL     1      14.280  -0.544  24.463  0.00  0.00    +0.022 A 
ATOM     29  C10 UNL     1      14.660   0.547  23.675  0.00  0.00    +0.025 A 
ENDBRANCH  21  23
ENDBRANCH   3  19
TORSDOF 4
ENDMDL
MODEL 5
REMARK VINA RESULT:    -6.752     16.298     17.682
REMARK INTER + INTRA:          -9.035
REMARK INTER:                  -8.174
REMARK INTRA:                  -0.861
REMARK UNBOUND:                -0.703
REMARK  Name = /home/qwerty/github/datacon2025hack/step_04_hit_selection/docking/ligands/lig_752.pdb
REMARK  5 active torsions:
REMARK  status: ('A' for Active; 'I' for Inactive)
REMARK    1  A    between atoms: C1_1  and  C2_2
REMARK    2  A    between atoms: C3_3  and  C4_4
REMARK    3  A    between atoms: N1_6  and  C5_7
REMARK    4  A    between atoms: N4_16  and  C11_17
REMARK    5  A    between atoms: C14_20  and  C15_21
REMARK                            x       y       z     vdW  Elec       q    Type
REMARK                         _______ _______ _______ _____ _____    ______ ____
ROOT
ATOM      1  C1  UNL     1      20.268  13.093  29.080  0.00  0.00    +0.068 C 
ATOM      2  C2  UNL     1      20.773  14.273  29.857  0.00  0.00    +0.074 A 
ATOM      3  C3  UNL     1      20.601  14.532  31.209  0.00  0.00    +0.170 A 
ATOM      4  N2  UNL     1      21.350  15.609  31.523  0.00  0.00    -0.124 NA
ATOM      5  N3  UNL     1      21.942  16.009  30.407  0.00  0.00    -0.060 NA
ATOM      6  N4  UNL     1      21.603  15.232  29.391  0.00  0.00    -0.216 N 
ENDROOT
BRANCH   6   7
ATOM      7  C11 UNL     1      22.093  15.423  28.053  0.00  0.00    +0.067 A 
ATOM      8  C12 UNL     1      21.643  16.511  27.292  0.00  0.00    +0.028 A 
ATOM      9  C13 UNL     1      22.096  16.698  25.984  0.00  0.00    +0.010 A 
ATOM     10  C14 UNL     1      23.001  15.790  25.405  0.00  0.00    -0.018 A 
ATOM     11  C21 UNL     1      23.435  14.688  26.162  0.00  0.00    +0.010 A 
ATOM     12  C22 UNL     1      22.980  14.503  27.471  0.00  0.00    +0.028 A 
BRANCH  10  13
ATOM     13  C15 UNL     1      23.485  15.988  24.014  0.00  0.00    -0.018 A 
ATOM     14  C16 UNL     1      22.576  16.237  22.967  0.00  0.00    +0.008 A 
ATOM     15  C17 UNL     1      23.034  16.423  21.660  0.00  0.00    +0.001 A 
ATOM     16  C18 UNL     1      24.401  16.361  21.382  0.00  0.00    +0.000 A 
ATOM     17  C19 UNL     1      25.313  16.114  22.410  0.00  0.00    +0.001 A 
ATOM     18  C20 UNL     1      24.860  15.927  23.719  0.00  0.00    +0.008 A 
ENDBRANCH  10  13
ENDBRANCH   6   7
BRANCH   3  19
ATOM     19  C4  UNL     1      19.798  13.788  32.195  0.00  0.00    +0.270 C 
ATOM     20  O1  UNL     1      18.649  14.215  32.491  0.00  0.00    -0.268 OA
ATOM     21  N1  UNL     1      20.271  12.554  32.754  0.00  0.00    -0.280 N 
ATOM     22  H4  UNL     1      20.928  11.979  32.179  0.00  0.00    +0.155 HD
BRANCH  21  23
ATOM     23  C5  UNL     1      19.786  11.994  33.987  0.00  0.00    +0.034 A 
ATOM     24  C6  UNL     1      20.084  12.588  35.228  0.00  0.00    +0.025 A 
ATOM     25  C7  UNL     1      19.621  12.010  36.415  0.00  0.00    +0.022 A 
ATOM     26  C8  UNL     1      18.868  10.833  36.376  0.00  0.00    +0.041 A 
ATOM     27 CL1  UNL     1      18.289  10.111  37.866  0.00  0.00    -0.084 Cl
ATOM     28  C9  UNL     1      18.584  10.228  35.148  0.00  0.00    +0.022 A 
ATOM     29  C10 UNL     1      19.047  10.801  33.960  0.00  0.00    +0.025 A 
ENDBRANCH  21  23
ENDBRANCH   3  19
TORSDOF 4
ENDMDL
MODEL 6
REMARK VINA RESULT:    -6.597     12.094     15.744
REMARK INTER + INTRA:          -8.844
REMARK INTER:                  -7.841
REMARK INTRA:                  -1.003
REMARK UNBOUND:                -0.703
REMARK  Name = /home/qwerty/github/datacon2025hack/step_04_hit_selection/docking/ligands/lig_752.pdb
REMARK  5 active torsions:
REMARK  status: ('A' for Active; 'I' for Inactive)
REMARK    1  A    between atoms: C1_1  and  C2_2
REMARK    2  A    between atoms: C3_3  and  C4_4
REMARK    3  A    between atoms: N1_6  and  C5_7
REMARK    4  A    between atoms: N4_16  and  C11_17
REMARK    5  A    between atoms: C14_20  and  C15_21
REMARK                            x       y       z     vdW  Elec       q    Type
REMARK                         _______ _______ _______ _____ _____    ______ ____
ROOT
ATOM      1  C1  UNL     1      19.687   9.609  21.165  0.00  0.00    +0.068 C 
ATOM      2  C2  UNL     1      18.608  10.364  20.445  0.00  0.00    +0.074 A 
ATOM      3  C3  UNL     1      18.593  11.713  20.121  0.00  0.00    +0.170 A 
ATOM      4  N2  UNL     1      17.517  11.938  19.340  0.00  0.00    -0.124 NA
ATOM      5  N3  UNL     1      16.884  10.782  19.206  0.00  0.00    -0.060 NA
ATOM      6  N4  UNL     1      17.512   9.824  19.870  0.00  0.00    -0.216 N 
ENDROOT
BRANCH   6   7
ATOM      7  C11 UNL     1      17.058   8.460  19.906  0.00  0.00    +0.067 A 
ATOM      8  C12 UNL     1      16.237   8.025  20.956  0.00  0.00    +0.028 A 
ATOM      9  C13 UNL     1      15.804   6.698  21.014  0.00  0.00    +0.010 A 
ATOM     10  C14 UNL     1      16.196   5.775  20.028  0.00  0.00    -0.018 A 
ATOM     11  C21 UNL     1      17.037   6.209  18.989  0.00  0.00    +0.010 A 
ATOM     12  C22 UNL     1      17.469   7.537  18.932  0.00  0.00    +0.028 A 
BRANCH  10  13
ATOM     13  C15 UNL     1      15.737   4.363  20.089  0.00  0.00    -0.018 A 
ATOM     14  C16 UNL     1      14.362   4.057  20.112  0.00  0.00    +0.008 A 
ATOM     15  C17 UNL     1      13.934   2.728  20.169  0.00  0.00    +0.001 A 
ATOM     16  C18 UNL     1      14.868   1.691  20.203  0.00  0.00    +0.000 A 
ATOM     17  C19 UNL     1      16.234   1.981  20.180  0.00  0.00    +0.001 A 
ATOM     18  C20 UNL     1      16.668   3.309  20.124  0.00  0.00    +0.008 A 
ENDBRANCH  10  13
ENDBRANCH   6   7
BRANCH   3  19
ATOM     19  C4  UNL     1      19.561  12.761  20.488  0.00  0.00    +0.270 C 
ATOM     20  O1  UNL     1      20.142  13.401  19.570  0.00  0.00    -0.268 OA
ATOM     21  N1  UNL     1      19.787  13.111  21.861  0.00  0.00    -0.280 N 
ATOM     22  H4  UNL     1      19.004  12.962  22.536  0.00  0.00    +0.155 HD
BRANCH  21  23
ATOM     23  C5  UNL     1      20.968  13.783  22.333  0.00  0.00    +0.034 A 
ATOM     24  C6  UNL     1      21.004  15.182  22.487  0.00  0.00    +0.025 A 
ATOM     25  C7  UNL     1      22.173  15.813  22.925  0.00  0.00    +0.022 A 
ATOM     26  C8  UNL     1      23.317  15.059  23.202  0.00  0.00    +0.041 A 
ATOM     27 CL1  UNL     1      24.781  15.854  23.750  0.00  0.00    -0.084 Cl
ATOM     28  C9  UNL     1      23.294  13.671  23.034  0.00  0.00    +0.022 A 
ATOM     29  C10 UNL     1      22.128  13.037  22.594  0.00  0.00    +0.025 A 
ENDBRANCH  21  23
ENDBRANCH   3  19
TORSDOF 4
ENDMDL
MODEL 7
REMARK VINA RESULT:    -6.486      7.232      8.819
REMARK INTER + INTRA:          -8.706
REMARK INTER:                  -7.774
REMARK INTRA:                  -0.932
REMARK UNBOUND:                -0.703
REMARK  Name = /home/qwerty/github/datacon2025hack/step_04_hit_selection/docking/ligands/lig_752.pdb
REMARK  5 active torsions:
REMARK  status: ('A' for Active; 'I' for Inactive)
REMARK    1  A    between atoms: C1_1  and  C2_2
REMARK    2  A    between atoms: C3_3  and  C4_4
REMARK    3  A    between atoms: N1_6  and  C5_7
REMARK    4  A    between atoms: N4_16  and  C11_17
REMARK    5  A    between atoms: C14_20  and  C15_21
REMARK                            x       y       z     vdW  Elec       q    Type
REMARK                         _______ _______ _______ _____ _____    ______ ____
ROOT
ATOM      1  C1  UNL     1      11.451   6.370  23.788  0.00  0.00    +0.068 C 
ATOM      2  C2  UNL     1      11.106   7.246  22.618  0.00  0.00    +0.074 A 
ATOM      3  C3  UNL     1      11.308   6.978  21.273  0.00  0.00    +0.170 A 
ATOM      4  N2  UNL     1      10.708   7.954  20.562  0.00  0.00    -0.124 NA
ATOM      5  N3  UNL     1      10.177   8.800  21.433  0.00  0.00    -0.060 NA
ATOM      6  N4  UNL     1      10.413   8.404  22.674  0.00  0.00    -0.216 N 
ENDROOT
BRANCH   6   7
ATOM      7  C11 UNL     1       9.956   9.123  23.832  0.00  0.00    +0.067 A 
ATOM      8  C12 UNL     1      10.864   9.874  24.591  0.00  0.00    +0.028 A 
ATOM      9  C13 UNL     1      10.438  10.562  25.730  0.00  0.00    +0.010 A 
ATOM     10  C14 UNL     1       9.094  10.502  26.140  0.00  0.00    -0.018 A 
ATOM     11  C21 UNL     1       8.190   9.731  25.389  0.00  0.00    +0.010 A 
ATOM     12  C22 UNL     1       8.618   9.043  24.250  0.00  0.00    +0.028 A 
BRANCH  10  13
ATOM     13  C15 UNL     1       8.638  11.233  27.350  0.00  0.00    -0.018 A 
ATOM     14  C16 UNL     1       8.131  10.534  28.462  0.00  0.00    +0.008 A 
ATOM     15  C17 UNL     1       7.704  11.225  29.599  0.00  0.00    +0.001 A 
ATOM     16  C18 UNL     1       7.776  12.619  29.640  0.00  0.00    +0.000 A 
ATOM     17  C19 UNL     1       8.277  13.325  28.545  0.00  0.00    +0.001 A 
ATOM     18  C20 UNL     1       8.705  12.638  27.404  0.00  0.00    +0.008 A 
ENDBRANCH  10  13
ENDBRANCH   6   7
BRANCH   3  19
ATOM     19  C4  UNL     1      12.002   5.834  20.654  0.00  0.00    +0.270 C 
ATOM     20  O1  UNL     1      11.369   5.103  19.845  0.00  0.00    -0.268 OA
ATOM     21  N1  UNL     1      13.396   5.595  20.899  0.00  0.00    -0.280 N 
ATOM     22  H4  UNL     1      13.997   6.417  21.132  0.00  0.00    +0.155 HD
BRANCH  21  23
ATOM     23  C5  UNL     1      14.037   4.323  20.702  0.00  0.00    +0.034 A 
ATOM     24  C6  UNL     1      13.680   3.196  21.465  0.00  0.00    +0.025 A 
ATOM     25  C7  UNL     1      14.336   1.976  21.271  0.00  0.00    +0.022 A 
ATOM     26  C8  UNL     1      15.359   1.872  20.324  0.00  0.00    +0.041 A 
ATOM     27 CL1  UNL     1      16.181   0.341  20.082  0.00  0.00    -0.084 Cl
ATOM     28  C9  UNL     1      15.732   2.993  19.575  0.00  0.00    +0.022 A 
ATOM     29  C10 UNL     1      15.080   4.214  19.768  0.00  0.00    +0.025 A 
ENDBRANCH  21  23
ENDBRANCH   3  19
TORSDOF 4
ENDMDL
MODEL 8
REMARK VINA RESULT:    -6.397     13.861     14.680
REMARK INTER + INTRA:          -8.596
REMARK INTER:                  -7.863
REMARK INTRA:                  -0.733
REMARK UNBOUND:                -0.703
REMARK  Name = /home/qwerty/github/datacon2025hack/step_04_hit_selection/docking/ligands/lig_752.pdb
REMARK  5 active torsions:
REMARK  status: ('A' for Active; 'I' for Inactive)
REMARK    1  A    between atoms: C1_1  and  C2_2
REMARK    2  A    between atoms: C3_3  and  C4_4
REMARK    3  A    between atoms: N1_6  and  C5_7
REMARK    4  A    between atoms: N4_16  and  C11_17
REMARK    5  A    between atoms: C14_20  and  C15_21
REMARK                            x       y       z     vdW  Elec       q    Type
REMARK                         _______ _______ _______ _____ _____    ______ ____
ROOT
ATOM      1  C1  UNL     1      16.796  11.027  33.274  0.00  0.00    +0.068 C 
ATOM      2  C2  UNL     1      16.434  12.037  34.325  0.00  0.00    +0.074 A 
ATOM      3  C3  UNL     1      17.101  12.297  35.513  0.00  0.00    +0.170 A 
ATOM      4  N2  UNL     1      16.533  13.382  36.077  0.00  0.00    -0.124 NA
ATOM      5  N3  UNL     1      15.544  13.762  35.281  0.00  0.00    -0.060 NA
ATOM      6  N4  UNL     1      15.456  12.963  34.229  0.00  0.00    -0.216 N 
ENDROOT
BRANCH   6   7
ATOM      7  C11 UNL     1      14.475  13.131  33.191  0.00  0.00    +0.067 A 
ATOM      8  C12 UNL     1      13.140  12.777  33.428  0.00  0.00    +0.028 A 
ATOM      9  C13 UNL     1      12.180  12.917  32.421  0.00  0.00    +0.010 A 
ATOM     10  C14 UNL     1      12.542  13.402  31.152  0.00  0.00    -0.018 A 
ATOM     11  C21 UNL     1      13.886  13.735  30.911  0.00  0.00    +0.010 A 
ATOM     12  C22 UNL     1      14.844  13.595  31.918  0.00  0.00    +0.028 A 
BRANCH  10  13
ATOM     13  C15 UNL     1      11.523  13.551  30.081  0.00  0.00    -0.018 A 
ATOM     14  C16 UNL     1      11.888  14.020  28.804  0.00  0.00    +0.008 A 
ATOM     15  C17 UNL     1      10.927  14.159  27.799  0.00  0.00    +0.001 A 
ATOM     16  C18 UNL     1       9.593  13.834  28.055  0.00  0.00    +0.000 A 
ATOM     17  C19 UNL     1       9.218  13.369  29.317  0.00  0.00    +0.001 A 
ATOM     18  C20 UNL     1      10.175  13.228  30.326  0.00  0.00    +0.008 A 
ENDBRANCH  10  13
ENDBRANCH   6   7
BRANCH   3  19
ATOM     19  C4  UNL     1      18.254  11.590  36.097  0.00  0.00    +0.270 C 
ATOM     20  O1  UNL     1      19.203  12.266  36.578  0.00  0.00    -0.268 OA
ATOM     21  N1  UNL     1      18.272  10.158  36.194  0.00  0.00    -0.280 N 
ATOM     22  H4  UNL     1      17.354   9.664  36.266  0.00  0.00    +0.155 HD
BRANCH  21  23
ATOM     23  C5  UNL     1      19.472   9.379  36.343  0.00  0.00    +0.034 A 
ATOM     24  C6  UNL     1      20.562   9.537  35.466  0.00  0.00    +0.025 A 
ATOM     25  C7  UNL     1      21.708   8.750  35.617  0.00  0.00    +0.022 A 
ATOM     26  C8  UNL     1      21.774   7.794  36.635  0.00  0.00    +0.041 A 
ATOM     27 CL1  UNL     1      23.213   6.808  36.821  0.00  0.00    -0.084 Cl
ATOM     28  C9  UNL     1      20.688   7.618  37.498  0.00  0.00    +0.022 A 
ATOM     29  C10 UNL     1      19.539   8.402  37.348  0.00  0.00    +0.025 A 
ENDBRANCH  21  23
ENDBRANCH   3  19
TORSDOF 4
ENDMDL
MODEL 9
REMARK VINA RESULT:    -6.392      6.147     10.868
REMARK INTER + INTRA:          -8.590
REMARK INTER:                  -7.729
REMARK INTRA:                  -0.861
REMARK UNBOUND:                -0.703
REMARK  Name = /home/qwerty/github/datacon2025hack/step_04_hit_selection/docking/ligands/lig_752.pdb
REMARK  5 active torsions:
REMARK  status: ('A' for Active; 'I' for Inactive)
REMARK    1  A    between atoms: C1_1  and  C2_2
REMARK    2  A    between atoms: C3_3  and  C4_4
REMARK    3  A    between atoms: N1_6  and  C5_7
REMARK    4  A    between atoms: N4_16  and  C11_17
REMARK    5  A    between atoms: C14_20  and  C15_21
REMARK                            x       y       z     vdW  Elec       q    Type
REMARK                         _______ _______ _______ _____ _____    ______ ____
ROOT
ATOM      1  C1  UNL     1      11.466   4.397  24.235  0.00  0.00    +0.068 C 
ATOM      2  C2  UNL     1      10.922   3.921  22.919  0.00  0.00    +0.074 A 
ATOM      3  C3  UNL     1       9.983   4.551  22.115  0.00  0.00    +0.170 A 
ATOM      4  N2  UNL     1       9.903   3.863  20.958  0.00  0.00    -0.124 NA
ATOM      5  N3  UNL     1      10.740   2.841  21.053  0.00  0.00    -0.060 NA
ATOM      6  N4  UNL     1      11.354   2.846  22.226  0.00  0.00    -0.216 N 
ENDROOT
BRANCH   6   7
ATOM      7  C11 UNL     1      12.323   1.856  22.614  0.00  0.00    +0.067 A 
ATOM      8  C12 UNL     1      13.576   1.822  21.986  0.00  0.00    +0.028 A 
ATOM      9  C13 UNL     1      14.520   0.854  22.339  0.00  0.00    +0.010 A 
ATOM     10  C14 UNL     1      14.223  -0.108  23.321  0.00  0.00    -0.018 A 
ATOM     11  C21 UNL     1      12.958  -0.084  23.934  0.00  0.00    +0.010 A 
ATOM     12  C22 UNL     1      12.015   0.885  23.579  0.00  0.00    +0.028 A 
BRANCH  10  13
ATOM     13  C15 UNL     1      15.226  -1.137  23.698  0.00  0.00    -0.018 A 
ATOM     14  C16 UNL     1      15.013  -1.972  24.813  0.00  0.00    +0.008 A 
ATOM     15  C17 UNL     1      15.958  -2.939  25.165  0.00  0.00    +0.001 A 
ATOM     16  C18 UNL     1      17.125  -3.085  24.412  0.00  0.00    +0.000 A 
ATOM     17  C19 UNL     1      17.349  -2.265  23.305  0.00  0.00    +0.001 A 
ATOM     18  C20 UNL     1      16.406  -1.295  22.948  0.00  0.00    +0.008 A 
ENDBRANCH  10  13
ENDBRANCH   6   7
BRANCH   3  19
ATOM     19  C4  UNL     1       9.208   5.774  22.387  0.00  0.00    +0.270 C 
ATOM     20  O1  UNL     1       7.958   5.684  22.520  0.00  0.00    -0.268 OA
ATOM     21  N1  UNL     1       9.862   7.037  22.580  0.00  0.00    -0.280 N 
ATOM     22  H4  UNL     1      10.838   7.027  22.953  0.00  0.00    +0.155 HD
BRANCH  21  23
ATOM     23  C5  UNL     1       9.209   8.309  22.428  0.00  0.00    +0.034 A 
ATOM     24  C6  UNL     1       8.432   8.863  23.463  0.00  0.00    +0.025 A 
ATOM     25  C7  UNL     1       7.787  10.091  23.281  0.00  0.00    +0.022 A 
ATOM     26  C8  UNL     1       7.902  10.771  22.065  0.00  0.00    +0.041 A 
ATOM     27 CL1  UNL     1       7.092  12.310  21.840  0.00  0.00    -0.084 Cl
ATOM     28  C9  UNL     1       8.657  10.217  21.026  0.00  0.00    +0.022 A 
ATOM     29  C10 UNL     1       9.301   8.989  21.204  0.00  0.00    +0.025 A 
ENDBRANCH  21  23
ENDBRANCH   3  19
TORSDOF 4
ENDMDL
