MODEL 1
REMARK VINA RESULT:    -6.092      0.000      0.000
REMARK INTER + INTRA:          -8.705
REMARK INTER:                  -7.872
REMARK INTRA:                  -0.832
REMARK UNBOUND:                -0.832
REMARK  Name = /home/qwerty/github/datacon2025hack/step_04_hit_selection/docking/ligands/lig_729.pdb
REMARK  8 active torsions:
REMARK  status: ('A' for Active; 'I' for Inactive)
REMARK    1  A    between atoms: C1_1  and  O1_2
REMARK    2  A    between atoms: O1_2  and  C2_3
REMARK    3  A    between atoms: C7_9  and  N1_10
REMARK    4  A    between atoms: C8_11  and  C9_13
REMARK    5  A    between atoms: N2_15  and  C10_16
REMARK    6  A    between atoms: C12_18  and  C13_19
REMARK    7  A    between atoms: N3_20  and  C14_21
REMARK    8  A    between atoms: N5_24  and  C16_25
REMARK                            x       y       z     vdW  Elec       q    Type
REMARK                         _______ _______ _______ _____ _____    ______ ____
ROOT
ATOM      1  C9  UNL     1       9.363   2.466  23.361  0.00  0.00    +0.300 C 
ATOM      2  O3  UNL     1       8.668   2.633  24.398  0.00  0.00    -0.265 OA
ATOM      3  N2  UNL     1       9.153   3.307  22.216  0.00  0.00    -0.296 N 
ATOM      4  H8  UNL     1       9.742   3.160  21.364  0.00  0.00    +0.150 HD
ENDROOT
BRANCH   3   5
ATOM      5  C10 UNL     1       8.131   4.357  22.209  0.00  0.00    +0.162 C 
ATOM      6  C11 UNL     1       7.421   4.440  20.846  0.00  0.00    +0.054 C 
ATOM      7  C12 UNL     1       7.366   5.940  20.462  0.00  0.00    +0.081 C 
ATOM      8  C13 UNL     1       5.961   6.514  20.672  0.00  0.00    +0.028 C 
ATOM      9  N3  UNL     1       8.318   6.609  21.343  0.00  0.00    -0.264 N 
ATOM     10  C18 UNL     1       8.734   5.703  22.354  0.00  0.00    +0.240 C 
ATOM     11  O4  UNL     1       9.514   6.015  23.293  0.00  0.00    -0.273 OA
BRANCH   9  12
ATOM     12  C14 UNL     1       8.792   7.956  21.158  0.00  0.00    +0.074 A 
ATOM     13  C15 UNL     1       8.280   9.120  21.708  0.00  0.00    +0.157 A 
ATOM     14  N4  UNL     1       9.001  10.166  21.258  0.00  0.00    -0.178 NA
ATOM     15  N5  UNL     1       9.949   9.692  20.463  0.00  0.00    -0.273 N 
ATOM     16  C16 UNL     1      10.899  10.529  19.743  0.00  0.00    +0.172 C 
ATOM     17  C17 UNL     1       9.848   8.354  20.365  0.00  0.00    +0.131 A 
ENDBRANCH   9  12
ENDBRANCH   3   5
BRANCH   1  19
ATOM     18  N1  UNL     1      11.713   1.674  23.851  0.00  0.00    -0.275 N 
ATOM     19  C8  UNL     1      10.395   1.413  23.339  0.00  0.00    +0.303 C 
ATOM     20  O2  UNL     1      10.109   0.271  22.886  0.00  0.00    -0.265 OA
ATOM     21  H7  UNL     1      11.852   2.498  24.480  0.00  0.00    +0.155 HD
BRANCH  18  28
ATOM     22  C2  UNL     1      13.533   0.676  22.490  0.00  0.00    +0.141 A 
ATOM     23  C3  UNL     1      14.602  -0.236  22.389  0.00  0.00    +0.049 A 
ATOM     24  C4  UNL     1      14.962  -1.029  23.481  0.00  0.00    +0.024 A 
ATOM     25  C5  UNL     1      14.265  -0.920  24.686  0.00  0.00    +0.043 A 
ATOM     26 CL1  UNL     1      14.731  -1.905  26.062  0.00  0.00    -0.083 Cl
ATOM     27  C6  UNL     1      13.198  -0.025  24.795  0.00  0.00    +0.047 A 
ATOM     28  C7  UNL     1      12.809   0.757  23.698  0.00  0.00    +0.077 A 
BRANCH  22  30
ATOM     29  C1  UNL     1      14.092   1.999  20.438  0.00  0.00    +0.277 C 
ATOM     30  O1  UNL     1      13.185   1.525  21.427  0.00  0.00    -0.493 OA
ENDBRANCH  22  30
ENDBRANCH  18  28
ENDBRANCH   1  19
TORSDOF 5
ENDMDL
MODEL 2
REMARK VINA RESULT:    -5.983     10.254     12.497
REMARK INTER + INTRA:          -8.564
REMARK INTER:                  -7.832
REMARK INTRA:                  -0.732
REMARK UNBOUND:                -0.832
REMARK  Name = /home/qwerty/github/datacon2025hack/step_04_hit_selection/docking/ligands/lig_729.pdb
REMARK  8 active torsions:
REMARK  status: ('A' for Active; 'I' for Inactive)
REMARK    1  A    between atoms: C1_1  and  O1_2
REMARK    2  A    between atoms: O1_2  and  C2_3
REMARK    3  A    between atoms: C7_9  and  N1_10
REMARK    4  A    between atoms: C8_11  and  C9_13
REMARK    5  A    between atoms: N2_15  and  C10_16
REMARK    6  A    between atoms: C12_18  and  C13_19
REMARK    7  A    between atoms: N3_20  and  C14_21
REMARK    8  A    between atoms: N5_24  and  C16_25
REMARK                            x       y       z     vdW  Elec       q    Type
REMARK                         _______ _______ _______ _____ _____    ______ ____
ROOT
ATOM      1  C9  UNL     1      21.984   5.596  22.778  0.00  0.00    +0.300 C 
ATOM      2  O3  UNL     1      21.376   5.139  21.773  0.00  0.00    -0.265 OA
ATOM      3  N2  UNL     1      22.927   6.666  22.618  0.00  0.00    -0.296 N 
ATOM      4  H8  UNL     1      23.419   7.039  23.462  0.00  0.00    +0.150 HD
ENDROOT
BRANCH   3   5
ATOM      5  C10 UNL     1      23.221   7.242  21.303  0.00  0.00    +0.162 C 
ATOM      6  C11 UNL     1      24.666   7.769  21.232  0.00  0.00    +0.054 C 
ATOM      7  C12 UNL     1      24.596   9.177  20.590  0.00  0.00    +0.081 C 
ATOM      8  C13 UNL     1      25.063   9.144  19.131  0.00  0.00    +0.028 C 
ATOM      9  N3  UNL     1      23.194   9.575  20.660  0.00  0.00    -0.264 N 
ATOM     10  C18 UNL     1      22.410   8.455  21.046  0.00  0.00    +0.240 C 
ATOM     11  O4  UNL     1      21.154   8.480  21.137  0.00  0.00    -0.273 OA
BRANCH   9  12
ATOM     12  C14 UNL     1      22.713  10.912  20.429  0.00  0.00    +0.074 A 
ATOM     13  C15 UNL     1      22.985  12.052  21.168  0.00  0.00    +0.157 A 
ATOM     14  N4  UNL     1      22.314  13.089  20.628  0.00  0.00    -0.178 NA
ATOM     15  N5  UNL     1      21.650  12.637  19.574  0.00  0.00    -0.273 N 
ATOM     16  C16 UNL     1      20.765  13.458  18.759  0.00  0.00    +0.172 C 
ATOM     17  C17 UNL     1      21.855  11.315  19.427  0.00  0.00    +0.131 A 
ENDBRANCH   9  12
ENDBRANCH   3   5
BRANCH   1  19
ATOM     18  N1  UNL     1      21.832   3.618  24.345  0.00  0.00    -0.275 N 
ATOM     19  C8  UNL     1      21.709   5.031  24.113  0.00  0.00    +0.303 C 
ATOM     20  O2  UNL     1      21.384   5.801  25.059  0.00  0.00    -0.265 OA
ATOM     21  H7  UNL     1      22.375   3.043  23.661  0.00  0.00    +0.155 HD
BRANCH  18  28
ATOM     22  C2  UNL     1      20.050   2.698  25.807  0.00  0.00    +0.141 A 
ATOM     23  C3  UNL     1      19.685   2.073  27.016  0.00  0.00    +0.049 A 
ATOM     24  C4  UNL     1      20.660   1.711  27.949  0.00  0.00    +0.024 A 
ATOM     25  C5  UNL     1      22.008   1.964  27.688  0.00  0.00    +0.043 A 
ATOM     26 CL1  UNL     1      23.231   1.492  28.854  0.00  0.00    -0.083 Cl
ATOM     27  C6  UNL     1      22.381   2.591  26.497  0.00  0.00    +0.047 A 
ATOM     28  C7  UNL     1      21.410   2.984  25.564  0.00  0.00    +0.077 A 
BRANCH  22  30
ATOM     29  C1  UNL     1      18.413   2.072  24.018  0.00  0.00    +0.277 C 
ATOM     30  O1  UNL     1      19.098   3.022  24.828  0.00  0.00    -0.493 OA
ENDBRANCH  22  30
ENDBRANCH  18  28
ENDBRANCH   1  19
TORSDOF 5
ENDMDL
MODEL 3
REMARK VINA RESULT:    -5.866     10.768     11.814
REMARK INTER + INTRA:          -8.413
REMARK INTER:                  -7.646
REMARK INTRA:                  -0.766
REMARK UNBOUND:                -0.832
REMARK  Name = /home/qwerty/github/datacon2025hack/step_04_hit_selection/docking/ligands/lig_729.pdb
REMARK  8 active torsions:
REMARK  status: ('A' for Active; 'I' for Inactive)
REMARK    1  A    between atoms: C1_1  and  O1_2
REMARK    2  A    between atoms: O1_2  and  C2_3
REMARK    3  A    between atoms: C7_9  and  N1_10
REMARK    4  A    between atoms: C8_11  and  C9_13
REMARK    5  A    between atoms: N2_15  and  C10_16
REMARK    6  A    between atoms: C12_18  and  C13_19
REMARK    7  A    between atoms: N3_20  and  C14_21
REMARK    8  A    between atoms: N5_24  and  C16_25
REMARK                            x       y       z     vdW  Elec       q    Type
REMARK                         _______ _______ _______ _____ _____    ______ ____
ROOT
ATOM      1  C9  UNL     1      20.749   3.893  24.074  0.00  0.00    +0.300 C 
ATOM      2  O3  UNL     1      19.521   3.679  23.888  0.00  0.00    -0.265 OA
ATOM      3  N2  UNL     1      21.465   4.768  23.191  0.00  0.00    -0.296 N 
ATOM      4  H8  UNL     1      22.482   4.941  23.362  0.00  0.00    +0.150 HD
ENDROOT
BRANCH   3   5
ATOM      5  C10 UNL     1      20.808   5.418  22.053  0.00  0.00    +0.162 C 
ATOM      6  C11 UNL     1      21.579   5.169  20.744  0.00  0.00    +0.054 C 
ATOM      7  C12 UNL     1      21.689   6.536  20.024  0.00  0.00    +0.081 C 
ATOM      8  C13 UNL     1      20.710   6.625  18.850  0.00  0.00    +0.028 C 
ATOM      9  N3  UNL     1      21.360   7.541  21.030  0.00  0.00    -0.264 N 
ATOM     10  C18 UNL     1      20.834   6.894  22.180  0.00  0.00    +0.240 C 
ATOM     11  O4  UNL     1      20.410   7.509  23.194  0.00  0.00    -0.273 OA
BRANCH   9  12
ATOM     12  C14 UNL     1      21.597   8.953  20.881  0.00  0.00    +0.074 A 
ATOM     13  C15 UNL     1      20.659   9.971  20.818  0.00  0.00    +0.157 A 
ATOM     14  N4  UNL     1      21.301  11.143  20.649  0.00  0.00    -0.178 NA
ATOM     15  N5  UNL     1      22.601  10.892  20.620  0.00  0.00    -0.273 N 
ATOM     16  C16 UNL     1      23.620  11.909  20.398  0.00  0.00    +0.172 C 
ATOM     17  C17 UNL     1      22.823   9.570  20.744  0.00  0.00    +0.131 A 
ENDBRANCH   9  12
ENDBRANCH   3   5
BRANCH   1  19
ATOM     18  N1  UNL     1      20.679   2.713  26.310  0.00  0.00    -0.275 N 
ATOM     19  C8  UNL     1      21.435   3.247  25.210  0.00  0.00    +0.303 C 
ATOM     20  O2  UNL     1      22.693   3.149  25.202  0.00  0.00    -0.265 OA
ATOM     21  H7  UNL     1      19.658   2.533  26.175  0.00  0.00    +0.155 HD
BRANCH  18  28
ATOM     22  C2  UNL     1      21.468   3.084  28.634  0.00  0.00    +0.141 A 
ATOM     23  C3  UNL     1      22.067   2.569  29.800  0.00  0.00    +0.049 A 
ATOM     24  C4  UNL     1      22.449   1.228  29.867  0.00  0.00    +0.024 A 
ATOM     25  C5  UNL     1      22.237   0.383  28.776  0.00  0.00    +0.043 A 
ATOM     26 CL1  UNL     1      22.703  -1.306  28.871  0.00  0.00    -0.083 Cl
ATOM     27  C6  UNL     1      21.652   0.884  27.611  0.00  0.00    +0.047 A 
ATOM     28  C7  UNL     1      21.288   2.235  27.521  0.00  0.00    +0.077 A 
BRANCH  22  30
ATOM     29  C1  UNL     1      21.239   5.399  29.562  0.00  0.00    +0.277 C 
ATOM     30  O1  UNL     1      21.022   4.413  28.558  0.00  0.00    -0.493 OA
ENDBRANCH  22  30
ENDBRANCH  18  28
ENDBRANCH   1  19
TORSDOF 5
ENDMDL
MODEL 4
REMARK VINA RESULT:    -5.840     12.351     14.782
REMARK INTER + INTRA:          -8.379
REMARK INTER:                  -7.615
REMARK INTRA:                  -0.764
REMARK UNBOUND:                -0.832
REMARK  Name = /home/qwerty/github/datacon2025hack/step_04_hit_selection/docking/ligands/lig_729.pdb
REMARK  8 active torsions:
REMARK  status: ('A' for Active; 'I' for Inactive)
REMARK    1  A    between atoms: C1_1  and  O1_2
REMARK    2  A    between atoms: O1_2  and  C2_3
REMARK    3  A    between atoms: C7_9  and  N1_10
REMARK    4  A    between atoms: C8_11  and  C9_13
REMARK    5  A    between atoms: N2_15  and  C10_16
REMARK    6  A    between atoms: C12_18  and  C13_19
REMARK    7  A    between atoms: N3_20  and  C14_21
REMARK    8  A    between atoms: N5_24  and  C16_25
REMARK                            x       y       z     vdW  Elec       q    Type
REMARK                         _______ _______ _______ _____ _____    ______ ____
ROOT
ATOM      1  C9  UNL     1      18.252   0.766  32.541  0.00  0.00    +0.300 C 
ATOM      2  O3  UNL     1      18.071  -0.481  32.512  0.00  0.00    -0.265 OA
ATOM      3  N2  UNL     1      19.093   1.390  31.559  0.00  0.00    -0.296 N 
ATOM      4  H8  UNL     1      19.229   2.427  31.592  0.00  0.00    +0.150 HD
ENDROOT
BRANCH   3   5
ATOM      5  C10 UNL     1      19.770   0.611  30.519  0.00  0.00    +0.162 C 
ATOM      6  C11 UNL     1      21.270   0.450  30.826  0.00  0.00    +0.054 C 
ATOM      7  C12 UNL     1      22.030   0.765  29.514  0.00  0.00    +0.081 C 
ATOM      8  C13 UNL     1      22.536  -0.517  28.845  0.00  0.00    +0.028 C 
ATOM      9  N3  UNL     1      21.065   1.435  28.648  0.00  0.00    -0.264 N 
ATOM     10  C18 UNL     1      19.770   1.323  29.219  0.00  0.00    +0.240 C 
ATOM     11  O4  UNL     1      18.725   1.759  28.669  0.00  0.00    -0.273 OA
BRANCH   9  12
ATOM     12  C14 UNL     1      21.406   2.145  27.443  0.00  0.00    +0.074 A 
ATOM     13  C15 UNL     1      21.086   1.808  26.138  0.00  0.00    +0.157 A 
ATOM     14  N4  UNL     1      21.621   2.725  25.308  0.00  0.00    -0.178 NA
ATOM     15  N5  UNL     1      22.246   3.627  26.051  0.00  0.00    -0.273 N 
ATOM     16  C16 UNL     1      22.994   4.751  25.505  0.00  0.00    +0.172 C 
ATOM     17  C17 UNL     1      22.151   3.303  27.354  0.00  0.00    +0.131 A 
ENDBRANCH   9  12
ENDBRANCH   3   5
BRANCH   1  19
ATOM     18  N1  UNL     1      18.038   1.521  34.944  0.00  0.00    -0.275 N 
ATOM     19  C8  UNL     1      17.586   1.573  33.580  0.00  0.00    +0.303 C 
ATOM     20  O2  UNL     1      16.626   2.328  33.262  0.00  0.00    -0.265 OA
ATOM     21  H7  UNL     1      18.991   1.140  35.141  0.00  0.00    +0.155 HD
BRANCH  18  28
ATOM     22  C2  UNL     1      16.332   1.440  36.745  0.00  0.00    +0.141 A 
ATOM     23  C3  UNL     1      15.665   2.087  37.804  0.00  0.00    +0.049 A 
ATOM     24  C4  UNL     1      16.004   3.393  38.162  0.00  0.00    +0.024 A 
ATOM     25  C5  UNL     1      17.014   4.069  37.474  0.00  0.00    +0.043 A 
ATOM     26 CL1  UNL     1      17.450   5.704  37.938  0.00  0.00    -0.083 Cl
ATOM     27  C6  UNL     1      17.677   3.441  36.417  0.00  0.00    +0.047 A 
ATOM     28  C7  UNL     1      17.327   2.139  36.029  0.00  0.00    +0.077 A 
BRANCH  22  30
ATOM     29  C1  UNL     1      16.558  -1.031  37.086  0.00  0.00    +0.277 C 
ATOM     30  O1  UNL     1      16.051   0.109  36.399  0.00  0.00    -0.493 OA
ENDBRANCH  22  30
ENDBRANCH  18  28
ENDBRANCH   1  19
TORSDOF 5
ENDMDL
MODEL 5
REMARK VINA RESULT:    -5.819     16.207     17.148
REMARK INTER + INTRA:          -8.352
REMARK INTER:                  -7.587
REMARK INTRA:                  -0.765
REMARK UNBOUND:                -0.832
REMARK  Name = /home/qwerty/github/datacon2025hack/step_04_hit_selection/docking/ligands/lig_729.pdb
REMARK  8 active torsions:
REMARK  status: ('A' for Active; 'I' for Inactive)
REMARK    1  A    between atoms: C1_1  and  O1_2
REMARK    2  A    between atoms: O1_2  and  C2_3
REMARK    3  A    between atoms: C7_9  and  N1_10
REMARK    4  A    between atoms: C8_11  and  C9_13
REMARK    5  A    between atoms: N2_15  and  C10_16
REMARK    6  A    between atoms: C12_18  and  C13_19
REMARK    7  A    between atoms: N3_20  and  C14_21
REMARK    8  A    between atoms: N5_24  and  C16_25
REMARK                            x       y       z     vdW  Elec       q    Type
REMARK                         _______ _______ _______ _____ _____    ______ ____
ROOT
ATOM      1  C9  UNL     1      18.975  11.247  34.767  0.00  0.00    +0.300 C 
ATOM      2  O3  UNL     1      19.573  12.239  34.272  0.00  0.00    -0.265 OA
ATOM      3  N2  UNL     1      17.605  11.370  35.180  0.00  0.00    -0.296 N 
ATOM      4  H8  UNL     1      17.120  10.536  35.582  0.00  0.00    +0.150 HD
ENDROOT
BRANCH   3   5
ATOM      5  C10 UNL     1      16.876  12.635  35.057  0.00  0.00    +0.162 C 
ATOM      6  C11 UNL     1      16.986  13.472  36.345  0.00  0.00    +0.054 C 
ATOM      7  C12 UNL     1      15.558  13.972  36.675  0.00  0.00    +0.081 C 
ATOM      8  C13 UNL     1      15.393  15.453  36.317  0.00  0.00    +0.028 C 
ATOM      9  N3  UNL     1      14.656  13.157  35.867  0.00  0.00    -0.264 N 
ATOM     10  C18 UNL     1      15.417  12.412  34.928  0.00  0.00    +0.240 C 
ATOM     11  O4  UNL     1      14.906  11.658  34.057  0.00  0.00    -0.273 OA
BRANCH   9  12
ATOM     12  C14 UNL     1      13.230  13.090  36.053  0.00  0.00    +0.074 A 
ATOM     13  C15 UNL     1      12.499  12.084  36.665  0.00  0.00    +0.157 A 
ATOM     14  N4  UNL     1      11.191  12.400  36.604  0.00  0.00    -0.178 NA
ATOM     15  N5  UNL     1      11.085  13.570  35.992  0.00  0.00    -0.273 N 
ATOM     16  C16 UNL     1       9.815  14.217  35.692  0.00  0.00    +0.172 C 
ATOM     17  C17 UNL     1      12.301  14.017  35.628  0.00  0.00    +0.131 A 
ENDBRANCH   9  12
ENDBRANCH   3   5
BRANCH   1  19
ATOM     18  N1  UNL     1      20.947   9.898  35.595  0.00  0.00    -0.275 N 
ATOM     19  C8  UNL     1      19.687   9.962  34.905  0.00  0.00    +0.303 C 
ATOM     20  O2  UNL     1      19.174   8.912  34.430  0.00  0.00    -0.265 OA
ATOM     21  H7  UNL     1      21.212  10.688  36.227  0.00  0.00    +0.155 HD
BRANCH  18  28
ATOM     22  C2  UNL     1      21.629   7.740  36.613  0.00  0.00    +0.141 A 
ATOM     23  C3  UNL     1      22.460   6.603  36.585  0.00  0.00    +0.049 A 
ATOM     24  C4  UNL     1      23.393   6.433  35.560  0.00  0.00    +0.024 A 
ATOM     25  C5  UNL     1      23.508   7.391  34.550  0.00  0.00    +0.043 A 
ATOM     26 CL1  UNL     1      24.669   7.165  33.254  0.00  0.00    -0.083 Cl
ATOM     27  C6  UNL     1      22.695   8.526  34.572  0.00  0.00    +0.047 A 
ATOM     28  C7  UNL     1      21.773   8.723  35.610  0.00  0.00    +0.077 A 
BRANCH  22  30
ATOM     29  C1  UNL     1      19.404   7.212  37.634  0.00  0.00    +0.277 C 
ATOM     30  O1  UNL     1      20.644   7.910  37.599  0.00  0.00    -0.493 OA
ENDBRANCH  22  30
ENDBRANCH  18  28
ENDBRANCH   1  19
TORSDOF 5
ENDMDL
MODEL 6
REMARK VINA RESULT:    -5.813     10.532     13.359
REMARK INTER + INTRA:          -8.344
REMARK INTER:                  -7.527
REMARK INTRA:                  -0.817
REMARK UNBOUND:                -0.832
REMARK  Name = /home/qwerty/github/datacon2025hack/step_04_hit_selection/docking/ligands/lig_729.pdb
REMARK  8 active torsions:
REMARK  status: ('A' for Active; 'I' for Inactive)
REMARK    1  A    between atoms: C1_1  and  O1_2
REMARK    2  A    between atoms: O1_2  and  C2_3
REMARK    3  A    between atoms: C7_9  and  N1_10
REMARK    4  A    between atoms: C8_11  and  C9_13
REMARK    5  A    between atoms: N2_15  and  C10_16
REMARK    6  A    between atoms: C12_18  and  C13_19
REMARK    7  A    between atoms: N3_20  and  C14_21
REMARK    8  A    between atoms: N5_24  and  C16_25
REMARK                            x       y       z     vdW  Elec       q    Type
REMARK                         _______ _______ _______ _____ _____    ______ ____
ROOT
ATOM      1  C9  UNL     1      13.715  14.161  27.458  0.00  0.00    +0.300 C 
ATOM      2  O3  UNL     1      13.474  14.900  26.466  0.00  0.00    -0.265 OA
ATOM      3  N2  UNL     1      12.692  13.292  27.968  0.00  0.00    -0.296 N 
ATOM      4  H8  UNL     1      12.908  12.681  28.788  0.00  0.00    +0.150 HD
ENDROOT
BRANCH   3   5
ATOM      5  C10 UNL     1      11.354  13.248  27.373  0.00  0.00    +0.162 C 
ATOM      6  C11 UNL     1      10.376  14.172  28.122  0.00  0.00    +0.054 C 
ATOM      7  C12 UNL     1       9.080  13.358  28.353  0.00  0.00    +0.081 C 
ATOM      8  C13 UNL     1       7.973  13.792  27.387  0.00  0.00    +0.028 C 
ATOM      9  N3  UNL     1       9.439  11.964  28.111  0.00  0.00    -0.264 N 
ATOM     10  C18 UNL     1      10.733  11.911  27.528  0.00  0.00    +0.240 C 
ATOM     11  O4  UNL     1      11.288  10.843  27.158  0.00  0.00    -0.273 OA
BRANCH   9  12
ATOM     12  C14 UNL     1       8.620  10.836  28.471  0.00  0.00    +0.074 A 
ATOM     13  C15 UNL     1       7.849  10.044  27.636  0.00  0.00    +0.157 A 
ATOM     14  N4  UNL     1       7.219   9.113  28.381  0.00  0.00    -0.178 NA
ATOM     15  N5  UNL     1       7.584   9.290  29.642  0.00  0.00    -0.273 N 
ATOM     16  C16 UNL     1       7.067   8.504  30.754  0.00  0.00    +0.172 C 
ATOM     17  C17 UNL     1       8.424  10.336  29.742  0.00  0.00    +0.131 A 
ENDBRANCH   9  12
ENDBRANCH   3   5
BRANCH   1  19
ATOM     18  N1  UNL     1      15.245  14.796  29.368  0.00  0.00    -0.275 N 
ATOM     19  C8  UNL     1      15.053  14.190  28.079  0.00  0.00    +0.303 C 
ATOM     20  O2  UNL     1      16.028  13.660  27.479  0.00  0.00    -0.265 OA
ATOM     21  H7  UNL     1      14.409  14.959  29.974  0.00  0.00    +0.155 HD
BRANCH  18  28
ATOM     22  C2  UNL     1      17.300  16.163  29.628  0.00  0.00    +0.141 A 
ATOM     23  C3  UNL     1      18.566  16.336  30.222  0.00  0.00    +0.049 A 
ATOM     24  C4  UNL     1      19.053  15.400  31.138  0.00  0.00    +0.024 A 
ATOM     25  C5  UNL     1      18.284  14.285  31.475  0.00  0.00    +0.043 A 
ATOM     26 CL1  UNL     1      18.891  13.121  32.640  0.00  0.00    -0.083 Cl
ATOM     27  C6  UNL     1      17.032  14.098  30.887  0.00  0.00    +0.047 A 
ATOM     28  C7  UNL     1      16.543  15.015  29.945  0.00  0.00    +0.077 A 
BRANCH  22  30
ATOM     29  C1  UNL     1      17.025  17.164  27.349  0.00  0.00    +0.277 C 
ATOM     30  O1  UNL     1      16.762  17.114  28.747  0.00  0.00    -0.493 OA
ENDBRANCH  22  30
ENDBRANCH  18  28
ENDBRANCH   1  19
TORSDOF 5
ENDMDL
MODEL 7
REMARK VINA RESULT:    -5.784      1.855      2.433
REMARK INTER + INTRA:          -8.307
REMARK INTER:                  -7.495
REMARK INTRA:                  -0.813
REMARK UNBOUND:                -0.832
REMARK  Name = /home/qwerty/github/datacon2025hack/step_04_hit_selection/docking/ligands/lig_729.pdb
REMARK  8 active torsions:
REMARK  status: ('A' for Active; 'I' for Inactive)
REMARK    1  A    between atoms: C1_1  and  O1_2
REMARK    2  A    between atoms: O1_2  and  C2_3
REMARK    3  A    between atoms: C7_9  and  N1_10
REMARK    4  A    between atoms: C8_11  and  C9_13
REMARK    5  A    between atoms: N2_15  and  C10_16
REMARK    6  A    between atoms: C12_18  and  C13_19
REMARK    7  A    between atoms: N3_20  and  C14_21
REMARK    8  A    between atoms: N5_24  and  C16_25
REMARK                            x       y       z     vdW  Elec       q    Type
REMARK                         _______ _______ _______ _____ _____    ______ ____
ROOT
ATOM      1  C9  UNL     1      12.232   2.707  23.758  0.00  0.00    +0.300 C 
ATOM      2  O3  UNL     1      11.809   2.858  24.935  0.00  0.00    -0.265 OA
ATOM      3  N2  UNL     1      11.485   3.240  22.654  0.00  0.00    -0.296 N 
ATOM      4  H8  UNL     1      11.853   3.113  21.684  0.00  0.00    +0.150 HD
ENDROOT
BRANCH   3   5
ATOM      5  C10 UNL     1      10.219   3.951  22.855  0.00  0.00    +0.162 C 
ATOM      6  C11 UNL     1       9.197   3.595  21.760  0.00  0.00    +0.054 C 
ATOM      7  C12 UNL     1       8.579   4.930  21.275  0.00  0.00    +0.081 C 
ATOM      8  C13 UNL     1       7.167   5.123  21.837  0.00  0.00    +0.028 C 
ATOM      9  N3  UNL     1       9.464   5.979  21.772  0.00  0.00    -0.264 N 
ATOM     10  C18 UNL     1      10.385   5.415  22.693  0.00  0.00    +0.240 C 
ATOM     11  O4  UNL     1      11.239   6.089  23.327  0.00  0.00    -0.273 OA
BRANCH   9  12
ATOM     12  C14 UNL     1       9.429   7.350  21.334  0.00  0.00    +0.074 A 
ATOM     13  C15 UNL     1      10.237   7.963  20.390  0.00  0.00    +0.157 A 
ATOM     14  N4  UNL     1       9.890   9.262  20.298  0.00  0.00    -0.178 NA
ATOM     15  N5  UNL     1       8.888   9.473  21.139  0.00  0.00    -0.273 N 
ATOM     16  C16 UNL     1       8.275  10.776  21.360  0.00  0.00    +0.172 C 
ATOM     17  C17 UNL     1       8.586   8.340  21.798  0.00  0.00    +0.131 A 
ENDBRANCH   9  12
ENDBRANCH   3   5
BRANCH   1  19
ATOM     18  N1  UNL     1      13.539   0.824  22.691  0.00  0.00    -0.275 N 
ATOM     19  C8  UNL     1      13.502   1.991  23.528  0.00  0.00    +0.303 C 
ATOM     20  O2  UNL     1      14.563   2.423  24.057  0.00  0.00    -0.265 OA
ATOM     21  H7  UNL     1      12.743   0.653  22.035  0.00  0.00    +0.155 HD
BRANCH  18  28
ATOM     22  C2  UNL     1      15.617   0.150  21.512  0.00  0.00    +0.141 A 
ATOM     23  C3  UNL     1      16.740  -0.696  21.437  0.00  0.00    +0.049 A 
ATOM     24  C4  UNL     1      16.960  -1.669  22.414  0.00  0.00    +0.024 A 
ATOM     25  C5  UNL     1      16.068  -1.808  23.479  0.00  0.00    +0.043 A 
ATOM     26 CL1  UNL     1      16.357  -3.019  24.715  0.00  0.00    -0.083 Cl
ATOM     27  C6  UNL     1      14.946  -0.980  23.559  0.00  0.00    +0.047 A 
ATOM     28  C7  UNL     1      14.698  -0.017  22.570  0.00  0.00    +0.077 A 
BRANCH  22  30
ATOM     29  C1  UNL     1      16.312   2.232  20.305  0.00  0.00    +0.277 C 
ATOM     30  O1  UNL     1      15.400   1.173  20.575  0.00  0.00    -0.493 OA
ENDBRANCH  22  30
ENDBRANCH  18  28
ENDBRANCH   1  19
TORSDOF 5
ENDMDL
MODEL 8
REMARK VINA RESULT:    -5.755      6.942      9.409
REMARK INTER + INTRA:          -8.269
REMARK INTER:                  -7.561
REMARK INTRA:                  -0.708
REMARK UNBOUND:                -0.832
REMARK  Name = /home/qwerty/github/datacon2025hack/step_04_hit_selection/docking/ligands/lig_729.pdb
REMARK  8 active torsions:
REMARK  status: ('A' for Active; 'I' for Inactive)
REMARK    1  A    between atoms: C1_1  and  O1_2
REMARK    2  A    between atoms: O1_2  and  C2_3
REMARK    3  A    between atoms: C7_9  and  N1_10
REMARK    4  A    between atoms: C8_11  and  C9_13
REMARK    5  A    between atoms: N2_15  and  C10_16
REMARK    6  A    between atoms: C12_18  and  C13_19
REMARK    7  A    between atoms: N3_20  and  C14_21
REMARK    8  A    between atoms: N5_24  and  C16_25
REMARK                            x       y       z     vdW  Elec       q    Type
REMARK                         _______ _______ _______ _____ _____    ______ ____
ROOT
ATOM      1  C9  UNL     1       8.737   9.788  25.413  0.00  0.00    +0.300 C 
ATOM      2  O3  UNL     1       7.620   9.385  25.834  0.00  0.00    -0.265 OA
ATOM      3  N2  UNL     1       9.515  10.697  26.205  0.00  0.00    -0.296 N 
ATOM      4  H8  UNL     1      10.443  11.017  25.845  0.00  0.00    +0.150 HD
ENDROOT
BRANCH   3   5
ATOM      5  C10 UNL     1       9.039  11.191  27.500  0.00  0.00    +0.162 C 
ATOM      6  C11 UNL     1       8.199  12.470  27.337  0.00  0.00    +0.054 C 
ATOM      7  C12 UNL     1       8.704  13.475  28.402  0.00  0.00    +0.081 C 
ATOM      8  C13 UNL     1       7.726  13.576  29.576  0.00  0.00    +0.028 C 
ATOM      9  N3  UNL     1       9.987  12.952  28.861  0.00  0.00    -0.264 N 
ATOM     10  C18 UNL     1      10.161  11.636  28.359  0.00  0.00    +0.240 C 
ATOM     11  O4  UNL     1      11.152  10.909  28.635  0.00  0.00    -0.273 OA
BRANCH   9  12
ATOM     12  C14 UNL     1      10.937  13.697  29.646  0.00  0.00    +0.074 A 
ATOM     13  C15 UNL     1      11.968  14.504  29.193  0.00  0.00    +0.157 A 
ATOM     14  N4  UNL     1      12.635  14.994  30.256  0.00  0.00    -0.178 NA
ATOM     15  N5  UNL     1      12.048  14.533  31.350  0.00  0.00    -0.273 N 
ATOM     16  C16 UNL     1      12.520  14.803  32.701  0.00  0.00    +0.172 C 
ATOM     17  C17 UNL     1      11.019  13.729  31.023  0.00  0.00    +0.131 A 
ENDBRANCH   9  12
ENDBRANCH   3   5
BRANCH   1  19
ATOM     18  N1  UNL     1       9.262   7.903  23.810  0.00  0.00    -0.275 N 
ATOM     19  C8  UNL     1       9.238   9.309  24.110  0.00  0.00    +0.303 C 
ATOM     20  O2  UNL     1       9.629  10.145  23.249  0.00  0.00    -0.265 OA
ATOM     21  H7  UNL     1       8.676   7.258  24.389  0.00  0.00    +0.155 HD
BRANCH  18  28
ATOM     22  C2  UNL     1       9.168   7.118  21.458  0.00  0.00    +0.141 A 
ATOM     23  C3  UNL     1       9.836   6.589  20.336  0.00  0.00    +0.049 A 
ATOM     24  C4  UNL     1      11.209   6.339  20.381  0.00  0.00    +0.024 A 
ATOM     25  C5  UNL     1      11.934   6.616  21.543  0.00  0.00    +0.043 A 
ATOM     26 CL1  UNL     1      13.662   6.317  21.590  0.00  0.00    -0.083 Cl
ATOM     27  C6  UNL     1      11.281   7.132  22.664  0.00  0.00    +0.047 A 
ATOM     28  C7  UNL     1       9.898   7.362  22.641  0.00  0.00    +0.077 A 
BRANCH  22  30
ATOM     29  C1  UNL     1       6.773   6.534  21.013  0.00  0.00    +0.277 C 
ATOM     30  O1  UNL     1       7.800   7.431  21.423  0.00  0.00    -0.493 OA
ENDBRANCH  22  30
ENDBRANCH  18  28
ENDBRANCH   1  19
TORSDOF 5
ENDMDL
MODEL 9
REMARK VINA RESULT:    -5.691     11.665     13.778
REMARK INTER + INTRA:          -8.186
REMARK INTER:                  -7.370
REMARK INTRA:                  -0.816
REMARK UNBOUND:                -0.832
REMARK  Name = /home/qwerty/github/datacon2025hack/step_04_hit_selection/docking/ligands/lig_729.pdb
REMARK  8 active torsions:
REMARK  status: ('A' for Active; 'I' for Inactive)
REMARK    1  A    between atoms: C1_1  and  O1_2
REMARK    2  A    between atoms: O1_2  and  C2_3
REMARK    3  A    between atoms: C7_9  and  N1_10
REMARK    4  A    between atoms: C8_11  and  C9_13
REMARK    5  A    between atoms: N2_15  and  C10_16
REMARK    6  A    between atoms: C12_18  and  C13_19
REMARK    7  A    between atoms: N3_20  and  C14_21
REMARK    8  A    between atoms: N5_24  and  C16_25
REMARK                            x       y       z     vdW  Elec       q    Type
REMARK                         _______ _______ _______ _____ _____    ______ ____
ROOT
ATOM      1  C9  UNL     1      12.254  13.385  31.325  0.00  0.00    +0.300 C 
ATOM      2  O3  UNL     1      12.654  14.419  30.727  0.00  0.00    -0.265 OA
ATOM      3  N2  UNL     1      11.215  12.581  30.747  0.00  0.00    -0.296 N 
ATOM      4  H8  UNL     1      10.897  11.722  31.251  0.00  0.00    +0.150 HD
ENDROOT
BRANCH   3   5
ATOM      5  C10 UNL     1      10.585  12.938  29.473  0.00  0.00    +0.162 C 
ATOM      6  C11 UNL     1       9.177  13.522  29.688  0.00  0.00    +0.054 C 
ATOM      7  C12 UNL     1       8.243  12.821  28.670  0.00  0.00    +0.081 C 
ATOM      8  C13 UNL     1       7.907  13.747  27.497  0.00  0.00    +0.028 C 
ATOM      9  N3  UNL     1       8.980  11.655  28.194  0.00  0.00    -0.264 N 
ATOM     10  C18 UNL     1      10.326  11.741  28.639  0.00  0.00    +0.240 C 
ATOM     11  O4  UNL     1      11.215  10.902  28.336  0.00  0.00    -0.273 OA
BRANCH   9  12
ATOM     12  C14 UNL     1       8.397  10.571  27.447  0.00  0.00    +0.074 A 
ATOM     13  C15 UNL     1       8.227  10.479  26.075  0.00  0.00    +0.157 A 
ATOM     14  N4  UNL     1       7.617   9.312  25.791  0.00  0.00    -0.178 NA
ATOM     15  N5  UNL     1       7.418   8.670  26.933  0.00  0.00    -0.273 N 
ATOM     16  C16 UNL     1       6.733   7.389  27.036  0.00  0.00    +0.172 C 
ATOM     17  C17 UNL     1       7.865   9.408  27.965  0.00  0.00    +0.131 A 
ENDBRANCH   9  12
ENDBRANCH   3   5
BRANCH   1  19
ATOM     18  N1  UNL     1      13.479  14.001  33.450  0.00  0.00    -0.275 N 
ATOM     19  C8  UNL     1      12.868  13.005  32.612  0.00  0.00    +0.303 C 
ATOM     20  O2  UNL     1      12.837  11.800  32.983  0.00  0.00    -0.265 OA
ATOM     21  H7  UNL     1      13.243  15.006  33.285  0.00  0.00    +0.155 HD
BRANCH  18  28
ATOM     22  C2  UNL     1      13.634  13.556  35.886  0.00  0.00    +0.141 A 
ATOM     23  C3  UNL     1      14.427  13.232  37.005  0.00  0.00    +0.049 A 
ATOM     24  C4  UNL     1      15.797  13.002  36.859  0.00  0.00    +0.024 A 
ATOM     25  C5  UNL     1      16.392  13.088  35.599  0.00  0.00    +0.043 A 
ATOM     26 CL1  UNL     1      18.110  12.780  35.417  0.00  0.00    -0.083 Cl
ATOM     27  C6  UNL     1      15.617  13.416  34.484  0.00  0.00    +0.047 A 
ATOM     28  C7  UNL     1      14.246  13.676  34.621  0.00  0.00    +0.077 A 
BRANCH  22  30
ATOM     29  C1  UNL     1      11.297  12.681  36.097  0.00  0.00    +0.277 C 
ATOM     30  O1  UNL     1      12.246  13.737  35.993  0.00  0.00    -0.493 OA
ENDBRANCH  22  30
ENDBRANCH  18  28
ENDBRANCH   1  19
TORSDOF 5
ENDMDL
