REMARK  Name = /home/qwerty/github/datacon2025hack/step_04_hit_selection/docking/ligands/lig_389.pdb
REMARK  3 active torsions:
REMARK  status: ('A' for Active; 'I' for Inactive)
REMARK    1  A    between atoms: C1_1  and  C2_2
REMARK    2  A    between atoms: N2_7  and  C5_8
REMARK    3  A    between atoms: C8_11  and  N3_12
REMARK                            x       y       z     vdW  Elec       q    Type
REMARK                         _______ _______ _______ _____ _____    ______ ____
ROOT
ATOM      1  C5  UNL     1      -0.061   0.352  -0.726  0.00  0.00    +0.044 A 
ATOM      2  C6  UNL     1      -1.084   1.071  -1.353  0.00  0.00    +0.026 A 
ATOM      3  C7  UNL     1      -2.421   0.754  -1.122  0.00  0.00    +0.025 A 
ATOM      4  C8  UNL     1      -2.767  -0.296  -0.267  0.00  0.00    +0.038 A 
ATOM      5  C13 UNL     1      -1.751  -1.063   0.349  0.00  0.00    +0.008 A 
ATOM      6  C14 UNL     1      -2.061  -2.150   1.187  0.00  0.00    +0.030 A 
ATOM      7  C15 UNL     1      -1.033  -2.904   1.751  0.00  0.00    +0.111 A 
ATOM      8  N4  UNL     1       0.262  -2.600   1.487  0.00  0.00    -0.263 NA
ATOM      9  C16 UNL     1       0.606  -1.557   0.688  0.00  0.00    +0.121 A 
ATOM     10  C17 UNL     1      -0.388  -0.744   0.109  0.00  0.00    +0.023 A 
ENDROOT
BRANCH   1  17
ATOM     11  C1  UNL     1       5.807  -0.657   0.083  0.00  0.00    +0.029 C 
ATOM     12  C2  UNL     1       5.687   0.453  -0.967  0.00  0.00    +0.087 C 
ATOM     13  C3  UNL     1       4.221   0.782  -1.281  0.00  0.00    +0.131 C 
ATOM     14  N1  UNL     1       3.558   1.429  -0.135  0.00  0.00    -0.275 N 
ATOM     15  C4  UNL     1       2.151   1.215   0.093  0.00  0.00    +0.307 C 
ATOM     16  O1  UNL     1       1.658   1.457   1.230  0.00  0.00    -0.252 OA
ATOM     17  N2  UNL     1       1.298   0.745  -0.964  0.00  0.00    -0.269 N 
ATOM     18  C18 UNL     1       4.272   2.370   0.750  0.00  0.00    +0.205 C 
ATOM     19  C19 UNL     1       5.698   2.596   0.335  0.00  0.00    +0.231 C 
ATOM     20  O3  UNL     1       6.316   3.610   0.756  0.00  0.00    -0.274 OA
ATOM     21  N5  UNL     1       6.369   1.655  -0.504  0.00  0.00    -0.310 N 
ATOM     22  H7  UNL     1       1.588   0.919  -1.952  0.00  0.00    +0.156 HD
ATOM     23  H23 UNL     1       7.341   1.854  -0.832  0.00  0.00    +0.149 HD
ENDBRANCH   1  17
BRANCH   4  24
ATOM     24  N3  UNL     1      -4.158  -0.573  -0.053  0.00  0.00    -0.325 N 
ATOM     25  C9  UNL     1      -4.839  -1.576  -0.872  0.00  0.00    +0.133 C 
ATOM     26  C10 UNL     1      -6.310  -1.183  -1.043  0.00  0.00    +0.178 C 
ATOM     27  O2  UNL     1      -6.908  -0.912   0.212  0.00  0.00    -0.377 OA
ATOM     28  C11 UNL     1      -6.307   0.231   0.793  0.00  0.00    +0.178 C 
ATOM     29  C12 UNL     1      -4.837  -0.038   1.128  0.00  0.00    +0.133 C 
ENDBRANCH   4  24
TORSDOF 2
