MODEL 1
REMARK VINA RESULT:    -8.808      0.000      0.000
REMARK INTER + INTRA:         -12.472
REMARK INTER:                 -11.382
REMARK INTRA:                  -1.090
REMARK UNBOUND:                -1.090
REMARK  Name = /home/qwerty/github/datacon2025hack/step_04_hit_selection/docking/ligands/lig_699.pdb
REMARK  5 active torsions:
REMARK  status: ('A' for Active; 'I' for Inactive)
REMARK    1  A    between atoms: C1_2  and  C11_15
REMARK    2  A    between atoms: N1_3  and  C2_4
REMARK    3  A    between atoms: C5_8  and  C6_10
REMARK    4  A    between atoms: C13_17  and  C14_18
REMARK    5  A    between atoms: C17_24  and  C18_25
REMARK                            x       y       z     vdW  Elec       q    Type
REMARK                         _______ _______ _______ _____ _____    ______ ____
ROOT
ATOM      1  C11 UNL     1       9.535   3.804  23.427  0.00  0.00    +0.046 A 
ATOM      2  C12 UNL     1      10.801   3.538  22.870  0.00  0.00    +0.041 A 
ATOM      3  C13 UNL     1      11.057   3.856  21.508  0.00  0.00    +0.074 A 
ATOM      4  N7  UNL     1      10.049   4.398  20.758  0.00  0.00    -0.249 NA
ATOM      5  C29 UNL     1       8.835   4.642  21.307  0.00  0.00    +0.074 A 
ATOM      6  C30 UNL     1       8.566   4.377  22.595  0.00  0.00    +0.014 A 
ATOM      7  C31 UNL     1       7.149   4.720  22.844  0.00  0.00    +0.198 C 
ATOM      8  O3  UNL     1       6.593   5.146  21.604  0.00  0.00    -0.369 OA
ATOM      9  C32 UNL     1       7.639   5.172  20.642  0.00  0.00    +0.215 C 
ENDROOT
BRANCH   3  10
ATOM     10  C14 UNL     1      12.396   3.667  20.879  0.00  0.00    +0.019 A 
ATOM     11  C15 UNL     1      12.891   4.531  19.856  0.00  0.00    +0.123 A 
ATOM     12  N3  UNL     1      14.125   4.327  19.300  0.00  0.00    -0.235 NA
ATOM     13  C16 UNL     1      14.869   3.277  19.720  0.00  0.00    +0.156 A 
ATOM     14  N4  UNL     1      16.112   2.963  19.328  0.00  0.00    -0.260 N 
ATOM     15  N5  UNL     1      16.511   1.906  20.027  0.00  0.00    -0.171 NA
ATOM     16  C17 UNL     1      15.505   1.542  20.866  0.00  0.00    +0.102 A 
ATOM     17  C27 UNL     1      14.447   2.421  20.687  0.00  0.00    +0.047 A 
ATOM     18  C28 UNL     1      13.219   2.598  21.313  0.00  0.00    +0.025 A 
ATOM     19  H18 UNL     1      16.691   3.462  18.614  0.00  0.00    +0.191 HD
BRANCH  16  20
ATOM     20  C18 UNL     1      15.598   0.425  21.829  0.00  0.00    +0.003 A 
ATOM     21  C19 UNL     1      16.588  -0.565  21.694  0.00  0.00    +0.012 A 
ATOM     22  C20 UNL     1      16.646  -1.640  22.584  0.00  0.00    +0.029 A 
ATOM     23  C21 UNL     1      15.725  -1.733  23.631  0.00  0.00    +0.071 A 
ATOM     24  N6  UNL     1      15.771  -2.786  24.491  0.00  0.00    -0.255 NA
ATOM     25  C22 UNL     1      14.892  -2.906  25.521  0.00  0.00    +0.111 A 
ATOM     26  C23 UNL     1      13.911  -1.931  25.723  0.00  0.00    +0.020 A 
ATOM     27  C24 UNL     1      13.839  -0.836  24.859  0.00  0.00    +0.011 A 
ATOM     28  C25 UNL     1      14.745  -0.728  23.797  0.00  0.00    +0.001 A 
ATOM     29  C26 UNL     1      14.691   0.350  22.900  0.00  0.00    +0.020 A 
ENDBRANCH  16  20
ENDBRANCH   3  10
BRANCH   1  31
ATOM     30  O1  UNL     1       9.530   4.326  25.730  0.00  0.00    -0.270 OA
ATOM     31  C1  UNL     1       9.254   3.481  24.836  0.00  0.00    +0.245 C 
ATOM     32  N1  UNL     1       8.642   2.229  25.185  0.00  0.00    -0.308 N 
ATOM     33  H1  UNL     1       8.271   1.633  24.410  0.00  0.00    +0.149 HD
BRANCH  32  34
ATOM     34  C2  UNL     1       8.512   1.764  26.571  0.00  0.00    +0.076 C 
ATOM     35  C3  UNL     1       9.671   0.814  26.912  0.00  0.00    +0.041 C 
ATOM     36  C4  UNL     1       9.553   0.308  28.352  0.00  0.00    +0.109 C 
ATOM     37  N2  UNL     1       8.196  -0.183  28.650  0.00  0.00    -0.301 N 
ATOM     38  C5  UNL     1       7.909  -0.766  29.941  0.00  0.00    +0.219 C 
ATOM     39  O2  UNL     1       6.717  -0.832  30.348  0.00  0.00    -0.275 OA
ATOM     40  C9  UNL     1       7.183  -0.224  27.585  0.00  0.00    +0.109 C 
ATOM     41  C10 UNL     1       7.132   1.095  26.795  0.00  0.00    +0.041 C 
BRANCH  38  42
ATOM     42  C6  UNL     1       9.008  -1.287  30.828  0.00  0.00    +0.075 C 
ATOM     43  C7  UNL     1       8.543  -1.751  32.205  0.00  0.00    +0.013 C 
ATOM     44  C8  UNL     1       9.283  -0.432  32.062  0.00  0.00    +0.013 C 
ENDBRANCH  38  42
ENDBRANCH  32  34
ENDBRANCH   1  31
TORSDOF 5
ENDMDL
MODEL 2
REMARK VINA RESULT:    -8.601     12.805     15.542
REMARK INTER + INTRA:         -12.205
REMARK INTER:                 -11.139
REMARK INTRA:                  -1.066
REMARK UNBOUND:                -1.090
REMARK  Name = /home/qwerty/github/datacon2025hack/step_04_hit_selection/docking/ligands/lig_699.pdb
REMARK  5 active torsions:
REMARK  status: ('A' for Active; 'I' for Inactive)
REMARK    1  A    between atoms: C1_2  and  C11_15
REMARK    2  A    between atoms: N1_3  and  C2_4
REMARK    3  A    between atoms: C5_8  and  C6_10
REMARK    4  A    between atoms: C13_17  and  C14_18
REMARK    5  A    between atoms: C17_24  and  C18_25
REMARK                            x       y       z     vdW  Elec       q    Type
REMARK                         _______ _______ _______ _____ _____    ______ ____
ROOT
ATOM      1  C11 UNL     1      14.602  12.105  34.910  0.00  0.00    +0.046 A 
ATOM      2  C12 UNL     1      14.409  12.662  33.630  0.00  0.00    +0.041 A 
ATOM      3  C13 UNL     1      13.106  13.050  33.216  0.00  0.00    +0.074 A 
ATOM      4  N7  UNL     1      12.057  12.851  34.071  0.00  0.00    -0.249 NA
ATOM      5  C29 UNL     1      12.259  12.309  35.296  0.00  0.00    +0.074 A 
ATOM      6  C30 UNL     1      13.478  11.953  35.729  0.00  0.00    +0.014 A 
ATOM      7  C31 UNL     1      13.329  11.361  37.076  0.00  0.00    +0.198 C 
ATOM      8  O3  UNL     1      11.936  11.339  37.376  0.00  0.00    -0.369 OA
ATOM      9  C32 UNL     1      11.250  11.987  36.312  0.00  0.00    +0.215 C 
ENDROOT
BRANCH   3  10
ATOM     10  C14 UNL     1      12.845  13.711  31.904  0.00  0.00    +0.019 A 
ATOM     11  C15 UNL     1      13.573  14.859  31.466  0.00  0.00    +0.123 A 
ATOM     12  N3  UNL     1      13.306  15.440  30.256  0.00  0.00    -0.235 NA
ATOM     13  C16 UNL     1      12.324  14.922  29.481  0.00  0.00    +0.156 A 
ATOM     14  N4  UNL     1      11.970  15.327  28.254  0.00  0.00    -0.260 N 
ATOM     15  N5  UNL     1      11.015  14.516  27.811  0.00  0.00    -0.171 NA
ATOM     16  C17 UNL     1      10.757  13.592  28.774  0.00  0.00    +0.102 A 
ATOM     17  C27 UNL     1      11.598  13.834  29.849  0.00  0.00    +0.047 A 
ATOM     18  C28 UNL     1      11.848  13.180  31.050  0.00  0.00    +0.025 A 
ATOM     19  H18 UNL     1      12.375  16.125  27.713  0.00  0.00    +0.191 HD
BRANCH  16  20
ATOM     20  C18 UNL     1       9.773  12.498  28.624  0.00  0.00    +0.003 A 
ATOM     21  C19 UNL     1       8.843  12.219  29.640  0.00  0.00    +0.012 A 
ATOM     22  C20 UNL     1       7.942  11.158  29.508  0.00  0.00    +0.029 A 
ATOM     23  C21 UNL     1       7.950  10.372  28.353  0.00  0.00    +0.071 A 
ATOM     24  N6  UNL     1       7.083   9.331  28.229  0.00  0.00    -0.255 NA
ATOM     25  C22 UNL     1       7.062   8.548  27.118  0.00  0.00    +0.111 A 
ATOM     26  C23 UNL     1       7.942   8.805  26.062  0.00  0.00    +0.020 A 
ATOM     27  C24 UNL     1       8.841   9.868  26.158  0.00  0.00    +0.011 A 
ATOM     28  C25 UNL     1       8.859  10.663  27.311  0.00  0.00    +0.001 A 
ATOM     29  C26 UNL     1       9.761  11.729  27.447  0.00  0.00    +0.020 A 
ENDBRANCH  16  20
ENDBRANCH   3  10
BRANCH   1  31
ATOM     30  O1  UNL     1      16.737  12.569  35.807  0.00  0.00    -0.270 OA
ATOM     31  C1  UNL     1      15.947  11.698  35.354  0.00  0.00    +0.245 C 
ATOM     32  N1  UNL     1      16.340  10.318  35.300  0.00  0.00    -0.308 N 
ATOM     33  H1  UNL     1      15.605   9.607  35.085  0.00  0.00    +0.149 HD
BRANCH  32  34
ATOM     34  C2  UNL     1      17.718   9.872  35.543  0.00  0.00    +0.076 C 
ATOM     35  C3  UNL     1      18.089   8.763  34.546  0.00  0.00    +0.041 C 
ATOM     36  C4  UNL     1      19.521   8.274  34.783  0.00  0.00    +0.109 C 
ATOM     37  N2  UNL     1      19.770   7.985  36.206  0.00  0.00    -0.301 N 
ATOM     38  C5  UNL     1      21.046   7.446  36.618  0.00  0.00    +0.219 C 
ATOM     39  O2  UNL     1      21.414   7.552  37.820  0.00  0.00    -0.275 OA
ATOM     40  C9  UNL     1      18.672   8.094  37.179  0.00  0.00    +0.109 C 
ATOM     41  C10 UNL     1      17.891   9.409  37.012  0.00  0.00    +0.041 C 
BRANCH  38  42
ATOM     42  C6  UNL     1      21.964   6.767  35.636  0.00  0.00    +0.075 C 
ATOM     43  C7  UNL     1      23.385   6.549  36.146  0.00  0.00    +0.013 C 
ATOM     44  C8  UNL     1      23.107   7.645  35.131  0.00  0.00    +0.013 C 
ENDBRANCH  38  42
ENDBRANCH  32  34
ENDBRANCH   1  31
TORSDOF 5
ENDMDL
MODEL 3
REMARK VINA RESULT:    -8.514      6.900     11.534
REMARK INTER + INTRA:         -12.093
REMARK INTER:                 -10.979
REMARK INTRA:                  -1.114
REMARK UNBOUND:                -1.090
REMARK  Name = /home/qwerty/github/datacon2025hack/step_04_hit_selection/docking/ligands/lig_699.pdb
REMARK  5 active torsions:
REMARK  status: ('A' for Active; 'I' for Inactive)
REMARK    1  A    between atoms: C1_2  and  C11_15
REMARK    2  A    between atoms: N1_3  and  C2_4
REMARK    3  A    between atoms: C5_8  and  C6_10
REMARK    4  A    between atoms: C13_17  and  C14_18
REMARK    5  A    between atoms: C17_24  and  C18_25
REMARK                            x       y       z     vdW  Elec       q    Type
REMARK                         _______ _______ _______ _____ _____    ______ ____
ROOT
ATOM      1  C11 UNL     1      10.030   6.728  22.628  0.00  0.00    +0.046 A 
ATOM      2  C12 UNL     1       9.500   6.906  23.921  0.00  0.00    +0.041 A 
ATOM      3  C13 UNL     1       8.962   8.166  24.299  0.00  0.00    +0.074 A 
ATOM      4  N7  UNL     1       8.993   9.193  23.396  0.00  0.00    -0.249 NA
ATOM      5  C29 UNL     1       9.510   9.007  22.158  0.00  0.00    +0.074 A 
ATOM      6  C30 UNL     1      10.005   7.825  21.759  0.00  0.00    +0.014 A 
ATOM      7  C31 UNL     1      10.522   7.988  20.383  0.00  0.00    +0.198 C 
ATOM      8  O3  UNL     1      10.353   9.357  20.027  0.00  0.00    -0.369 OA
ATOM      9  C32 UNL     1       9.662  10.002  21.090  0.00  0.00    +0.215 C 
ENDROOT
BRANCH   3  10
ATOM     10  C14 UNL     1       8.322   8.399  25.627  0.00  0.00    +0.019 A 
ATOM     11  C15 UNL     1       7.312   7.538  26.152  0.00  0.00    +0.123 A 
ATOM     12  N3  UNL     1       6.746   7.783  27.374  0.00  0.00    -0.235 NA
ATOM     13  C16 UNL     1       7.144   8.870  28.076  0.00  0.00    +0.156 A 
ATOM     14  N4  UNL     1       6.740   9.228  29.303  0.00  0.00    -0.260 N 
ATOM     15  N5  UNL     1       7.418  10.313  29.661  0.00  0.00    -0.171 NA
ATOM     16  C17 UNL     1       8.256  10.650  28.644  0.00  0.00    +0.102 A 
ATOM     17  C27 UNL     1       8.098   9.725  27.624  0.00  0.00    +0.047 A 
ATOM     18  C28 UNL     1       8.734   9.508  26.407  0.00  0.00    +0.025 A 
ATOM     19  H18 UNL     1       6.032   8.742  29.900  0.00  0.00    +0.191 HD
BRANCH  16  20
ATOM     20  C18 UNL     1       9.198  11.788  28.695  0.00  0.00    +0.003 A 
ATOM     21  C19 UNL     1       9.081  12.865  27.799  0.00  0.00    +0.012 A 
ATOM     22  C20 UNL     1       9.998  13.918  27.827  0.00  0.00    +0.029 A 
ATOM     23  C21 UNL     1      11.037  13.917  28.762  0.00  0.00    +0.071 A 
ATOM     24  N6  UNL     1      11.939  14.935  28.782  0.00  0.00    -0.255 NA
ATOM     25  C22 UNL     1      12.960  14.966  29.679  0.00  0.00    +0.111 A 
ATOM     26  C23 UNL     1      13.101  13.939  30.618  0.00  0.00    +0.020 A 
ATOM     27  C24 UNL     1      12.189  12.883  30.625  0.00  0.00    +0.011 A 
ATOM     28  C25 UNL     1      11.147  12.857  29.690  0.00  0.00    +0.001 A 
ATOM     29  C26 UNL     1      10.222  11.802  29.658  0.00  0.00    +0.020 A 
ENDBRANCH  16  20
ENDBRANCH   3  10
BRANCH   1  31
ATOM     30  O1  UNL     1       9.810   4.466  21.985  0.00  0.00    -0.270 OA
ATOM     31  C1  UNL     1      10.590   5.428  22.221  0.00  0.00    +0.245 C 
ATOM     32  N1  UNL     1      12.008   5.268  22.063  0.00  0.00    -0.308 N 
ATOM     33  H1  UNL     1      12.605   6.126  22.097  0.00  0.00    +0.149 HD
BRANCH  32  34
ATOM     34  C2  UNL     1      12.644   3.962  21.850  0.00  0.00    +0.076 C 
ATOM     35  C3  UNL     1      13.912   3.855  22.711  0.00  0.00    +0.041 C 
ATOM     36  C4  UNL     1      14.600   2.502  22.500  0.00  0.00    +0.109 C 
ATOM     37  N2  UNL     1      14.752   2.183  21.070  0.00  0.00    -0.301 N 
ATOM     38  C5  UNL     1      15.441   0.979  20.670  0.00  0.00    +0.219 C 
ATOM     39  O2  UNL     1      15.253   0.500  19.518  0.00  0.00    -0.275 OA
ATOM     40  C9  UNL     1      14.344   3.166  20.054  0.00  0.00    +0.109 C 
ATOM     41  C10 UNL     1      12.948   3.742  20.346  0.00  0.00    +0.041 C 
BRANCH  38  42
ATOM     42  C6  UNL     1      16.377   0.263  21.608  0.00  0.00    +0.075 C 
ATOM     43  C7  UNL     1      16.737  -1.156  21.181  0.00  0.00    +0.013 C 
ATOM     44  C8  UNL     1      15.759  -0.936  22.323  0.00  0.00    +0.013 C 
ENDBRANCH  38  42
ENDBRANCH  32  34
ENDBRANCH   1  31
TORSDOF 5
ENDMDL
MODEL 4
REMARK VINA RESULT:    -8.496      6.228      9.183
REMARK INTER + INTRA:         -12.069
REMARK INTER:                 -11.172
REMARK INTRA:                  -0.897
REMARK UNBOUND:                -1.090
REMARK  Name = /home/qwerty/github/datacon2025hack/step_04_hit_selection/docking/ligands/lig_699.pdb
REMARK  5 active torsions:
REMARK  status: ('A' for Active; 'I' for Inactive)
REMARK    1  A    between atoms: C1_2  and  C11_15
REMARK    2  A    between atoms: N1_3  and  C2_4
REMARK    3  A    between atoms: C5_8  and  C6_10
REMARK    4  A    between atoms: C13_17  and  C14_18
REMARK    5  A    between atoms: C17_24  and  C18_25
REMARK                            x       y       z     vdW  Elec       q    Type
REMARK                         _______ _______ _______ _____ _____    ______ ____
ROOT
ATOM      1  C11 UNL     1      15.931   1.935  22.243  0.00  0.00    +0.046 A 
ATOM      2  C12 UNL     1      16.978   2.842  22.499  0.00  0.00    +0.041 A 
ATOM      3  C13 UNL     1      18.130   2.412  23.211  0.00  0.00    +0.074 A 
ATOM      4  N7  UNL     1      18.186   1.118  23.653  0.00  0.00    -0.249 NA
ATOM      5  C29 UNL     1      17.168   0.259  23.402  0.00  0.00    +0.074 A 
ATOM      6  C30 UNL     1      16.076   0.625  22.713  0.00  0.00    +0.014 A 
ATOM      7  C31 UNL     1      15.158  -0.534  22.666  0.00  0.00    +0.198 C 
ATOM      8  O3  UNL     1      15.759  -1.580  23.423  0.00  0.00    -0.369 OA
ATOM      9  C32 UNL     1      17.045  -1.137  23.838  0.00  0.00    +0.215 C 
ENDROOT
BRANCH   3  10
ATOM     10  C14 UNL     1      19.303   3.302  23.452  0.00  0.00    +0.019 A 
ATOM     11  C15 UNL     1      19.760   4.247  22.484  0.00  0.00    +0.123 A 
ATOM     12  N3  UNL     1      20.840   5.047  22.740  0.00  0.00    -0.235 NA
ATOM     13  C16 UNL     1      21.487   4.919  23.922  0.00  0.00    +0.156 A 
ATOM     14  N4  UNL     1      22.520   5.654  24.358  0.00  0.00    -0.260 N 
ATOM     15  N5  UNL     1      22.817   5.259  25.591  0.00  0.00    -0.171 NA
ATOM     16  C17 UNL     1      21.966   4.256  25.937  0.00  0.00    +0.102 A 
ATOM     17  C27 UNL     1      21.099   4.035  24.878  0.00  0.00    +0.047 A 
ATOM     18  C28 UNL     1      19.988   3.221  24.689  0.00  0.00    +0.025 A 
ATOM     19  H18 UNL     1      23.009   6.422  23.842  0.00  0.00    +0.191 HD
BRANCH  16  20
ATOM     20  C18 UNL     1      21.971   3.589  27.256  0.00  0.00    +0.003 A 
ATOM     21  C19 UNL     1      22.481   2.288  27.406  0.00  0.00    +0.012 A 
ATOM     22  C20 UNL     1      22.446   1.649  28.648  0.00  0.00    +0.029 A 
ATOM     23  C21 UNL     1      21.914   2.307  29.760  0.00  0.00    +0.071 A 
ATOM     24  N6  UNL     1      21.867   1.681  30.967  0.00  0.00    -0.255 NA
ATOM     25  C22 UNL     1      21.359   2.293  32.069  0.00  0.00    +0.111 A 
ATOM     26  C23 UNL     1      20.872   3.601  31.984  0.00  0.00    +0.020 A 
ATOM     27  C24 UNL     1      20.910   4.272  30.760  0.00  0.00    +0.011 A 
ATOM     28  C25 UNL     1      21.428   3.628  29.629  0.00  0.00    +0.001 A 
ATOM     29  C26 UNL     1      21.466   4.266  28.380  0.00  0.00    +0.020 A 
ENDBRANCH  16  20
ENDBRANCH   3  10
BRANCH   1  31
ATOM     30  O1  UNL     1      14.764   2.418  20.247  0.00  0.00    -0.270 OA
ATOM     31  C1  UNL     1      14.731   2.366  21.506  0.00  0.00    +0.245 C 
ATOM     32  N1  UNL     1      13.525   2.692  22.214  0.00  0.00    -0.308 N 
ATOM     33  H1  UNL     1      13.481   2.471  23.235  0.00  0.00    +0.149 HD
BRANCH  32  34
ATOM     34  C2  UNL     1      12.361   3.308  21.565  0.00  0.00    +0.076 C 
ATOM     35  C3  UNL     1      12.287   4.797  21.935  0.00  0.00    +0.041 C 
ATOM     36  C4  UNL     1      11.075   5.462  21.276  0.00  0.00    +0.109 C 
ATOM     37  N2  UNL     1       9.844   4.677  21.476  0.00  0.00    -0.301 N 
ATOM     38  C5  UNL     1       8.582   5.179  20.985  0.00  0.00    +0.219 C 
ATOM     39  O2  UNL     1       7.619   4.385  20.801  0.00  0.00    -0.275 OA
ATOM     40  C9  UNL     1       9.877   3.466  22.309  0.00  0.00    +0.109 C 
ATOM     41  C10 UNL     1      11.061   2.554  21.944  0.00  0.00    +0.041 C 
BRANCH  38  42
ATOM     42  C6  UNL     1       8.388   6.639  20.670  0.00  0.00    +0.075 C 
ATOM     43  C7  UNL     1       8.333   7.548  21.894  0.00  0.00    +0.013 C 
ATOM     44  C8  UNL     1       7.055   7.215  21.143  0.00  0.00    +0.013 C 
ENDBRANCH  38  42
ENDBRANCH  32  34
ENDBRANCH   1  31
TORSDOF 5
ENDMDL
MODEL 5
REMARK VINA RESULT:    -8.471     13.102     15.383
REMARK INTER + INTRA:         -12.037
REMARK INTER:                 -10.867
REMARK INTRA:                  -1.170
REMARK UNBOUND:                -1.090
REMARK  Name = /home/qwerty/github/datacon2025hack/step_04_hit_selection/docking/ligands/lig_699.pdb
REMARK  5 active torsions:
REMARK  status: ('A' for Active; 'I' for Inactive)
REMARK    1  A    between atoms: C1_2  and  C11_15
REMARK    2  A    between atoms: N1_3  and  C2_4
REMARK    3  A    between atoms: C5_8  and  C6_10
REMARK    4  A    between atoms: C13_17  and  C14_18
REMARK    5  A    between atoms: C17_24  and  C18_25
REMARK                            x       y       z     vdW  Elec       q    Type
REMARK                         _______ _______ _______ _____ _____    ______ ____
ROOT
ATOM      1  C11 UNL     1      17.261   7.653  37.169  0.00  0.00    +0.046 A 
ATOM      2  C12 UNL     1      18.602   7.701  36.742  0.00  0.00    +0.041 A 
ATOM      3  C13 UNL     1      19.364   6.504  36.661  0.00  0.00    +0.074 A 
ATOM      4  N7  UNL     1      18.775   5.324  37.025  0.00  0.00    -0.249 NA
ATOM      5  C29 UNL     1      17.485   5.295  37.438  0.00  0.00    +0.074 A 
ATOM      6  C30 UNL     1      16.730   6.402  37.504  0.00  0.00    +0.014 A 
ATOM      7  C31 UNL     1      15.403   6.018  38.032  0.00  0.00    +0.198 C 
ATOM      8  O3  UNL     1      15.452   4.625  38.327  0.00  0.00    -0.369 OA
ATOM      9  C32 UNL     1      16.717   4.134  37.903  0.00  0.00    +0.215 C 
ENDROOT
BRANCH   3  10
ATOM     10  C14 UNL     1      20.765   6.477  36.150  0.00  0.00    +0.019 A 
ATOM     11  C15 UNL     1      21.864   6.999  36.898  0.00  0.00    +0.123 A 
ATOM     12  N3  UNL     1      23.136   6.958  36.396  0.00  0.00    -0.235 NA
ATOM     13  C16 UNL     1      23.342   6.431  35.166  0.00  0.00    +0.156 A 
ATOM     14  N4  UNL     1      24.519   6.261  34.550  0.00  0.00    -0.260 N 
ATOM     15  N5  UNL     1      24.295   5.649  33.392  0.00  0.00    -0.171 NA
ATOM     16  C17 UNL     1      22.958   5.436  33.272  0.00  0.00    +0.102 A 
ATOM     17  C27 UNL     1      22.334   5.923  34.410  0.00  0.00    +0.047 A 
ATOM     18  C28 UNL     1      21.026   5.905  34.880  0.00  0.00    +0.025 A 
ATOM     19  H18 UNL     1      25.463   6.536  34.908  0.00  0.00    +0.191 HD
BRANCH  16  20
ATOM     20  C18 UNL     1      22.334   4.742  32.125  0.00  0.00    +0.003 A 
ATOM     21  C19 UNL     1      21.889   5.460  31.001  0.00  0.00    +0.012 A 
ATOM     22  C20 UNL     1      21.264   4.803  29.938  0.00  0.00    +0.029 A 
ATOM     23  C21 UNL     1      21.088   3.417  29.977  0.00  0.00    +0.071 A 
ATOM     24  N6  UNL     1      20.468   2.778  28.949  0.00  0.00    -0.255 NA
ATOM     25  C22 UNL     1      20.283   1.431  28.955  0.00  0.00    +0.111 A 
ATOM     26  C23 UNL     1      20.738   0.664  30.032  0.00  0.00    +0.020 A 
ATOM     27  C24 UNL     1      21.381   1.291  31.100  0.00  0.00    +0.011 A 
ATOM     28  C25 UNL     1      21.559   2.680  31.087  0.00  0.00    +0.001 A 
ATOM     29  C26 UNL     1      22.187   3.344  32.152  0.00  0.00    +0.020 A 
ENDBRANCH  16  20
ENDBRANCH   3  10
BRANCH   1  31
ATOM     30  O1  UNL     1      16.564   9.619  38.277  0.00  0.00    -0.270 OA
ATOM     31  C1  UNL     1      16.459   8.885  37.257  0.00  0.00    +0.245 C 
ATOM     32  N1  UNL     1      15.591   9.264  36.178  0.00  0.00    -0.308 N 
ATOM     33  H1  UNL     1      15.660   8.728  35.283  0.00  0.00    +0.149 HD
BRANCH  32  34
ATOM     34  C2  UNL     1      14.626  10.366  36.280  0.00  0.00    +0.076 C 
ATOM     35  C3  UNL     1      13.319   9.980  35.570  0.00  0.00    +0.041 C 
ATOM     36  C4  UNL     1      12.298  11.119  35.655  0.00  0.00    +0.109 C 
ATOM     37  N2  UNL     1      12.890  12.414  35.276  0.00  0.00    -0.301 N 
ATOM     38  C5  UNL     1      12.062  13.597  35.227  0.00  0.00    +0.219 C 
ATOM     39  O2  UNL     1      12.595  14.738  35.287  0.00  0.00    -0.275 OA
ATOM     40  C9  UNL     1      14.279  12.470  34.796  0.00  0.00    +0.109 C 
ATOM     41  C10 UNL     1      15.230  11.674  35.706  0.00  0.00    +0.041 C 
BRANCH  38  42
ATOM     42  C6  UNL     1      10.564  13.501  35.121  0.00  0.00    +0.075 C 
ATOM     43  C7  UNL     1       9.831  14.828  35.296  0.00  0.00    +0.013 C 
ATOM     44  C8  UNL     1       9.818  13.805  36.419  0.00  0.00    +0.013 C 
ENDBRANCH  38  42
ENDBRANCH  32  34
ENDBRANCH   1  31
TORSDOF 5
ENDMDL
MODEL 6
REMARK VINA RESULT:    -8.412      8.309     13.391
REMARK INTER + INTRA:         -11.961
REMARK INTER:                 -10.822
REMARK INTRA:                  -1.139
REMARK UNBOUND:                -1.090
REMARK  Name = /home/qwerty/github/datacon2025hack/step_04_hit_selection/docking/ligands/lig_699.pdb
REMARK  5 active torsions:
REMARK  status: ('A' for Active; 'I' for Inactive)
REMARK    1  A    between atoms: C1_2  and  C11_15
REMARK    2  A    between atoms: N1_3  and  C2_4
REMARK    3  A    between atoms: C5_8  and  C6_10
REMARK    4  A    between atoms: C13_17  and  C14_18
REMARK    5  A    between atoms: C17_24  and  C18_25
REMARK                            x       y       z     vdW  Elec       q    Type
REMARK                         _______ _______ _______ _____ _____    ______ ____
ROOT
ATOM      1  C11 UNL     1      20.456   7.036  20.713  0.00  0.00    +0.046 A 
ATOM      2  C12 UNL     1      19.222   6.528  20.263  0.00  0.00    +0.041 A 
ATOM      3  C13 UNL     1      18.615   5.438  20.943  0.00  0.00    +0.074 A 
ATOM      4  N7  UNL     1      19.261   4.889  22.017  0.00  0.00    -0.249 NA
ATOM      5  C29 UNL     1      20.450   5.387  22.435  0.00  0.00    +0.074 A 
ATOM      6  C30 UNL     1      21.041   6.430  21.831  0.00  0.00    +0.014 A 
ATOM      7  C31 UNL     1      22.331   6.678  22.509  0.00  0.00    +0.198 C 
ATOM      8  O3  UNL     1      22.483   5.674  23.508  0.00  0.00    -0.369 OA
ATOM      9  C32 UNL     1      21.293   4.895  23.530  0.00  0.00    +0.215 C 
ENDROOT
BRANCH   3  10
ATOM     10  C14 UNL     1      17.277   4.899  20.561  0.00  0.00    +0.019 A 
ATOM     11  C15 UNL     1      16.356   5.635  19.756  0.00  0.00    +0.123 A 
ATOM     12  N3  UNL     1      15.136   5.110  19.425  0.00  0.00    -0.235 NA
ATOM     13  C16 UNL     1      14.802   3.883  19.889  0.00  0.00    +0.156 A 
ATOM     14  N4  UNL     1      13.681   3.198  19.620  0.00  0.00    -0.260 N 
ATOM     15  N5  UNL     1      13.771   2.012  20.211  0.00  0.00    -0.171 NA
ATOM     16  C17 UNL     1      14.959   1.948  20.869  0.00  0.00    +0.102 A 
ATOM     17  C27 UNL     1      15.637   3.140  20.661  0.00  0.00    +0.047 A 
ATOM     18  C28 UNL     1      16.902   3.605  21.000  0.00  0.00    +0.025 A 
ATOM     19  H18 UNL     1      12.875   3.515  19.034  0.00  0.00    +0.191 HD
BRANCH  16  20
ATOM     20  C18 UNL     1      15.425   0.760  21.615  0.00  0.00    +0.003 A 
ATOM     21  C19 UNL     1      16.531   0.014  21.169  0.00  0.00    +0.012 A 
ATOM     22  C20 UNL     1      16.942  -1.130  21.858  0.00  0.00    +0.029 A 
ATOM     23  C21 UNL     1      16.263  -1.536  23.010  0.00  0.00    +0.071 A 
ATOM     24  N6  UNL     1      16.653  -2.657  23.674  0.00  0.00    -0.255 NA
ATOM     25  C22 UNL     1      16.016  -3.079  24.798  0.00  0.00    +0.111 A 
ATOM     26  C23 UNL     1      14.934  -2.354  25.305  0.00  0.00    +0.020 A 
ATOM     27  C24 UNL     1      14.511  -1.197  24.648  0.00  0.00    +0.011 A 
ATOM     28  C25 UNL     1      15.170  -0.777  23.486  0.00  0.00    +0.001 A 
ATOM     29  C26 UNL     1      14.761   0.372  22.792  0.00  0.00    +0.020 A 
ENDBRANCH  16  20
ENDBRANCH   3  10
BRANCH   1  31
ATOM     30  O1  UNL     1      22.057   7.943  19.233  0.00  0.00    -0.270 OA
ATOM     31  C1  UNL     1      21.098   8.166  20.019  0.00  0.00    +0.245 C 
ATOM     32  N1  UNL     1      20.614   9.504  20.212  0.00  0.00    -0.308 N 
ATOM     33  H1  UNL     1      19.715   9.630  20.730  0.00  0.00    +0.149 HD
BRANCH  32  34
ATOM     34  C2  UNL     1      21.321  10.688  19.708  0.00  0.00    +0.076 C 
ATOM     35  C3  UNL     1      22.298  11.204  20.776  0.00  0.00    +0.041 C 
ATOM     36  C4  UNL     1      23.044  12.445  20.277  0.00  0.00    +0.109 C 
ATOM     37  N2  UNL     1      22.123  13.440  19.699  0.00  0.00    -0.301 N 
ATOM     38  C5  UNL     1      22.633  14.710  19.237  0.00  0.00    +0.219 C 
ATOM     39  O2  UNL     1      21.964  15.393  18.414  0.00  0.00    -0.275 OA
ATOM     40  C9  UNL     1      20.672  13.203  19.739  0.00  0.00    +0.109 C 
ATOM     41  C10 UNL     1      20.313  11.782  19.273  0.00  0.00    +0.041 C 
BRANCH  38  42
ATOM     42  C6  UNL     1      23.964  15.237  19.704  0.00  0.00    +0.075 C 
ATOM     43  C7  UNL     1      24.442  16.486  18.971  0.00  0.00    +0.013 C 
ATOM     44  C8  UNL     1      25.080  15.142  18.667  0.00  0.00    +0.013 C 
ENDBRANCH  38  42
ENDBRANCH  32  34
ENDBRANCH   1  31
TORSDOF 5
ENDMDL
MODEL 7
REMARK VINA RESULT:    -8.358      5.904      9.043
REMARK INTER + INTRA:         -11.890
REMARK INTER:                 -10.986
REMARK INTRA:                  -0.905
REMARK UNBOUND:                -1.090
REMARK  Name = /home/qwerty/github/datacon2025hack/step_04_hit_selection/docking/ligands/lig_699.pdb
REMARK  5 active torsions:
REMARK  status: ('A' for Active; 'I' for Inactive)
REMARK    1  A    between atoms: C1_2  and  C11_15
REMARK    2  A    between atoms: N1_3  and  C2_4
REMARK    3  A    between atoms: C5_8  and  C6_10
REMARK    4  A    between atoms: C13_17  and  C14_18
REMARK    5  A    between atoms: C17_24  and  C18_25
REMARK                            x       y       z     vdW  Elec       q    Type
REMARK                         _______ _______ _______ _____ _____    ______ ____
ROOT
ATOM      1  C11 UNL     1      15.172   2.914  21.918  0.00  0.00    +0.046 A 
ATOM      2  C12 UNL     1      16.365   3.638  22.110  0.00  0.00    +0.041 A 
ATOM      3  C13 UNL     1      17.511   2.986  22.640  0.00  0.00    +0.074 A 
ATOM      4  N7  UNL     1      17.420   1.662  22.974  0.00  0.00    -0.249 NA
ATOM      5  C29 UNL     1      16.264   0.982  22.788  0.00  0.00    +0.074 A 
ATOM      6  C30 UNL     1      15.169   1.559  22.269  0.00  0.00    +0.014 A 
ATOM      7  C31 UNL     1      14.088   0.551  22.248  0.00  0.00    +0.198 C 
ATOM      8  O3  UNL     1      14.604  -0.635  22.845  0.00  0.00    -0.369 OA
ATOM      9  C32 UNL     1      15.981  -0.417  23.130  0.00  0.00    +0.215 C 
ENDROOT
BRANCH   3  10
ATOM     10  C14 UNL     1      18.824   3.676  22.800  0.00  0.00    +0.019 A 
ATOM     11  C15 UNL     1      19.429   4.428  21.747  0.00  0.00    +0.123 A 
ATOM     12  N3  UNL     1      20.635   5.047  21.930  0.00  0.00    -0.235 NA
ATOM     13  C16 UNL     1      21.263   4.924  23.123  0.00  0.00    +0.156 A 
ATOM     14  N4  UNL     1      22.413   5.506  23.491  0.00  0.00    -0.260 N 
ATOM     15  N5  UNL     1      22.649   5.187  24.759  0.00  0.00    -0.171 NA
ATOM     16  C17 UNL     1      21.640   4.388  25.196  0.00  0.00    +0.102 A 
ATOM     17  C27 UNL     1      20.736   4.220  24.158  0.00  0.00    +0.047 A 
ATOM     18  C28 UNL     1      19.498   3.598  24.044  0.00  0.00    +0.025 A 
ATOM     19  H18 UNL     1      23.023   6.122  22.905  0.00  0.00    +0.191 HD
BRANCH  16  20
ATOM     20  C18 UNL     1      21.542   3.863  26.574  0.00  0.00    +0.003 A 
ATOM     21  C19 UNL     1      21.318   4.725  27.662  0.00  0.00    +0.012 A 
ATOM     22  C20 UNL     1      21.267   4.227  28.966  0.00  0.00    +0.029 A 
ATOM     23  C21 UNL     1      21.423   2.858  29.200  0.00  0.00    +0.071 A 
ATOM     24  N6  UNL     1      21.387   2.373  30.471  0.00  0.00    -0.255 NA
ATOM     25  C22 UNL     1      21.533   1.047  30.733  0.00  0.00    +0.111 A 
ATOM     26  C23 UNL     1      21.722   0.141  29.685  0.00  0.00    +0.020 A 
ATOM     27  C24 UNL     1      21.761   0.608  28.369  0.00  0.00    +0.011 A 
ATOM     28  C25 UNL     1      21.617   1.977  28.112  0.00  0.00    +0.001 A 
ATOM     29  C26 UNL     1      21.668   2.482  26.804  0.00  0.00    +0.020 A 
ENDBRANCH  16  20
ENDBRANCH   3  10
BRANCH   1  31
ATOM     30  O1  UNL     1      13.706   3.449  20.145  0.00  0.00    -0.270 OA
ATOM     31  C1  UNL     1      13.975   3.576  21.370  0.00  0.00    +0.245 C 
ATOM     32  N1  UNL     1      13.107   4.330  22.229  0.00  0.00    -0.308 N 
ATOM     33  H1  UNL     1      13.264   4.268  23.261  0.00  0.00    +0.149 HD
BRANCH  32  34
ATOM     34  C2  UNL     1      12.013   5.167  21.721  0.00  0.00    +0.076 C 
ATOM     35  C3  UNL     1      12.437   6.644  21.741  0.00  0.00    +0.041 C 
ATOM     36  C4  UNL     1      11.309   7.541  21.223  0.00  0.00    +0.109 C 
ATOM     37  N2  UNL     1      10.020   7.222  21.860  0.00  0.00    -0.301 N 
ATOM     38  C5  UNL     1       8.849   8.009  21.550  0.00  0.00    +0.219 C 
ATOM     39  O2  UNL     1       7.699   7.537  21.768  0.00  0.00    -0.275 OA
ATOM     40  C9  UNL     1       9.961   6.210  22.926  0.00  0.00    +0.109 C 
ATOM     41  C10 UNL     1      10.717   4.928  22.537  0.00  0.00    +0.041 C 
BRANCH  38  42
ATOM     42  C6  UNL     1       8.966   9.386  20.953  0.00  0.00    +0.075 C 
ATOM     43  C7  UNL     1       9.594  10.425  21.878  0.00  0.00    +0.013 C 
ATOM     44  C8  UNL     1       8.095  10.443  21.629  0.00  0.00    +0.013 C 
ENDBRANCH  38  42
ENDBRANCH  32  34
ENDBRANCH   1  31
TORSDOF 5
ENDMDL
MODEL 8
REMARK VINA RESULT:    -8.327     12.193     14.746
REMARK INTER + INTRA:         -11.851
REMARK INTER:                 -10.952
REMARK INTRA:                  -0.899
REMARK UNBOUND:                -1.090
REMARK  Name = /home/qwerty/github/datacon2025hack/step_04_hit_selection/docking/ligands/lig_699.pdb
REMARK  5 active torsions:
REMARK  status: ('A' for Active; 'I' for Inactive)
REMARK    1  A    between atoms: C1_2  and  C11_15
REMARK    2  A    between atoms: N1_3  and  C2_4
REMARK    3  A    between atoms: C5_8  and  C6_10
REMARK    4  A    between atoms: C13_17  and  C14_18
REMARK    5  A    between atoms: C17_24  and  C18_25
REMARK                            x       y       z     vdW  Elec       q    Type
REMARK                         _______ _______ _______ _____ _____    ______ ____
ROOT
ATOM      1  C11 UNL     1      18.925   7.562  36.048  0.00  0.00    +0.046 A 
ATOM      2  C12 UNL     1      18.363   6.307  35.741  0.00  0.00    +0.041 A 
ATOM      3  C13 UNL     1      19.196   5.252  35.281  0.00  0.00    +0.074 A 
ATOM      4  N7  UNL     1      20.535   5.488  35.126  0.00  0.00    -0.249 NA
ATOM      5  C29 UNL     1      21.059   6.702  35.422  0.00  0.00    +0.074 A 
ATOM      6  C30 UNL     1      20.306   7.714  35.881  0.00  0.00    +0.014 A 
ATOM      7  C31 UNL     1      21.184   8.892  36.054  0.00  0.00    +0.198 C 
ATOM      8  O3  UNL     1      22.485   8.520  35.610  0.00  0.00    -0.369 OA
ATOM      9  C32 UNL     1      22.453   7.138  35.274  0.00  0.00    +0.215 C 
ENDROOT
BRANCH   3  10
ATOM     10  C14 UNL     1      18.675   3.881  35.006  0.00  0.00    +0.019 A 
ATOM     11  C15 UNL     1      17.745   3.227  35.869  0.00  0.00    +0.123 A 
ATOM     12  N3  UNL     1      17.289   1.968  35.586  0.00  0.00    -0.235 NA
ATOM     13  C16 UNL     1      17.747   1.337  34.479  0.00  0.00    +0.156 A 
ATOM     14  N4  UNL     1      17.368   0.135  34.024  0.00  0.00    -0.260 N 
ATOM     15  N5  UNL     1      18.001  -0.090  32.877  0.00  0.00    -0.171 NA
ATOM     16  C17 UNL     1      18.796   0.980  32.608  0.00  0.00    +0.102 A 
ATOM     17  C27 UNL     1      18.634   1.909  33.624  0.00  0.00    +0.047 A 
ATOM     18  C28 UNL     1      19.106   3.199  33.841  0.00  0.00    +0.025 A 
ATOM     19  H18 UNL     1      16.682  -0.518  34.466  0.00  0.00    +0.191 HD
BRANCH  16  20
ATOM     20  C18 UNL     1      19.627   1.104  31.393  0.00  0.00    +0.003 A 
ATOM     21  C19 UNL     1      21.029   1.158  31.478  0.00  0.00    +0.012 A 
ATOM     22  C20 UNL     1      21.807   1.315  30.328  0.00  0.00    +0.029 A 
ATOM     23  C21 UNL     1      21.195   1.407  29.075  0.00  0.00    +0.071 A 
ATOM     24  N6  UNL     1      21.950   1.574  27.956  0.00  0.00    -0.255 NA
ATOM     25  C22 UNL     1      21.386   1.664  26.722  0.00  0.00    +0.111 A 
ATOM     26  C23 UNL     1      19.998   1.580  26.576  0.00  0.00    +0.020 A 
ATOM     27  C24 UNL     1      19.197   1.405  27.706  0.00  0.00    +0.011 A 
ATOM     28  C25 UNL     1      19.788   1.322  28.973  0.00  0.00    +0.001 A 
ATOM     29  C26 UNL     1      19.011   1.163  30.130  0.00  0.00    +0.020 A 
ENDBRANCH  16  20
ENDBRANCH   3  10
BRANCH   1  31
ATOM     30  O1  UNL     1      17.864   8.791  37.763  0.00  0.00    -0.270 OA
ATOM     31  C1  UNL     1      18.076   8.666  36.527  0.00  0.00    +0.245 C 
ATOM     32  N1  UNL     1      17.521   9.608  35.596  0.00  0.00    -0.308 N 
ATOM     33  H1  UNL     1      17.857   9.576  34.607  0.00  0.00    +0.149 HD
BRANCH  32  34
ATOM     34  C2  UNL     1      16.517  10.609  35.978  0.00  0.00    +0.076 C 
ATOM     35  C3  UNL     1      15.108  10.011  35.844  0.00  0.00    +0.041 C 
ATOM     36  C4  UNL     1      14.042  11.040  36.230  0.00  0.00    +0.109 C 
ATOM     37  N2  UNL     1      14.267  12.336  35.566  0.00  0.00    -0.301 N 
ATOM     38  C5  UNL     1      13.324  13.414  35.752  0.00  0.00    +0.219 C 
ATOM     39  O2  UNL     1      13.677  14.604  35.527  0.00  0.00    -0.275 OA
ATOM     40  C9  UNL     1      15.362  12.480  34.594  0.00  0.00    +0.109 C 
ATOM     41  C10 UNL     1      16.681  11.897  35.130  0.00  0.00    +0.041 C 
BRANCH  38  42
ATOM     42  C6  UNL     1      11.919  13.153  36.228  0.00  0.00    +0.075 C 
ATOM     43  C7  UNL     1      11.002  12.531  35.179  0.00  0.00    +0.013 C 
ATOM     44  C8  UNL     1      10.851  14.000  35.539  0.00  0.00    +0.013 C 
ENDBRANCH  38  42
ENDBRANCH  32  34
ENDBRANCH   1  31
TORSDOF 5
ENDMDL
MODEL 9
REMARK VINA RESULT:    -8.312     13.151     15.724
REMARK INTER + INTRA:         -11.832
REMARK INTER:                 -10.670
REMARK INTRA:                  -1.161
REMARK UNBOUND:                -1.090
REMARK  Name = /home/qwerty/github/datacon2025hack/step_04_hit_selection/docking/ligands/lig_699.pdb
REMARK  5 active torsions:
REMARK  status: ('A' for Active; 'I' for Inactive)
REMARK    1  A    between atoms: C1_2  and  C11_15
REMARK    2  A    between atoms: N1_3  and  C2_4
REMARK    3  A    between atoms: C5_8  and  C6_10
REMARK    4  A    between atoms: C13_17  and  C14_18
REMARK    5  A    between atoms: C17_24  and  C18_25
REMARK                            x       y       z     vdW  Elec       q    Type
REMARK                         _______ _______ _______ _____ _____    ______ ____
ROOT
ATOM      1  C11 UNL     1      15.755  13.063  33.860  0.00  0.00    +0.046 A 
ATOM      2  C12 UNL     1      15.190  13.301  32.592  0.00  0.00    +0.041 A 
ATOM      3  C13 UNL     1      13.810  13.619  32.479  0.00  0.00    +0.074 A 
ATOM      4  N7  UNL     1      13.050  13.666  33.616  0.00  0.00    -0.249 NA
ATOM      5  C29 UNL     1      13.607  13.429  34.828  0.00  0.00    +0.074 A 
ATOM      6  C30 UNL     1      14.911  13.150  34.974  0.00  0.00    +0.014 A 
ATOM      7  C31 UNL     1      15.167  12.905  36.410  0.00  0.00    +0.198 C 
ATOM      8  O3  UNL     1      13.917  13.001  37.085  0.00  0.00    -0.369 OA
ATOM      9  C32 UNL     1      12.936  13.394  36.133  0.00  0.00    +0.215 C 
ENDROOT
BRANCH   3  10
ATOM     10  C14 UNL     1      13.167  13.952  31.174  0.00  0.00    +0.019 A 
ATOM     11  C15 UNL     1      13.613  15.032  30.354  0.00  0.00    +0.123 A 
ATOM     12  N3  UNL     1      12.998  15.308  29.162  0.00  0.00    -0.235 NA
ATOM     13  C16 UNL     1      11.944  14.553  28.776  0.00  0.00    +0.156 A 
ATOM     14  N4  UNL     1      11.265  14.647  27.624  0.00  0.00    -0.260 N 
ATOM     15  N5  UNL     1      10.352  13.683  27.603  0.00  0.00    -0.171 NA
ATOM     16  C17 UNL     1      10.449  12.974  28.759  0.00  0.00    +0.102 A 
ATOM     17  C27 UNL     1      11.475  13.516  29.518  0.00  0.00    +0.047 A 
ATOM     18  C28 UNL     1      12.080  13.165  30.719  0.00  0.00    +0.025 A 
ATOM     19  H18 UNL     1      11.423  15.338  26.855  0.00  0.00    +0.191 HD
BRANCH  16  20
ATOM     20  C18 UNL     1       9.614  11.797  29.077  0.00  0.00    +0.003 A 
ATOM     21  C19 UNL     1       8.239  11.934  29.336  0.00  0.00    +0.012 A 
ATOM     22  C20 UNL     1       7.464  10.822  29.674  0.00  0.00    +0.029 A 
ATOM     23  C21 UNL     1       8.049   9.555  29.744  0.00  0.00    +0.071 A 
ATOM     24  N6  UNL     1       7.298   8.473  30.086  0.00  0.00    -0.255 NA
ATOM     25  C22 UNL     1       7.836   7.226  30.161  0.00  0.00    +0.111 A 
ATOM     26  C23 UNL     1       9.191   7.028  29.878  0.00  0.00    +0.020 A 
ATOM     27  C24 UNL     1       9.986   8.118  29.520  0.00  0.00    +0.011 A 
ATOM     28  C25 UNL     1       9.424   9.399  29.455  0.00  0.00    +0.001 A 
ATOM     29  C26 UNL     1      10.198  10.518  29.115  0.00  0.00    +0.020 A 
ENDBRANCH  16  20
ENDBRANCH   3  10
BRANCH   1  31
ATOM     30  O1  UNL     1      18.040  13.656  33.921  0.00  0.00    -0.270 OA
ATOM     31  C1  UNL     1      17.184  12.733  33.993  0.00  0.00    +0.245 C 
ATOM     32  N1  UNL     1      17.595  11.379  34.236  0.00  0.00    -0.308 N 
ATOM     33  H1  UNL     1      16.856  10.676  34.463  0.00  0.00    +0.149 HD
BRANCH  32  34
ATOM     34  C2  UNL     1      18.999  10.951  34.188  0.00  0.00    +0.076 C 
ATOM     35  C3  UNL     1      19.308  10.337  32.813  0.00  0.00    +0.041 C 
ATOM     36  C4  UNL     1      20.766   9.875  32.740  0.00  0.00    +0.109 C 
ATOM     37  N2  UNL     1      21.144   9.070  33.915  0.00  0.00    -0.301 N 
ATOM     38  C5  UNL     1      22.463   8.485  33.993  0.00  0.00    +0.219 C 
ATOM     39  O2  UNL     1      22.930   8.138  35.112  0.00  0.00    -0.275 OA
ATOM     40  C9  UNL     1      20.132   8.734  34.928  0.00  0.00    +0.109 C 
ATOM     41  C10 UNL     1      19.309   9.965  35.343  0.00  0.00    +0.041 C 
BRANCH  38  42
ATOM     42  C6  UNL     1      23.308   8.292  32.762  0.00  0.00    +0.075 C 
ATOM     43  C7  UNL     1      24.751   7.886  33.044  0.00  0.00    +0.013 C 
ATOM     44  C8  UNL     1      24.439   9.307  32.608  0.00  0.00    +0.013 C 
ENDBRANCH  38  42
ENDBRANCH  32  34
ENDBRANCH   1  31
TORSDOF 5
ENDMDL
