REMARK  Name = /home/qwerty/github/datacon2025hack/step_04_hit_selection/docking/ligands/lig_493.pdb
REMARK  7 active torsions:
REMARK  status: ('A' for Active; 'I' for Inactive)
REMARK    1  A    between atoms: C1_1  and  C2_2
REMARK    2  A    between atoms: C2_2  and  C3_3
REMARK    3  A    between atoms: C2_2  and  C4_4
REMARK    4  A    between atoms: C8_11  and  C9_12
REMARK    5  A    between atoms: N5_18  and  C13_19
REMARK    6  A    between atoms: C13_19  and  C14_20
REMARK    7  A    between atoms: C17_23  and  C18_24
REMARK                            x       y       z     vdW  Elec       q    Type
REMARK                         _______ _______ _______ _____ _____    ______ ____
ROOT
ATOM      1  C4  UNL     1       3.433   0.943   1.221  0.00  0.00    -0.005 C 
ATOM      2  C5  UNL     1       1.959   1.275   1.608  0.00  0.00    +0.023 C 
ATOM      3  C6  UNL     1       0.936   0.431   0.840  0.00  0.00    +0.108 C 
ATOM      4  N1  UNL     1       1.189  -1.003   1.037  0.00  0.00    -0.300 N 
ATOM      5  C7  UNL     1       0.099  -1.940   1.068  0.00  0.00    +0.220 A 
ATOM      6  N2  UNL     1      -0.014  -2.896   2.007  0.00  0.00    -0.113 NA
ATOM      7  N3  UNL     1      -1.079  -3.617   1.693  0.00  0.00    -0.126 NA
ATOM      8  C8  UNL     1      -1.599  -3.097   0.563  0.00  0.00    +0.182 A 
ATOM      9  N5  UNL     1      -0.874  -2.036   0.132  0.00  0.00    -0.290 N 
ATOM     10  C20 UNL     1       2.525  -1.453   1.445  0.00  0.00    +0.108 C 
ATOM     11  C21 UNL     1       3.588  -0.552   0.813  0.00  0.00    +0.023 C 
ENDROOT
BRANCH   8  12
ATOM     12  C9  UNL     1      -2.783  -3.692  -0.096  0.00  0.00    +0.085 A 
ATOM     13  C10 UNL     1      -3.687  -3.057  -0.934  0.00  0.00    +0.046 A 
ATOM     14  C11 UNL     1      -4.647  -3.999  -1.241  0.00  0.00    +0.036 A 
ATOM     15 BR1  UNL     1      -6.179  -3.731  -2.343  0.00  0.00    -0.049 Br
ATOM     16  C12 UNL     1      -4.308  -5.158  -0.579  0.00  0.00    +0.098 A 
ATOM     17  N4  UNL     1      -3.178  -4.963   0.122  0.00  0.00    -0.357 N 
ATOM     18  H15 UNL     1      -2.701  -5.672   0.724  0.00  0.00    +0.165 HD
ENDBRANCH   8  12
BRANCH   1  20
ATOM     19  C1  UNL     1       5.451   1.510  -0.268  0.00  0.00    +0.007 C 
ATOM     20  C2  UNL     1       4.011   1.901   0.125  0.00  0.00    -0.014 C 
ATOM     21  C3  UNL     1       4.021   3.375   0.582  0.00  0.00    +0.007 C 
ENDBRANCH   1  20
BRANCH   9  22
ATOM     22  C13 UNL     1      -0.959  -1.317  -1.146  0.00  0.00    +0.163 C 
BRANCH  22  23
ATOM     23  C14 UNL     1      -1.688   0.001  -1.019  0.00  0.00    -0.009 A 
ATOM     24  C15 UNL     1      -2.653   0.233  -0.024  0.00  0.00    +0.009 A 
ATOM     25  C16 UNL     1      -3.312   1.461   0.042  0.00  0.00    +0.033 A 
ATOM     26  C17 UNL     1      -3.016   2.458  -0.900  0.00  0.00    +0.125 A 
ATOM     27  N7  UNL     1      -2.094   2.204  -1.869  0.00  0.00    -0.250 NA
ATOM     28  C19 UNL     1      -1.438   1.017  -1.953  0.00  0.00    +0.117 A 
BRANCH  26  29
ATOM     29  C18 UNL     1      -3.692   3.773  -0.859  0.00  0.00    +0.260 C 
ATOM     30  N6  UNL     1      -3.393   4.780  -1.829  0.00  0.00    -0.324 N 
ATOM     31  O1  UNL     1      -4.543   4.019   0.039  0.00  0.00    -0.269 OA
ATOM     32  H20 UNL     1      -3.873   5.706  -1.788  0.00  0.00    +0.145 HD
ATOM     33  H21 UNL     1      -2.702   4.613  -2.593  0.00  0.00    +0.145 HD
ENDBRANCH  26  29
ENDBRANCH  22  23
ENDBRANCH   9  22
TORSDOF 5
