MODEL 1
REMARK VINA RESULT:    -7.680      0.000      0.000
REMARK INTER + INTRA:         -10.231
REMARK INTER:                  -9.700
REMARK INTRA:                  -0.531
REMARK UNBOUND:                -0.531
REMARK  Name = /home/qwerty/github/datacon2025hack/step_04_hit_selection/docking/ligands/lig_663.pdb
REMARK  5 active torsions:
REMARK  status: ('A' for Active; 'I' for Inactive)
REMARK    1  A    between atoms: C1_2  and  O2_3
REMARK    2  A    between atoms: C1_2  and  C2_4
REMARK    3  A    between atoms: C6_9  and  N1_10
REMARK    4  A    between atoms: N1_10  and  C7_11
REMARK    5  A    between atoms: C10_16  and  C11_17
REMARK                            x       y       z     vdW  Elec       q    Type
REMARK                         _______ _______ _______ _____ _____    ______ ____
ROOT
ATOM      1  C7  UNL     1      10.521   5.327  20.250  0.00  0.00    +0.052 A 
ATOM      2  C8  UNL     1       9.694   4.435  20.983  0.00  0.00    +0.136 A 
ATOM      3  N2  UNL     1      10.165   3.219  21.392  0.00  0.00    -0.234 NA
ATOM      4  C9  UNL     1      11.443   2.882  21.093  0.00  0.00    +0.158 A 
ATOM      5  N3  UNL     1      12.077   1.752  21.420  0.00  0.00    -0.323 N 
ATOM      6  C10 UNL     1      13.327   1.931  20.909  0.00  0.00    +0.140 A 
ATOM      7  N4  UNL     1      13.485   3.132  20.283  0.00  0.00    -0.226 NA
ATOM      8  C17 UNL     1      12.278   3.705  20.416  0.00  0.00    +0.110 A 
ATOM      9  C18 UNL     1      11.859   4.954  19.976  0.00  0.00    +0.056 A 
ATOM     10  H6  UNL     1      11.685   0.948  21.955  0.00  0.00    +0.169 HD
ENDROOT
BRANCH   6  11
ATOM     11  C11 UNL     1      14.425   0.936  21.019  0.00  0.00    +0.020 A 
ATOM     12  C12 UNL     1      14.608   0.227  22.222  0.00  0.00    +0.012 A 
ATOM     13  C13 UNL     1      15.635  -0.713  22.344  0.00  0.00    +0.003 A 
ATOM     14  C14 UNL     1      16.493  -0.955  21.269  0.00  0.00    +0.038 A 
ATOM     15  C15 UNL     1      16.327  -0.258  20.072  0.00  0.00    +0.124 A 
ATOM     16  F2  UNL     1      17.163  -0.492  19.031  0.00  0.00    -0.205 F 
ATOM     17  C16 UNL     1      15.299   0.683  19.944  0.00  0.00    +0.049 A 
ENDBRANCH   6  11
BRANCH   1  18
ATOM     18  N1  UNL     1      10.008   6.611  19.859  0.00  0.00    -0.313 N 
ATOM     19  H4  UNL     1       9.476   6.671  18.960  0.00  0.00    +0.152 HD
BRANCH  18  25
ATOM     20  C2  UNL     1       9.151   9.725  21.765  0.00  0.00    +0.063 A 
ATOM     21  C3  UNL     1      10.435  10.212  22.067  0.00  0.00    +0.053 A 
ATOM     22  C4  UNL     1      11.572   9.519  21.642  0.00  0.00    +0.126 A 
ATOM     23  F1  UNL     1      12.805  10.006  21.924  0.00  0.00    -0.205 F 
ATOM     24  C5  UNL     1      11.440   8.332  20.918  0.00  0.00    +0.061 A 
ATOM     25  C6  UNL     1      10.166   7.817  20.627  0.00  0.00    +0.035 A 
ATOM     26  C19 UNL     1       9.028   8.529  21.035  0.00  0.00    +0.038 A 
BRANCH  20  28
ATOM     27  O1  UNL     1       7.583  10.435  23.411  0.00  0.00    -0.245 OA
ATOM     28  C1  UNL     1       7.943  10.461  22.202  0.00  0.00    +0.337 C 
BRANCH  28  29
ATOM     29  O2  UNL     1       7.192  11.187  21.283  0.00  0.00    -0.477 OA
ATOM     30  H1  UNL     1       7.565  12.026  20.853  0.00  0.00    +0.295 HD
ENDBRANCH  28  29
ENDBRANCH  20  28
ENDBRANCH  18  25
ENDBRANCH   1  18
TORSDOF 5
ENDMDL
MODEL 2
REMARK VINA RESULT:    -7.600      1.983      2.401
REMARK INTER + INTRA:         -10.130
REMARK INTER:                  -9.531
REMARK INTRA:                  -0.599
REMARK UNBOUND:                -0.531
REMARK  Name = /home/qwerty/github/datacon2025hack/step_04_hit_selection/docking/ligands/lig_663.pdb
REMARK  5 active torsions:
REMARK  status: ('A' for Active; 'I' for Inactive)
REMARK    1  A    between atoms: C1_2  and  O2_3
REMARK    2  A    between atoms: C1_2  and  C2_4
REMARK    3  A    between atoms: C6_9  and  N1_10
REMARK    4  A    between atoms: N1_10  and  C7_11
REMARK    5  A    between atoms: C10_16  and  C11_17
REMARK                            x       y       z     vdW  Elec       q    Type
REMARK                         _______ _______ _______ _____ _____    ______ ____
ROOT
ATOM      1  C7  UNL     1      10.241   5.355  20.313  0.00  0.00    +0.052 A 
ATOM      2  C8  UNL     1       9.417   4.463  21.048  0.00  0.00    +0.136 A 
ATOM      3  N2  UNL     1       9.900   3.260  21.482  0.00  0.00    -0.234 NA
ATOM      4  C9  UNL     1      11.188   2.938  21.206  0.00  0.00    +0.158 A 
ATOM      5  N3  UNL     1      11.833   1.822  21.558  0.00  0.00    -0.323 N 
ATOM      6  C10 UNL     1      13.088   2.012  21.063  0.00  0.00    +0.140 A 
ATOM      7  N4  UNL     1      13.237   3.206  20.421  0.00  0.00    -0.226 NA
ATOM      8  C17 UNL     1      12.019   3.763  20.528  0.00  0.00    +0.110 A 
ATOM      9  C18 UNL     1      11.589   4.999  20.064  0.00  0.00    +0.056 A 
ATOM     10  H6  UNL     1      11.445   1.020  22.100  0.00  0.00    +0.169 HD
ENDROOT
BRANCH   6  11
ATOM     11  C11 UNL     1      14.198   1.035  21.203  0.00  0.00    +0.020 A 
ATOM     12  C12 UNL     1      14.341   0.306  22.399  0.00  0.00    +0.012 A 
ATOM     13  C13 UNL     1      15.380  -0.617  22.549  0.00  0.00    +0.003 A 
ATOM     14  C14 UNL     1      16.289  -0.822  21.510  0.00  0.00    +0.038 A 
ATOM     15  C15 UNL     1      16.163  -0.104  20.320  0.00  0.00    +0.124 A 
ATOM     16  F2  UNL     1      17.049  -0.303  19.313  0.00  0.00    -0.205 F 
ATOM     17  C16 UNL     1      15.124   0.820  20.164  0.00  0.00    +0.049 A 
ENDBRANCH   6  11
BRANCH   1  18
ATOM     18  N1  UNL     1       9.715   6.626  19.897  0.00  0.00    -0.313 N 
ATOM     19  H4  UNL     1       9.101   6.645  19.050  0.00  0.00    +0.152 HD
BRANCH  18  25
ATOM     20  C2  UNL     1      11.487   9.721  21.055  0.00  0.00    +0.063 A 
ATOM     21  C3  UNL     1      10.526  10.266  21.926  0.00  0.00    +0.053 A 
ATOM     22  C4  UNL     1       9.307   9.614  22.130  0.00  0.00    +0.126 A 
ATOM     23  F1  UNL     1       8.395  10.138  22.985  0.00  0.00    -0.205 F 
ATOM     24  C5  UNL     1       9.030   8.418  21.464  0.00  0.00    +0.061 A 
ATOM     25  C6  UNL     1       9.967   7.871  20.572  0.00  0.00    +0.035 A 
ATOM     26  C19 UNL     1      11.200   8.516  20.388  0.00  0.00    +0.038 A 
BRANCH  20  28
ATOM     27  O1  UNL     1      12.822  11.626  20.547  0.00  0.00    -0.245 OA
ATOM     28  C1  UNL     1      12.784  10.401  20.843  0.00  0.00    +0.337 C 
BRANCH  28  29
ATOM     29  O2  UNL     1      13.976   9.693  20.969  0.00  0.00    -0.477 OA
ATOM     30  H1  UNL     1      14.851  10.082  20.635  0.00  0.00    +0.295 HD
ENDBRANCH  28  29
ENDBRANCH  20  28
ENDBRANCH  18  25
ENDBRANCH   1  18
TORSDOF 5
ENDMDL
MODEL 3
REMARK VINA RESULT:    -7.341     16.356     17.252
REMARK INTER + INTRA:          -9.803
REMARK INTER:                  -9.217
REMARK INTRA:                  -0.586
REMARK UNBOUND:                -0.531
REMARK  Name = /home/qwerty/github/datacon2025hack/step_04_hit_selection/docking/ligands/lig_663.pdb
REMARK  5 active torsions:
REMARK  status: ('A' for Active; 'I' for Inactive)
REMARK    1  A    between atoms: C1_2  and  O2_3
REMARK    2  A    between atoms: C1_2  and  C2_4
REMARK    3  A    between atoms: C6_9  and  N1_10
REMARK    4  A    between atoms: N1_10  and  C7_11
REMARK    5  A    between atoms: C10_16  and  C11_17
REMARK                            x       y       z     vdW  Elec       q    Type
REMARK                         _______ _______ _______ _____ _____    ______ ____
ROOT
ATOM      1  C7  UNL     1      18.482  12.434  36.218  0.00  0.00    +0.052 A 
ATOM      2  C8  UNL     1      18.640  13.082  34.965  0.00  0.00    +0.136 A 
ATOM      3  N2  UNL     1      19.497  12.585  34.023  0.00  0.00    -0.234 NA
ATOM      4  C9  UNL     1      20.188  11.453  34.304  0.00  0.00    +0.158 A 
ATOM      5  N3  UNL     1      21.053  10.818  33.508  0.00  0.00    -0.323 N 
ATOM      6  C10 UNL     1      21.435   9.742  34.251  0.00  0.00    +0.140 A 
ATOM      7  N4  UNL     1      20.834   9.692  35.475  0.00  0.00    -0.226 NA
ATOM      8  C17 UNL     1      20.056  10.787  35.475  0.00  0.00    +0.110 A 
ATOM      9  C18 UNL     1      19.199  11.240  36.470  0.00  0.00    +0.056 A 
ATOM     10  H6  UNL     1      21.335  11.095  32.544  0.00  0.00    +0.169 HD
ENDROOT
BRANCH   6  11
ATOM     11  C11 UNL     1      22.401   8.710  33.792  0.00  0.00    +0.020 A 
ATOM     12  C12 UNL     1      22.710   8.601  32.423  0.00  0.00    +0.012 A 
ATOM     13  C13 UNL     1      23.616   7.637  31.973  0.00  0.00    +0.003 A 
ATOM     14  C14 UNL     1      24.222   6.768  32.882  0.00  0.00    +0.038 A 
ATOM     15  C15 UNL     1      23.924   6.861  34.243  0.00  0.00    +0.124 A 
ATOM     16  F2  UNL     1      24.511   6.015  35.123  0.00  0.00    -0.205 F 
ATOM     17  C16 UNL     1      23.018   7.826  34.698  0.00  0.00    +0.049 A 
ENDBRANCH   6  11
BRANCH   1  18
ATOM     18  N1  UNL     1      17.550  12.963  37.177  0.00  0.00    -0.313 N 
ATOM     19  H4  UNL     1      17.916  13.217  38.123  0.00  0.00    +0.152 HD
BRANCH  18  25
ATOM     20  C2  UNL     1      13.891  12.265  36.746  0.00  0.00    +0.063 A 
ATOM     21  C3  UNL     1      13.425  13.533  36.354  0.00  0.00    +0.053 A 
ATOM     22  C4  UNL     1      14.312  14.605  36.230  0.00  0.00    +0.126 A 
ATOM     23  F1  UNL     1      13.855  15.819  35.835  0.00  0.00    -0.205 F 
ATOM     24  C5  UNL     1      15.670  14.427  36.502  0.00  0.00    +0.061 A 
ATOM     25  C6  UNL     1      16.151  13.175  36.919  0.00  0.00    +0.035 A 
ATOM     26  C19 UNL     1      15.261  12.095  37.018  0.00  0.00    +0.038 A 
BRANCH  20  28
ATOM     27  O1  UNL     1      12.966  10.197  36.011  0.00  0.00    -0.245 OA
ATOM     28  C1  UNL     1      12.958  11.122  36.868  0.00  0.00    +0.337 C 
BRANCH  28  29
ATOM     29  O2  UNL     1      12.062  11.059  37.931  0.00  0.00    -0.477 OA
ATOM     30  H1  UNL     1      11.897  11.866  38.522  0.00  0.00    +0.295 HD
ENDBRANCH  28  29
ENDBRANCH  20  28
ENDBRANCH  18  25
ENDBRANCH   1  18
TORSDOF 5
ENDMDL
MODEL 4
REMARK VINA RESULT:    -7.331     16.507     17.373
REMARK INTER + INTRA:          -9.791
REMARK INTER:                  -9.222
REMARK INTRA:                  -0.569
REMARK UNBOUND:                -0.531
REMARK  Name = /home/qwerty/github/datacon2025hack/step_04_hit_selection/docking/ligands/lig_663.pdb
REMARK  5 active torsions:
REMARK  status: ('A' for Active; 'I' for Inactive)
REMARK    1  A    between atoms: C1_2  and  O2_3
REMARK    2  A    between atoms: C1_2  and  C2_4
REMARK    3  A    between atoms: C6_9  and  N1_10
REMARK    4  A    between atoms: N1_10  and  C7_11
REMARK    5  A    between atoms: C10_16  and  C11_17
REMARK                            x       y       z     vdW  Elec       q    Type
REMARK                         _______ _______ _______ _____ _____    ______ ____
ROOT
ATOM      1  C7  UNL     1      16.056  12.239  37.087  0.00  0.00    +0.052 A 
ATOM      2  C8  UNL     1      16.801  13.038  36.181  0.00  0.00    +0.136 A 
ATOM      3  N2  UNL     1      18.041  12.648  35.758  0.00  0.00    -0.234 NA
ATOM      4  C9  UNL     1      18.544  11.475  36.215  0.00  0.00    +0.158 A 
ATOM      5  N3  UNL     1      19.723  10.928  35.904  0.00  0.00    -0.323 N 
ATOM      6  C10 UNL     1      19.724   9.758  36.602  0.00  0.00    +0.140 A 
ATOM      7  N4  UNL     1      18.586   9.565  37.329  0.00  0.00    -0.226 NA
ATOM      8  C17 UNL     1      17.866  10.668  37.063  0.00  0.00    +0.110 A 
ATOM      9  C18 UNL     1      16.601  11.007  37.525  0.00  0.00    +0.056 A 
ATOM     10  H6  UNL     1      20.445  11.321  35.261  0.00  0.00    +0.169 HD
ENDROOT
BRANCH   6  11
ATOM     11  C11 UNL     1      20.836   8.774  36.582  0.00  0.00    +0.020 A 
ATOM     12  C12 UNL     1      20.960   7.837  37.626  0.00  0.00    +0.012 A 
ATOM     13  C13 UNL     1      22.000   6.903  37.623  0.00  0.00    +0.003 A 
ATOM     14  C14 UNL     1      22.930   6.894  36.583  0.00  0.00    +0.038 A 
ATOM     15  C15 UNL     1      22.823   7.819  35.543  0.00  0.00    +0.124 A 
ATOM     16  F2  UNL     1      23.730   7.811  34.534  0.00  0.00    -0.205 F 
ATOM     17  C16 UNL     1      21.783   8.755  35.539  0.00  0.00    +0.049 A 
ENDBRANCH   6  11
BRANCH   1  18
ATOM     18  N1  UNL     1      14.742  12.660  37.489  0.00  0.00    -0.313 N 
ATOM     19  H4  UNL     1      14.660  13.244  38.354  0.00  0.00    +0.152 HD
BRANCH  18  25
ATOM     20  C2  UNL     1      11.528  13.103  35.609  0.00  0.00    +0.063 A 
ATOM     21  C3  UNL     1      11.131  11.764  35.444  0.00  0.00    +0.053 A 
ATOM     22  C4  UNL     1      11.917  10.726  35.952  0.00  0.00    +0.126 A 
ATOM     23  F1  UNL     1      11.517   9.439  35.803  0.00  0.00    -0.205 F 
ATOM     24  C5  UNL     1      13.108  11.011  36.624  0.00  0.00    +0.061 A 
ATOM     25  C6  UNL     1      13.533  12.341  36.778  0.00  0.00    +0.035 A 
ATOM     26  C19 UNL     1      12.729  13.381  36.287  0.00  0.00    +0.038 A 
BRANCH  20  28
ATOM     27  O1  UNL     1      10.661  14.448  33.845  0.00  0.00    -0.245 OA
ATOM     28  C1  UNL     1      10.694  14.207  35.083  0.00  0.00    +0.337 C 
BRANCH  28  29
ATOM     29  O2  UNL     1       9.938  14.990  35.950  0.00  0.00    -0.477 OA
ATOM     30  H1  UNL     1       9.402  14.568  36.699  0.00  0.00    +0.295 HD
ENDBRANCH  28  29
ENDBRANCH  20  28
ENDBRANCH  18  25
ENDBRANCH   1  18
TORSDOF 5
ENDMDL
MODEL 5
REMARK VINA RESULT:    -7.280     16.519     17.437
REMARK INTER + INTRA:          -9.726
REMARK INTER:                  -9.134
REMARK INTRA:                  -0.592
REMARK UNBOUND:                -0.531
REMARK  Name = /home/qwerty/github/datacon2025hack/step_04_hit_selection/docking/ligands/lig_663.pdb
REMARK  5 active torsions:
REMARK  status: ('A' for Active; 'I' for Inactive)
REMARK    1  A    between atoms: C1_2  and  O2_3
REMARK    2  A    between atoms: C1_2  and  C2_4
REMARK    3  A    between atoms: C6_9  and  N1_10
REMARK    4  A    between atoms: N1_10  and  C7_11
REMARK    5  A    between atoms: C10_16  and  C11_17
REMARK                            x       y       z     vdW  Elec       q    Type
REMARK                         _______ _______ _______ _____ _____    ______ ____
ROOT
ATOM      1  C7  UNL     1      16.061  12.400  37.006  0.00  0.00    +0.052 A 
ATOM      2  C8  UNL     1      16.790  13.161  36.054  0.00  0.00    +0.136 A 
ATOM      3  N2  UNL     1      18.015  12.744  35.614  0.00  0.00    -0.234 NA
ATOM      4  C9  UNL     1      18.519  11.582  36.097  0.00  0.00    +0.158 A 
ATOM      5  N3  UNL     1      19.684  11.012  35.775  0.00  0.00    -0.323 N 
ATOM      6  C10 UNL     1      19.691   9.866  36.512  0.00  0.00    +0.140 A 
ATOM      7  N4  UNL     1      18.571   9.710  37.273  0.00  0.00    -0.226 NA
ATOM      8  C17 UNL     1      17.854  10.811  36.989  0.00  0.00    +0.110 A 
ATOM      9  C18 UNL     1      16.605  11.179  37.471  0.00  0.00    +0.056 A 
ATOM     10  H6  UNL     1      20.393  11.375  35.101  0.00  0.00    +0.169 HD
ENDROOT
BRANCH   6  11
ATOM     11  C11 UNL     1      20.793   8.870  36.497  0.00  0.00    +0.020 A 
ATOM     12  C12 UNL     1      20.909   7.939  37.547  0.00  0.00    +0.012 A 
ATOM     13  C13 UNL     1      21.939   6.995  37.550  0.00  0.00    +0.003 A 
ATOM     14  C14 UNL     1      22.867   6.969  36.508  0.00  0.00    +0.038 A 
ATOM     15  C15 UNL     1      22.768   7.887  35.461  0.00  0.00    +0.124 A 
ATOM     16  F2  UNL     1      23.672   7.861  34.451  0.00  0.00    -0.205 F 
ATOM     17  C16 UNL     1      21.738   8.834  35.453  0.00  0.00    +0.049 A 
ENDBRANCH   6  11
BRANCH   1  18
ATOM     18  N1  UNL     1      14.762  12.849  37.426  0.00  0.00    -0.313 N 
ATOM     19  H4  UNL     1      14.712  13.502  38.242  0.00  0.00    +0.152 HD
BRANCH  18  25
ATOM     20  C2  UNL     1      11.945  10.713  36.176  0.00  0.00    +0.063 A 
ATOM     21  C3  UNL     1      11.160  11.673  35.513  0.00  0.00    +0.053 A 
ATOM     22  C4  UNL     1      11.560  13.011  35.476  0.00  0.00    +0.126 A 
ATOM     23  F1  UNL     1      10.805  13.926  34.819  0.00  0.00    -0.205 F 
ATOM     24  C5  UNL     1      12.742  13.408  36.106  0.00  0.00    +0.061 A 
ATOM     25  C6  UNL     1      13.527  12.468  36.795  0.00  0.00    +0.035 A 
ATOM     26  C19 UNL     1      13.134  11.121  36.807  0.00  0.00    +0.038 A 
BRANCH  20  28
ATOM     27  O1  UNL     1      12.372   8.378  35.985  0.00  0.00    -0.245 OA
ATOM     28  C1  UNL     1      11.532   9.292  36.208  0.00  0.00    +0.337 C 
BRANCH  28  29
ATOM     29  O2  UNL     1      10.211   8.952  36.482  0.00  0.00    -0.477 OA
ATOM     30  H1  UNL     1       9.444   9.503  36.116  0.00  0.00    +0.295 HD
ENDBRANCH  28  29
ENDBRANCH  20  28
ENDBRANCH  18  25
ENDBRANCH   1  18
TORSDOF 5
ENDMDL
MODEL 6
REMARK VINA RESULT:    -7.128      5.712      8.065
REMARK INTER + INTRA:          -9.534
REMARK INTER:                  -8.886
REMARK INTRA:                  -0.648
REMARK UNBOUND:                -0.531
REMARK  Name = /home/qwerty/github/datacon2025hack/step_04_hit_selection/docking/ligands/lig_663.pdb
REMARK  5 active torsions:
REMARK  status: ('A' for Active; 'I' for Inactive)
REMARK    1  A    between atoms: C1_2  and  O2_3
REMARK    2  A    between atoms: C1_2  and  C2_4
REMARK    3  A    between atoms: C6_9  and  N1_10
REMARK    4  A    between atoms: N1_10  and  C7_11
REMARK    5  A    between atoms: C10_16  and  C11_17
REMARK                            x       y       z     vdW  Elec       q    Type
REMARK                         _______ _______ _______ _____ _____    ______ ____
ROOT
ATOM      1  C7  UNL     1      15.852   0.104  21.772  0.00  0.00    +0.052 A 
ATOM      2  C8  UNL     1      16.170  -1.203  22.226  0.00  0.00    +0.136 A 
ATOM      3  N2  UNL     1      17.192  -1.408  23.111  0.00  0.00    -0.234 NA
ATOM      4  C9  UNL     1      17.892  -0.335  23.556  0.00  0.00    +0.158 A 
ATOM      5  N3  UNL     1      18.906  -0.339  24.426  0.00  0.00    -0.323 N 
ATOM      6  C10 UNL     1      19.226   0.980  24.546  0.00  0.00    +0.140 A 
ATOM      7  N4  UNL     1      18.443   1.794  23.782  0.00  0.00    -0.226 NA
ATOM      8  C17 UNL     1      17.614   0.932  23.170  0.00  0.00    +0.110 A 
ATOM      9  C18 UNL     1      16.587   1.204  22.276  0.00  0.00    +0.056 A 
ATOM     10  H6  UNL     1      19.322  -1.171  24.899  0.00  0.00    +0.169 HD
ENDROOT
BRANCH   6  11
ATOM     11  C11 UNL     1      20.308   1.501  25.419  0.00  0.00    +0.020 A 
ATOM     12  C12 UNL     1      20.459   0.994  26.725  0.00  0.00    +0.012 A 
ATOM     13  C13 UNL     1      21.472   1.472  27.560  0.00  0.00    +0.003 A 
ATOM     14  C14 UNL     1      22.343   2.464  27.107  0.00  0.00    +0.038 A 
ATOM     15  C15 UNL     1      22.205   2.980  25.817  0.00  0.00    +0.124 A 
ATOM     16  F2  UNL     1      23.050   3.945  25.380  0.00  0.00    -0.205 F 
ATOM     17  C16 UNL     1      21.193   2.503  24.976  0.00  0.00    +0.049 A 
ENDBRANCH   6  11
BRANCH   1  18
ATOM     18  N1  UNL     1      14.752   0.292  20.866  0.00  0.00    -0.313 N 
ATOM     19  H4  UNL     1      14.782  -0.218  19.953  0.00  0.00    +0.152 HD
BRANCH  18  25
ATOM     20  C2  UNL     1      11.435   1.411  22.206  0.00  0.00    +0.063 A 
ATOM     21  C3  UNL     1      11.333   2.689  21.627  0.00  0.00    +0.053 A 
ATOM     22  C4  UNL     1      12.349   3.173  20.799  0.00  0.00    +0.126 A 
ATOM     23  F1  UNL     1      12.234   4.398  20.231  0.00  0.00    -0.205 F 
ATOM     24  C5  UNL     1      13.479   2.392  20.546  0.00  0.00    +0.061 A 
ATOM     25  C6  UNL     1      13.611   1.124  21.135  0.00  0.00    +0.035 A 
ATOM     26  C19 UNL     1      12.576   0.632  21.946  0.00  0.00    +0.038 A 
BRANCH  20  28
ATOM     27  O1  UNL     1      10.304   1.212  24.293  0.00  0.00    -0.245 OA
ATOM     28  C1  UNL     1      10.356   0.889  23.075  0.00  0.00    +0.337 C 
BRANCH  28  29
ATOM     29  O2  UNL     1       9.388   0.035  22.554  0.00  0.00    -0.477 OA
ATOM     30  H1  UNL     1       8.570  -0.217  23.097  0.00  0.00    +0.295 HD
ENDBRANCH  28  29
ENDBRANCH  20  28
ENDBRANCH  18  25
ENDBRANCH   1  18
TORSDOF 5
ENDMDL
MODEL 7
REMARK VINA RESULT:    -7.115     13.853     17.155
REMARK INTER + INTRA:          -9.518
REMARK INTER:                  -8.896
REMARK INTRA:                  -0.622
REMARK UNBOUND:                -0.531
REMARK  Name = /home/qwerty/github/datacon2025hack/step_04_hit_selection/docking/ligands/lig_663.pdb
REMARK  5 active torsions:
REMARK  status: ('A' for Active; 'I' for Inactive)
REMARK    1  A    between atoms: C1_2  and  O2_3
REMARK    2  A    between atoms: C1_2  and  C2_4
REMARK    3  A    between atoms: C6_9  and  N1_10
REMARK    4  A    between atoms: N1_10  and  C7_11
REMARK    5  A    between atoms: C10_16  and  C11_17
REMARK                            x       y       z     vdW  Elec       q    Type
REMARK                         _______ _______ _______ _____ _____    ______ ____
ROOT
ATOM      1  C7  UNL     1      13.157  13.534  35.829  0.00  0.00    +0.052 A 
ATOM      2  C8  UNL     1      11.794  13.859  36.055  0.00  0.00    +0.136 A 
ATOM      3  N2  UNL     1      10.951  14.112  35.009  0.00  0.00    -0.234 NA
ATOM      4  C9  UNL     1      11.440  14.036  33.747  0.00  0.00    +0.158 A 
ATOM      5  N3  UNL     1      10.768  14.235  32.609  0.00  0.00    -0.323 N 
ATOM      6  C10 UNL     1      11.706  14.015  31.645  0.00  0.00    +0.140 A 
ATOM      7  N4  UNL     1      12.929  13.686  32.150  0.00  0.00    -0.226 NA
ATOM      8  C17 UNL     1      12.726  13.711  33.478  0.00  0.00    +0.110 A 
ATOM      9  C18 UNL     1      13.629  13.440  34.498  0.00  0.00    +0.056 A 
ATOM     10  H6  UNL     1       9.760  14.482  32.513  0.00  0.00    +0.169 HD
ENDROOT
BRANCH   6  11
ATOM     11  C11 UNL     1      11.443  14.110  30.186  0.00  0.00    +0.020 A 
ATOM     12  C12 UNL     1      10.271  13.543  29.648  0.00  0.00    +0.012 A 
ATOM     13  C13 UNL     1      10.007  13.623  28.278  0.00  0.00    +0.003 A 
ATOM     14  C14 UNL     1      10.909  14.266  27.428  0.00  0.00    +0.038 A 
ATOM     15  C15 UNL     1      12.076  14.829  27.945  0.00  0.00    +0.124 A 
ATOM     16  F2  UNL     1      12.952  15.451  27.118  0.00  0.00    -0.205 F 
ATOM     17  C16 UNL     1      12.345  14.753  29.317  0.00  0.00    +0.049 A 
ENDBRANCH   6  11
BRANCH   1  18
ATOM     18  N1  UNL     1      14.012  13.244  36.948  0.00  0.00    -0.313 N 
ATOM     19  H4  UNL     1      13.823  13.743  37.847  0.00  0.00    +0.152 HD
BRANCH  18  25
ATOM     20  C2  UNL     1      17.483  11.871  36.597  0.00  0.00    +0.063 A 
ATOM     21  C3  UNL     1      17.243  10.496  36.776  0.00  0.00    +0.053 A 
ATOM     22  C4  UNL     1      15.947  10.029  37.006  0.00  0.00    +0.126 A 
ATOM     23  F1  UNL     1      15.723   8.701  37.159  0.00  0.00    -0.205 F 
ATOM     24  C5  UNL     1      14.878  10.926  37.067  0.00  0.00    +0.061 A 
ATOM     25  C6  UNL     1      15.101  12.305  36.916  0.00  0.00    +0.035 A 
ATOM     26  C19 UNL     1      16.401  12.767  36.661  0.00  0.00    +0.038 A 
BRANCH  20  28
ATOM     27  O1  UNL     1      19.128  12.955  35.259  0.00  0.00    -0.245 OA
ATOM     28  C1  UNL     1      18.853  12.370  36.342  0.00  0.00    +0.337 C 
BRANCH  28  29
ATOM     29  O2  UNL     1      19.852  12.198  37.296  0.00  0.00    -0.477 OA
ATOM     30  H1  UNL     1      19.713  12.495  38.255  0.00  0.00    +0.295 HD
ENDBRANCH  28  29
ENDBRANCH  20  28
ENDBRANCH  18  25
ENDBRANCH   1  18
TORSDOF 5
ENDMDL
MODEL 8
REMARK VINA RESULT:    -7.105     15.548     16.680
REMARK INTER + INTRA:          -9.505
REMARK INTER:                  -9.090
REMARK INTRA:                  -0.414
REMARK UNBOUND:                -0.531
REMARK  Name = /home/qwerty/github/datacon2025hack/step_04_hit_selection/docking/ligands/lig_663.pdb
REMARK  5 active torsions:
REMARK  status: ('A' for Active; 'I' for Inactive)
REMARK    1  A    between atoms: C1_2  and  O2_3
REMARK    2  A    between atoms: C1_2  and  C2_4
REMARK    3  A    between atoms: C6_9  and  N1_10
REMARK    4  A    between atoms: N1_10  and  C7_11
REMARK    5  A    between atoms: C10_16  and  C11_17
REMARK                            x       y       z     vdW  Elec       q    Type
REMARK                         _______ _______ _______ _____ _____    ______ ____
ROOT
ATOM      1  C7  UNL     1      21.568   7.482  36.408  0.00  0.00    +0.052 A 
ATOM      2  C8  UNL     1      22.955   7.430  36.109  0.00  0.00    +0.136 A 
ATOM      3  N2  UNL     1      23.453   6.481  35.260  0.00  0.00    -0.234 NA
ATOM      4  C9  UNL     1      22.595   5.594  34.700  0.00  0.00    +0.158 A 
ATOM      5  N3  UNL     1      22.894   4.614  33.843  0.00  0.00    -0.323 N 
ATOM      6  C10 UNL     1      21.684   4.046  33.575  0.00  0.00    +0.140 A 
ATOM      7  N4  UNL     1      20.652   4.645  34.236  0.00  0.00    -0.226 NA
ATOM      8  C17 UNL     1      21.262   5.615  34.937  0.00  0.00    +0.110 A 
ATOM      9  C18 UNL     1      20.696   6.556  35.786  0.00  0.00    +0.056 A 
ATOM     10  H6  UNL     1      23.838   4.374  33.471  0.00  0.00    +0.169 HD
ENDROOT
BRANCH   6  11
ATOM     11  C11 UNL     1      21.485   2.898  32.655  0.00  0.00    +0.020 A 
ATOM     12  C12 UNL     1      20.577   1.877  32.997  0.00  0.00    +0.012 A 
ATOM     13  C13 UNL     1      20.377   0.789  32.143  0.00  0.00    +0.003 A 
ATOM     14  C14 UNL     1      21.081   0.703  30.941  0.00  0.00    +0.038 A 
ATOM     15  C15 UNL     1      21.988   1.705  30.590  0.00  0.00    +0.124 A 
ATOM     16  F2  UNL     1      22.673   1.618  29.423  0.00  0.00    -0.205 F 
ATOM     17  C16 UNL     1      22.191   2.798  31.440  0.00  0.00    +0.049 A 
ENDBRANCH   6  11
BRANCH   1  18
ATOM     18  N1  UNL     1      21.069   8.511  37.280  0.00  0.00    -0.313 N 
ATOM     19  H4  UNL     1      21.739   8.942  37.957  0.00  0.00    +0.152 HD
BRANCH  18  25
ATOM     20  C2  UNL     1      18.133  10.793  36.802  0.00  0.00    +0.063 A 
ATOM     21  C3  UNL     1      17.093   9.997  37.316  0.00  0.00    +0.053 A 
ATOM     22  C4  UNL     1      17.362   8.721  37.817  0.00  0.00    +0.126 A 
ATOM     23  F1  UNL     1      16.355   7.968  38.326  0.00  0.00    -0.205 F 
ATOM     24  C5  UNL     1      18.666   8.222  37.807  0.00  0.00    +0.061 A 
ATOM     25  C6  UNL     1      19.714   8.992  37.276  0.00  0.00    +0.035 A 
ATOM     26  C19 UNL     1      19.443  10.283  36.795  0.00  0.00    +0.038 A 
BRANCH  20  28
ATOM     27  O1  UNL     1      17.934  12.386  35.043  0.00  0.00    -0.245 OA
ATOM     28  C1  UNL     1      17.856  12.150  36.280  0.00  0.00    +0.337 C 
BRANCH  28  29
ATOM     29  O2  UNL     1      17.508  13.179  37.150  0.00  0.00    -0.477 OA
ATOM     30  H1  UNL     1      16.858  13.903  36.866  0.00  0.00    +0.295 HD
ENDBRANCH  28  29
ENDBRANCH  20  28
ENDBRANCH  18  25
ENDBRANCH   1  18
TORSDOF 5
ENDMDL
MODEL 9
REMARK VINA RESULT:    -7.090      5.526      7.897
REMARK INTER + INTRA:          -9.485
REMARK INTER:                  -8.821
REMARK INTRA:                  -0.665
REMARK UNBOUND:                -0.531
REMARK  Name = /home/qwerty/github/datacon2025hack/step_04_hit_selection/docking/ligands/lig_663.pdb
REMARK  5 active torsions:
REMARK  status: ('A' for Active; 'I' for Inactive)
REMARK    1  A    between atoms: C1_2  and  O2_3
REMARK    2  A    between atoms: C1_2  and  C2_4
REMARK    3  A    between atoms: C6_9  and  N1_10
REMARK    4  A    between atoms: N1_10  and  C7_11
REMARK    5  A    between atoms: C10_16  and  C11_17
REMARK                            x       y       z     vdW  Elec       q    Type
REMARK                         _______ _______ _______ _____ _____    ______ ____
ROOT
ATOM      1  C7  UNL     1      15.823   0.061  21.821  0.00  0.00    +0.052 A 
ATOM      2  C8  UNL     1      16.142  -1.244  22.281  0.00  0.00    +0.136 A 
ATOM      3  N2  UNL     1      17.168  -1.444  23.161  0.00  0.00    -0.234 NA
ATOM      4  C9  UNL     1      17.872  -0.370  23.596  0.00  0.00    +0.158 A 
ATOM      5  N3  UNL     1      18.891  -0.370  24.460  0.00  0.00    -0.323 N 
ATOM      6  C10 UNL     1      19.214   0.949  24.569  0.00  0.00    +0.140 A 
ATOM      7  N4  UNL     1      18.428   1.760  23.804  0.00  0.00    -0.226 NA
ATOM      8  C17 UNL     1      17.595   0.895  23.202  0.00  0.00    +0.110 A 
ATOM      9  C18 UNL     1      16.563   1.163  22.313  0.00  0.00    +0.056 A 
ATOM     10  H6  UNL     1      19.308  -1.200  24.935  0.00  0.00    +0.169 HD
ENDROOT
BRANCH   6  11
ATOM     11  C11 UNL     1      20.302   1.474  25.433  0.00  0.00    +0.020 A 
ATOM     12  C12 UNL     1      20.454   0.982  26.744  0.00  0.00    +0.012 A 
ATOM     13  C13 UNL     1      21.472   1.465  27.571  0.00  0.00    +0.003 A 
ATOM     14  C14 UNL     1      22.349   2.445  27.102  0.00  0.00    +0.038 A 
ATOM     15  C15 UNL     1      22.210   2.944  25.806  0.00  0.00    +0.124 A 
ATOM     16  F2  UNL     1      23.062   3.897  25.354  0.00  0.00    -0.205 F 
ATOM     17  C16 UNL     1      21.193   2.464  24.973  0.00  0.00    +0.049 A 
ENDBRANCH   6  11
BRANCH   1  18
ATOM     18  N1  UNL     1      14.718   0.244  20.919  0.00  0.00    -0.313 N 
ATOM     19  H4  UNL     1      14.757  -0.244  19.995  0.00  0.00    +0.152 HD
BRANCH  18  25
ATOM     20  C2  UNL     1      12.269   3.081  20.811  0.00  0.00    +0.063 A 
ATOM     21  C3  UNL     1      11.346   2.672  21.791  0.00  0.00    +0.053 A 
ATOM     22  C4  UNL     1      11.535   1.472  22.482  0.00  0.00    +0.126 A 
ATOM     23  F1  UNL     1      10.650   1.095  23.436  0.00  0.00    -0.205 F 
ATOM     24  C5  UNL     1      12.640   0.666  22.199  0.00  0.00    +0.061 A 
ATOM     25  C6  UNL     1      13.559   1.045  21.207  0.00  0.00    +0.035 A 
ATOM     26  C19 UNL     1      13.379   2.263  20.533  0.00  0.00    +0.038 A 
BRANCH  20  28
ATOM     27  O1  UNL     1      13.070   5.092  19.816  0.00  0.00    -0.245 OA
ATOM     28  C1  UNL     1      12.081   4.357  20.084  0.00  0.00    +0.337 C 
BRANCH  28  29
ATOM     29  O2  UNL     1      10.807   4.758  19.690  0.00  0.00    -0.477 OA
ATOM     30  H1  UNL     1      10.648   5.156  18.771  0.00  0.00    +0.295 HD
ENDBRANCH  28  29
ENDBRANCH  20  28
ENDBRANCH  18  25
ENDBRANCH   1  18
TORSDOF 5
ENDMDL
