REMARK  Name = /home/qwerty/github/datacon2025hack/step_04_hit_selection/docking/ligands/lig_64.pdb
REMARK  5 active torsions:
REMARK  status: ('A' for Active; 'I' for Inactive)
REMARK    1  A    between atoms: C1_2  and  C2_3
REMARK    2  A    between atoms: C2_3  and  C3_4
REMARK    3  A    between atoms: N1_11  and  C9_12
REMARK    4  A    between atoms: C9_12  and  C10_13
REMARK    5  A    between atoms: C13_17  and  C14_19
REMARK                            x       y       z     vdW  Elec       q    Type
REMARK                         _______ _______ _______ _____ _____    ______ ____
ROOT
ATOM      1  C9  UNL     1      -0.238  -0.107   0.348  0.00  0.00    +0.126 C 
ENDROOT
BRANCH   1   2
ATOM      2  C10 UNL     1       0.802  -0.981  -0.375  0.00  0.00    +0.095 C 
ATOM      3  C11 UNL     1       1.046  -2.302   0.292  0.00  0.00    +0.043 C 
ATOM      4  C12 UNL     1       2.425  -1.758   0.466  0.00  0.00    +0.110 C 
ATOM      5  N2  UNL     1       2.170  -0.456  -0.185  0.00  0.00    -0.293 N 
ATOM      6  C13 UNL     1       2.845   0.785  -0.419  0.00  0.00    +0.247 C 
ATOM      7  O2  UNL     1       2.205   1.740  -0.934  0.00  0.00    -0.270 OA
BRANCH   6   8
ATOM      8  C14 UNL     1       4.255   0.986  -0.026  0.00  0.00    +0.037 A 
ATOM      9  C15 UNL     1       4.673   2.238   0.460  0.00  0.00    +0.016 A 
ATOM     10  C16 UNL     1       6.004   2.444   0.835  0.00  0.00    +0.039 A 
ATOM     11  C17 UNL     1       6.933   1.408   0.717  0.00  0.00    +0.123 A 
ATOM     12  F2  UNL     1       8.225   1.610   1.078  0.00  0.00    -0.205 F 
ATOM     13  C18 UNL     1       6.533   0.166   0.218  0.00  0.00    +0.039 A 
ATOM     14  C19 UNL     1       5.202  -0.045  -0.157  0.00  0.00    +0.016 A 
ENDBRANCH   6   8
ENDBRANCH   1   2
BRANCH   1  17
ATOM     15  O1  UNL     1      -1.924  -0.220  -1.964  0.00  0.00    -0.275 OA
ATOM     16  C1  UNL     1      -2.345  -0.765  -0.908  0.00  0.00    +0.217 C 
ATOM     17  N1  UNL     1      -1.561  -0.726   0.293  0.00  0.00    -0.313 N 
ATOM     18  H7  UNL     1      -1.967  -1.109   1.176  0.00  0.00    +0.149 HD
BRANCH  16  19
ATOM     19  C2  UNL     1      -3.698  -1.408  -0.900  0.00  0.00    +0.130 C 
BRANCH  19  20
ATOM     20  C3  UNL     1      -4.730  -0.432  -0.406  0.00  0.00    -0.038 A 
ATOM     21  C4  UNL     1      -5.338   0.467  -1.299  0.00  0.00    +0.007 A 
ATOM     22  C5  UNL     1      -6.274   1.396  -0.835  0.00  0.00    +0.038 A 
ATOM     23  C6  UNL     1      -6.603   1.441   0.523  0.00  0.00    +0.123 A 
ATOM     24  F1  UNL     1      -7.510   2.344   0.971  0.00  0.00    -0.205 F 
ATOM     25  C7  UNL     1      -5.994   0.557   1.419  0.00  0.00    +0.038 A 
ATOM     26  C8  UNL     1      -5.058  -0.374   0.959  0.00  0.00    +0.007 A 
ENDBRANCH  19  20
ENDBRANCH  16  19
ENDBRANCH   1  17
TORSDOF 5
