MODEL 1
REMARK VINA RESULT:    -6.246      0.000      0.000
REMARK INTER + INTRA:          -8.216
REMARK INTER:                  -7.707
REMARK INTRA:                  -0.509
REMARK UNBOUND:                -0.509
REMARK  Name = /home/qwerty/github/datacon2025hack/step_04_hit_selection/docking/ligands/lig_526.pdb
REMARK  5 active torsions:
REMARK  status: ('A' for Active; 'I' for Inactive)
REMARK    1  A    between atoms: C1_1  and  C2_2
REMARK    2  A    between atoms: N2_7  and  C5_8
REMARK    3  A    between atoms: C9_12  and  N3_13
REMARK    4  A    between atoms: C10_14  and  C11_16
REMARK    5  A    between atoms: C14_19  and  C15_20
REMARK                            x       y       z     vdW  Elec       q    Type
REMARK                         _______ _______ _______ _____ _____    ______ ____
ROOT
ATOM      1  C5  UNL     1      20.756   7.445  36.252  0.00  0.00    +0.040 A 
ATOM      2  C6  UNL     1      21.956   7.485  36.983  0.00  0.00    +0.024 A 
ATOM      3  C7  UNL     1      23.056   6.723  36.579  0.00  0.00    +0.004 A 
ATOM      4  C8  UNL     1      22.966   5.902  35.454  0.00  0.00    +0.023 A 
ATOM      5  C9  UNL     1      21.764   5.820  34.730  0.00  0.00    +0.035 A 
ATOM      6  C18 UNL     1      20.670   6.604  35.129  0.00  0.00    +0.047 A 
ENDROOT
BRANCH   1  13
ATOM      7  C1  UNL     1      16.286  11.726  37.372  0.00  0.00    +0.110 C 
ATOM      8  C2  UNL     1      17.408  11.239  36.510  0.00  0.00    +0.220 C 
ATOM      9  O1  UNL     1      17.755  11.922  35.509  0.00  0.00    -0.275 OA
ATOM     10  N1  UNL     1      18.086  10.009  36.814  0.00  0.00    -0.224 N 
ATOM     11  C3  UNL     1      17.793   9.133  37.945  0.00  0.00    +0.137 C 
ATOM     12  C4  UNL     1      18.763   7.933  37.814  0.00  0.00    +0.135 C 
ATOM     13  N2  UNL     1      19.616   8.226  36.662  0.00  0.00    -0.253 N 
ATOM     14  C19 UNL     1      19.156   9.436  36.088  0.00  0.00    +0.315 C 
ATOM     15  O3  UNL     1      19.606   9.920  35.014  0.00  0.00    -0.252 OA
ENDBRANCH   1  13
BRANCH   5  16
ATOM     16  N3  UNL     1      21.652   4.996  33.557  0.00  0.00    -0.281 N 
ATOM     17  C10 UNL     1      21.026   3.702  33.548  0.00  0.00    +0.248 C 
ATOM     18  O2  UNL     1      20.195   3.403  34.449  0.00  0.00    -0.270 OA
ATOM     19  H11 UNL     1      21.938   5.409  32.641  0.00  0.00    +0.155 HD
BRANCH  17  20
ATOM     20  C11 UNL     1      21.306   2.728  32.464  0.00  0.00    +0.037 A 
ATOM     21  C12 UNL     1      20.529   1.564  32.318  0.00  0.00    +0.014 A 
ATOM     22  C13 UNL     1      20.797   0.655  31.290  0.00  0.00    +0.019 A 
ATOM     23  C14 UNL     1      21.840   0.899  30.390  0.00  0.00    +0.052 A 
ATOM     24  C16 UNL     1      22.613   2.059  30.519  0.00  0.00    +0.019 A 
ATOM     25  C17 UNL     1      22.347   2.969  31.547  0.00  0.00    +0.014 A 
BRANCH  23  26
ATOM     26  C15 UNL     1      22.114  -0.036  29.331  0.00  0.00    +0.099 C 
ATOM     27  N4  UNL     1      22.334  -0.787  28.479  0.00  0.00    -0.191 NA
ENDBRANCH  23  26
ENDBRANCH  17  20
ENDBRANCH   5  16
TORSDOF 4
ENDMDL
MODEL 2
REMARK VINA RESULT:    -6.236     10.039     11.465
REMARK INTER + INTRA:          -8.203
REMARK INTER:                  -7.611
REMARK INTRA:                  -0.592
REMARK UNBOUND:                -0.509
REMARK  Name = /home/qwerty/github/datacon2025hack/step_04_hit_selection/docking/ligands/lig_526.pdb
REMARK  5 active torsions:
REMARK  status: ('A' for Active; 'I' for Inactive)
REMARK    1  A    between atoms: C1_1  and  C2_2
REMARK    2  A    between atoms: N2_7  and  C5_8
REMARK    3  A    between atoms: C9_12  and  N3_13
REMARK    4  A    between atoms: C10_14  and  C11_16
REMARK    5  A    between atoms: C14_19  and  C15_20
REMARK                            x       y       z     vdW  Elec       q    Type
REMARK                         _______ _______ _______ _____ _____    ______ ____
ROOT
ATOM      1  C5  UNL     1      22.430  15.038  27.301  0.00  0.00    +0.040 A 
ATOM      2  C6  UNL     1      21.819  15.925  28.203  0.00  0.00    +0.024 A 
ATOM      3  C7  UNL     1      21.731  15.605  29.560  0.00  0.00    +0.004 A 
ATOM      4  C8  UNL     1      22.236  14.392  30.030  0.00  0.00    +0.023 A 
ATOM      5  C9  UNL     1      22.819  13.474  29.139  0.00  0.00    +0.035 A 
ATOM      6  C18 UNL     1      22.923  13.811  27.781  0.00  0.00    +0.047 A 
ENDROOT
BRANCH   1  13
ATOM      7  C1  UNL     1      21.970  15.603  21.053  0.00  0.00    +0.110 C 
ATOM      8  C2  UNL     1      21.358  15.179  22.351  0.00  0.00    +0.220 C 
ATOM      9  O1  UNL     1      20.221  14.634  22.346  0.00  0.00    -0.275 OA
ATOM     10  N1  UNL     1      22.051  15.387  23.593  0.00  0.00    -0.224 N 
ATOM     11  C3  UNL     1      23.372  15.992  23.738  0.00  0.00    +0.137 C 
ATOM     12  C4  UNL     1      23.659  16.023  25.260  0.00  0.00    +0.135 C 
ATOM     13  N2  UNL     1      22.523  15.358  25.899  0.00  0.00    -0.253 N 
ATOM     14  C19 UNL     1      21.591  15.036  24.883  0.00  0.00    +0.315 C 
ATOM     15  O3  UNL     1      20.449  14.549  25.106  0.00  0.00    -0.252 OA
ENDBRANCH   1  13
BRANCH   5  16
ATOM     16  N3  UNL     1      23.363  12.225  29.601  0.00  0.00    -0.281 N 
ATOM     17  C10 UNL     1      22.559  11.132  30.076  0.00  0.00    +0.248 C 
ATOM     18  O2  UNL     1      21.348  11.052  29.734  0.00  0.00    -0.270 OA
ATOM     19  H11 UNL     1      24.388  12.063  29.476  0.00  0.00    +0.155 HD
BRANCH  17  20
ATOM     20  C11 UNL     1      23.149  10.065  30.922  0.00  0.00    +0.037 A 
ATOM     21  C12 UNL     1      24.431  10.214  31.484  0.00  0.00    +0.014 A 
ATOM     22  C13 UNL     1      24.976   9.206  32.285  0.00  0.00    +0.019 A 
ATOM     23  C14 UNL     1      24.247   8.038  32.540  0.00  0.00    +0.052 A 
ATOM     24  C16 UNL     1      22.968   7.885  31.993  0.00  0.00    +0.019 A 
ATOM     25  C17 UNL     1      22.421   8.892  31.192  0.00  0.00    +0.014 A 
BRANCH  23  26
ATOM     26  C15 UNL     1      24.808   7.002  33.365  0.00  0.00    +0.099 C 
ATOM     27  N4  UNL     1      25.259   6.169  34.030  0.00  0.00    -0.191 NA
ENDBRANCH  23  26
ENDBRANCH  17  20
ENDBRANCH   5  16
TORSDOF 4
ENDMDL
MODEL 3
REMARK VINA RESULT:    -6.211      7.954     11.090
REMARK INTER + INTRA:          -8.172
REMARK INTER:                  -7.556
REMARK INTRA:                  -0.617
REMARK UNBOUND:                -0.509
REMARK  Name = /home/qwerty/github/datacon2025hack/step_04_hit_selection/docking/ligands/lig_526.pdb
REMARK  5 active torsions:
REMARK  status: ('A' for Active; 'I' for Inactive)
REMARK    1  A    between atoms: C1_1  and  C2_2
REMARK    2  A    between atoms: N2_7  and  C5_8
REMARK    3  A    between atoms: C9_12  and  N3_13
REMARK    4  A    between atoms: C10_14  and  C11_16
REMARK    5  A    between atoms: C14_19  and  C15_20
REMARK                            x       y       z     vdW  Elec       q    Type
REMARK                         _______ _______ _______ _____ _____    ______ ____
ROOT
ATOM      1  C5  UNL     1      11.177   3.067  37.878  0.00  0.00    +0.040 A 
ATOM      2  C6  UNL     1      10.027   3.817  38.181  0.00  0.00    +0.024 A 
ATOM      3  C7  UNL     1      10.136   5.157  38.560  0.00  0.00    +0.004 A 
ATOM      4  C8  UNL     1      11.391   5.760  38.657  0.00  0.00    +0.023 A 
ATOM      5  C9  UNL     1      12.556   5.019  38.393  0.00  0.00    +0.035 A 
ATOM      6  C18 UNL     1      12.438   3.679  37.992  0.00  0.00    +0.047 A 
ENDROOT
BRANCH   1  13
ATOM      7  C1  UNL     1      10.065  -2.544  35.262  0.00  0.00    +0.110 C 
ATOM      8  C2  UNL     1      10.134  -1.055  35.124  0.00  0.00    +0.220 C 
ATOM      9  O1  UNL     1       9.823  -0.525  34.023  0.00  0.00    -0.275 OA
ATOM     10  N1  UNL     1      10.549  -0.234  36.228  0.00  0.00    -0.224 N 
ATOM     11  C3  UNL     1      10.922  -0.717  37.554  0.00  0.00    +0.137 C 
ATOM     12  C4  UNL     1      11.321   0.540  38.367  0.00  0.00    +0.135 C 
ATOM     13  N2  UNL     1      11.075   1.683  37.488  0.00  0.00    -0.253 N 
ATOM     14  C19 UNL     1      10.658   1.176  36.234  0.00  0.00    +0.315 C 
ATOM     15  O3  UNL     1      10.466   1.894  35.215  0.00  0.00    -0.252 OA
ENDBRANCH   1  13
BRANCH   5  16
ATOM     16  N3  UNL     1      13.859   5.622  38.468  0.00  0.00    -0.281 N 
ATOM     17  C10 UNL     1      14.601   6.065  37.319  0.00  0.00    +0.248 C 
ATOM     18  O2  UNL     1      13.994   6.323  36.244  0.00  0.00    -0.270 OA
ATOM     19  H11 UNL     1      14.235   5.855  39.415  0.00  0.00    +0.155 HD
BRANCH  17  20
ATOM     20  C11 UNL     1      16.069   6.273  37.394  0.00  0.00    +0.037 A 
ATOM     21  C12 UNL     1      16.961   5.201  37.208  0.00  0.00    +0.014 A 
ATOM     22  C13 UNL     1      18.343   5.408  37.275  0.00  0.00    +0.019 A 
ATOM     23  C14 UNL     1      18.851   6.687  37.524  0.00  0.00    +0.052 A 
ATOM     24  C16 UNL     1      17.972   7.762  37.702  0.00  0.00    +0.019 A 
ATOM     25  C17 UNL     1      16.590   7.558  37.635  0.00  0.00    +0.014 A 
BRANCH  23  26
ATOM     26  C15 UNL     1      20.273   6.899  37.592  0.00  0.00    +0.099 C 
ATOM     27  N4  UNL     1      21.416   7.069  37.646  0.00  0.00    -0.191 NA
ENDBRANCH  23  26
ENDBRANCH  17  20
ENDBRANCH   5  16
TORSDOF 4
ENDMDL
MODEL 4
REMARK VINA RESULT:    -6.101     14.539     15.422
REMARK INTER + INTRA:          -8.037
REMARK INTER:                  -7.444
REMARK INTRA:                  -0.593
REMARK UNBOUND:                -0.509
REMARK  Name = /home/qwerty/github/datacon2025hack/step_04_hit_selection/docking/ligands/lig_526.pdb
REMARK  5 active torsions:
REMARK  status: ('A' for Active; 'I' for Inactive)
REMARK    1  A    between atoms: C1_1  and  C2_2
REMARK    2  A    between atoms: N2_7  and  C5_8
REMARK    3  A    between atoms: C9_12  and  N3_13
REMARK    4  A    between atoms: C10_14  and  C11_16
REMARK    5  A    between atoms: C14_19  and  C15_20
REMARK                            x       y       z     vdW  Elec       q    Type
REMARK                         _______ _______ _______ _____ _____    ______ ____
ROOT
ATOM      1  C5  UNL     1      22.874  15.250  21.612  0.00  0.00    +0.040 A 
ATOM      2  C6  UNL     1      23.855  15.833  20.790  0.00  0.00    +0.024 A 
ATOM      3  C7  UNL     1      24.162  15.271  19.549  0.00  0.00    +0.004 A 
ATOM      4  C8  UNL     1      23.509  14.114  19.119  0.00  0.00    +0.023 A 
ATOM      5  C9  UNL     1      22.550  13.496  19.941  0.00  0.00    +0.035 A 
ATOM      6  C18 UNL     1      22.231  14.077  21.178  0.00  0.00    +0.047 A 
ENDROOT
BRANCH   1  13
ATOM      7  C1  UNL     1      21.810  16.667  27.647  0.00  0.00    +0.110 C 
ATOM      8  C2  UNL     1      22.503  15.811  26.633  0.00  0.00    +0.220 C 
ATOM      9  O1  UNL     1      23.236  14.864  27.026  0.00  0.00    -0.275 OA
ATOM     10  N1  UNL     1      22.339  16.061  25.228  0.00  0.00    -0.224 N 
ATOM     11  C3  UNL     1      21.513  17.111  24.641  0.00  0.00    +0.137 C 
ATOM     12  C4  UNL     1      21.696  16.988  23.107  0.00  0.00    +0.135 C 
ATOM     13  N2  UNL     1      22.552  15.821  22.896  0.00  0.00    -0.253 N 
ATOM     14  C19 UNL     1      22.932  15.333  24.170  0.00  0.00    +0.315 C 
ATOM     15  O3  UNL     1      23.757  14.396  24.345  0.00  0.00    -0.252 OA
ENDBRANCH   1  13
BRANCH   5  16
ATOM     16  N3  UNL     1      21.850  12.314  19.514  0.00  0.00    -0.281 N 
ATOM     17  C10 UNL     1      20.466  12.303  19.126  0.00  0.00    +0.248 C 
ATOM     18  O2  UNL     1      19.913  13.373  18.751  0.00  0.00    -0.270 OA
ATOM     19  H11 UNL     1      22.408  11.442  19.368  0.00  0.00    +0.155 HD
BRANCH  17  20
ATOM     20  C11 UNL     1      19.690  11.038  19.112  0.00  0.00    +0.037 A 
ATOM     21  C12 UNL     1      18.330  11.021  19.473  0.00  0.00    +0.014 A 
ATOM     22  C13 UNL     1      17.605   9.825  19.452  0.00  0.00    +0.019 A 
ATOM     23  C14 UNL     1      18.227   8.632  19.065  0.00  0.00    +0.052 A 
ATOM     24  C16 UNL     1      19.577   8.640  18.695  0.00  0.00    +0.019 A 
ATOM     25  C17 UNL     1      20.303   9.835  18.716  0.00  0.00    +0.014 A 
BRANCH  23  26
ATOM     26  C15 UNL     1      17.480   7.402  19.042  0.00  0.00    +0.099 C 
ATOM     27  N4  UNL     1      16.879   6.414  19.024  0.00  0.00    -0.191 NA
ENDBRANCH  23  26
ENDBRANCH  17  20
ENDBRANCH   5  16
TORSDOF 4
ENDMDL
MODEL 5
REMARK VINA RESULT:    -6.052      4.055     10.126
REMARK INTER + INTRA:          -7.977
REMARK INTER:                  -7.379
REMARK INTRA:                  -0.597
REMARK UNBOUND:                -0.509
REMARK  Name = /home/qwerty/github/datacon2025hack/step_04_hit_selection/docking/ligands/lig_526.pdb
REMARK  5 active torsions:
REMARK  status: ('A' for Active; 'I' for Inactive)
REMARK    1  A    between atoms: C1_1  and  C2_2
REMARK    2  A    between atoms: N2_7  and  C5_8
REMARK    3  A    between atoms: C9_12  and  N3_13
REMARK    4  A    between atoms: C10_14  and  C11_16
REMARK    5  A    between atoms: C14_19  and  C15_20
REMARK                            x       y       z     vdW  Elec       q    Type
REMARK                         _______ _______ _______ _____ _____    ______ ____
ROOT
ATOM      1  C5  UNL     1      19.319   7.020  37.096  0.00  0.00    +0.040 A 
ATOM      2  C6  UNL     1      18.650   5.851  37.498  0.00  0.00    +0.024 A 
ATOM      3  C7  UNL     1      17.333   5.915  37.962  0.00  0.00    +0.004 A 
ATOM      4  C8  UNL     1      16.675   7.143  38.044  0.00  0.00    +0.023 A 
ATOM      5  C9  UNL     1      17.339   8.327  37.680  0.00  0.00    +0.035 A 
ATOM      6  C18 UNL     1      18.654   8.255  37.196  0.00  0.00    +0.047 A 
ENDROOT
BRANCH   1  13
ATOM      7  C1  UNL     1      24.762   6.254  34.037  0.00  0.00    +0.110 C 
ATOM      8  C2  UNL     1      23.269   6.352  33.994  0.00  0.00    +0.220 C 
ATOM      9  O1  UNL     1      22.675   6.205  32.892  0.00  0.00    -0.275 OA
ATOM     10  N1  UNL     1      22.516   6.611  35.190  0.00  0.00    -0.224 N 
ATOM     11  C3  UNL     1      23.076   6.788  36.526  0.00  0.00    +0.137 C 
ATOM     12  C4  UNL     1      21.872   7.075  37.457  0.00  0.00    +0.135 C 
ATOM     13  N2  UNL     1      20.678   6.965  36.618  0.00  0.00    -0.253 N 
ATOM     14  C19 UNL     1      21.110   6.727  35.290  0.00  0.00    +0.315 C 
ATOM     15  O3  UNL     1      20.335   6.687  34.296  0.00  0.00    -0.252 OA
ENDBRANCH   1  13
BRANCH   5  16
ATOM     16  N3  UNL     1      16.677   9.603  37.739  0.00  0.00    -0.281 N 
ATOM     17  C10 UNL     1      15.928  10.165  36.648  0.00  0.00    +0.248 C 
ATOM     18  O2  UNL     1      15.474   9.409  35.747  0.00  0.00    -0.270 OA
ATOM     19  H11 UNL     1      16.642  10.093  38.661  0.00  0.00    +0.155 HD
BRANCH  17  20
ATOM     20  C11 UNL     1      15.639  11.620  36.593  0.00  0.00    +0.037 A 
ATOM     21  C12 UNL     1      16.623  12.538  36.180  0.00  0.00    +0.014 A 
ATOM     22  C13 UNL     1      16.339  13.906  36.126  0.00  0.00    +0.019 A 
ATOM     23  C14 UNL     1      15.068  14.375  36.478  0.00  0.00    +0.052 A 
ATOM     24  C16 UNL     1      14.080  13.469  36.881  0.00  0.00    +0.019 A 
ATOM     25  C17 UNL     1      14.361  12.101  36.936  0.00  0.00    +0.014 A 
BRANCH  23  26
ATOM     26  C15 UNL     1      14.776  15.783  36.421  0.00  0.00    +0.099 C 
ATOM     27  N4  UNL     1      14.541  16.915  36.376  0.00  0.00    -0.191 NA
ENDBRANCH  23  26
ENDBRANCH  17  20
ENDBRANCH   5  16
TORSDOF 4
ENDMDL
MODEL 6
REMARK VINA RESULT:    -6.030      6.226     10.398
REMARK INTER + INTRA:          -7.950
REMARK INTER:                  -7.375
REMARK INTRA:                  -0.574
REMARK UNBOUND:                -0.509
REMARK  Name = /home/qwerty/github/datacon2025hack/step_04_hit_selection/docking/ligands/lig_526.pdb
REMARK  5 active torsions:
REMARK  status: ('A' for Active; 'I' for Inactive)
REMARK    1  A    between atoms: C1_1  and  C2_2
REMARK    2  A    between atoms: N2_7  and  C5_8
REMARK    3  A    between atoms: C9_12  and  N3_13
REMARK    4  A    between atoms: C10_14  and  C11_16
REMARK    5  A    between atoms: C14_19  and  C15_20
REMARK                            x       y       z     vdW  Elec       q    Type
REMARK                         _______ _______ _______ _____ _____    ______ ____
ROOT
ATOM      1  C5  UNL     1      12.053  12.570  34.887  0.00  0.00    +0.040 A 
ATOM      2  C6  UNL     1      10.924  12.564  35.725  0.00  0.00    +0.024 A 
ATOM      3  C7  UNL     1      10.952  11.883  36.945  0.00  0.00    +0.004 A 
ATOM      4  C8  UNL     1      12.097  11.188  37.335  0.00  0.00    +0.023 A 
ATOM      5  C9  UNL     1      13.225  11.152  36.497  0.00  0.00    +0.035 A 
ATOM      6  C18 UNL     1      13.197  11.855  35.282  0.00  0.00    +0.047 A 
ENDROOT
BRANCH   1  13
ATOM      7  C1  UNL     1      11.882  14.506  28.905  0.00  0.00    +0.110 C 
ATOM      8  C2  UNL     1      11.593  13.443  29.918  0.00  0.00    +0.220 C 
ATOM      9  O1  UNL     1      11.107  12.345  29.535  0.00  0.00    -0.275 OA
ATOM     10  N1  UNL     1      11.863  13.664  31.312  0.00  0.00    -0.224 N 
ATOM     11  C3  UNL     1      12.434  14.879  31.885  0.00  0.00    +0.137 C 
ATOM     12  C4  UNL     1      12.495  14.639  33.414  0.00  0.00    +0.135 C 
ATOM     13  N2  UNL     1      12.033  13.267  33.626  0.00  0.00    -0.253 N 
ATOM     14  C19 UNL     1      11.640  12.750  32.368  0.00  0.00    +0.315 C 
ATOM     15  O3  UNL     1      11.092  11.625  32.211  0.00  0.00    -0.252 OA
ENDBRANCH   1  13
BRANCH   5  16
ATOM     16  N3  UNL     1      14.423  10.458  36.885  0.00  0.00    -0.281 N 
ATOM     17  C10 UNL     1      15.659  11.118  37.206  0.00  0.00    +0.248 C 
ATOM     18  O2  UNL     1      15.648  12.329  37.558  0.00  0.00    -0.270 OA
ATOM     19  H11 UNL     1      14.359   9.429  37.054  0.00  0.00    +0.155 HD
BRANCH  17  20
ATOM     20  C11 UNL     1      16.946  10.380  37.177  0.00  0.00    +0.037 A 
ATOM     21  C12 UNL     1      18.047  10.873  36.451  0.00  0.00    +0.014 A 
ATOM     22  C13 UNL     1      19.257  10.173  36.434  0.00  0.00    +0.019 A 
ATOM     23  C14 UNL     1      19.387   8.975  37.146  0.00  0.00    +0.052 A 
ATOM     24  C16 UNL     1      18.302   8.481  37.879  0.00  0.00    +0.019 A 
ATOM     25  C17 UNL     1      17.090   9.179  37.897  0.00  0.00    +0.014 A 
BRANCH  23  26
ATOM     26  C15 UNL     1      20.633   8.256  37.130  0.00  0.00    +0.099 C 
ATOM     27  N4  UNL     1      21.635   7.677  37.117  0.00  0.00    -0.191 NA
ENDBRANCH  23  26
ENDBRANCH  17  20
ENDBRANCH   5  16
TORSDOF 4
ENDMDL
MODEL 7
REMARK VINA RESULT:    -6.017      8.922     12.238
REMARK INTER + INTRA:          -7.934
REMARK INTER:                  -7.346
REMARK INTRA:                  -0.588
REMARK UNBOUND:                -0.509
REMARK  Name = /home/qwerty/github/datacon2025hack/step_04_hit_selection/docking/ligands/lig_526.pdb
REMARK  5 active torsions:
REMARK  status: ('A' for Active; 'I' for Inactive)
REMARK    1  A    between atoms: C1_1  and  C2_2
REMARK    2  A    between atoms: N2_7  and  C5_8
REMARK    3  A    between atoms: C9_12  and  N3_13
REMARK    4  A    between atoms: C10_14  and  C11_16
REMARK    5  A    between atoms: C14_19  and  C15_20
REMARK                            x       y       z     vdW  Elec       q    Type
REMARK                         _______ _______ _______ _____ _____    ______ ____
ROOT
ATOM      1  C5  UNL     1      21.725   6.073  22.225  0.00  0.00    +0.040 A 
ATOM      2  C6  UNL     1      20.931   5.267  21.391  0.00  0.00    +0.024 A 
ATOM      3  C7  UNL     1      20.202   4.200  21.923  0.00  0.00    +0.004 A 
ATOM      4  C8  UNL     1      20.269   3.915  23.288  0.00  0.00    +0.023 A 
ATOM      5  C9  UNL     1      21.084   4.687  24.134  0.00  0.00    +0.035 A 
ATOM      6  C18 UNL     1      21.798   5.769  23.596  0.00  0.00    +0.047 A 
ENDROOT
BRANCH   1  13
ATOM      7  C1  UNL     1      23.948  11.301  19.527  0.00  0.00    +0.110 C 
ATOM      8  C2  UNL     1      22.801  10.565  20.144  0.00  0.00    +0.220 C 
ATOM      9  O1  UNL     1      21.670  11.119  20.194  0.00  0.00    -0.275 OA
ATOM     10  N1  UNL     1      22.980   9.242  20.677  0.00  0.00    -0.224 N 
ATOM     11  C3  UNL     1      24.227   8.484  20.672  0.00  0.00    +0.137 C 
ATOM     12  C4  UNL     1      23.914   7.145  21.384  0.00  0.00    +0.135 C 
ATOM     13  N2  UNL     1      22.483   7.174  21.685  0.00  0.00    -0.253 N 
ATOM     14  C19 UNL     1      21.987   8.438  21.283  0.00  0.00    +0.315 C 
ATOM     15  O3  UNL     1      20.808   8.831  21.499  0.00  0.00    -0.252 OA
ENDBRANCH   1  13
BRANCH   5  16
ATOM     16  N3  UNL     1      21.156   4.425  25.546  0.00  0.00    -0.281 N 
ATOM     17  C10 UNL     1      21.960   3.383  26.125  0.00  0.00    +0.248 C 
ATOM     18  O2  UNL     1      22.942   2.921  25.482  0.00  0.00    -0.270 OA
ATOM     19  H11 UNL     1      20.690   5.101  26.193  0.00  0.00    +0.155 HD
BRANCH  17  20
ATOM     20  C11 UNL     1      21.683   2.878  27.492  0.00  0.00    +0.037 A 
ATOM     21  C12 UNL     1      21.024   3.683  28.441  0.00  0.00    +0.014 A 
ATOM     22  C13 UNL     1      20.762   3.196  29.725  0.00  0.00    +0.019 A 
ATOM     23  C14 UNL     1      21.149   1.898  30.078  0.00  0.00    +0.052 A 
ATOM     24  C16 UNL     1      21.796   1.086  29.139  0.00  0.00    +0.019 A 
ATOM     25  C17 UNL     1      22.060   1.571  27.854  0.00  0.00    +0.014 A 
BRANCH  23  26
ATOM     26  C15 UNL     1      20.878   1.397  31.400  0.00  0.00    +0.099 C 
ATOM     27  N4  UNL     1      20.660   0.995  32.462  0.00  0.00    -0.191 NA
ENDBRANCH  23  26
ENDBRANCH  17  20
ENDBRANCH   5  16
TORSDOF 4
ENDMDL
MODEL 8
REMARK VINA RESULT:    -5.910     14.452     15.518
REMARK INTER + INTRA:          -7.801
REMARK INTER:                  -7.395
REMARK INTRA:                  -0.406
REMARK UNBOUND:                -0.509
REMARK  Name = /home/qwerty/github/datacon2025hack/step_04_hit_selection/docking/ligands/lig_526.pdb
REMARK  5 active torsions:
REMARK  status: ('A' for Active; 'I' for Inactive)
REMARK    1  A    between atoms: C1_1  and  C2_2
REMARK    2  A    between atoms: N2_7  and  C5_8
REMARK    3  A    between atoms: C9_12  and  N3_13
REMARK    4  A    between atoms: C10_14  and  C11_16
REMARK    5  A    between atoms: C14_19  and  C15_20
REMARK                            x       y       z     vdW  Elec       q    Type
REMARK                         _______ _______ _______ _____ _____    ______ ____
ROOT
ATOM      1  C5  UNL     1       8.271   9.256  24.476  0.00  0.00    +0.040 A 
ATOM      2  C6  UNL     1       7.548  10.252  23.798  0.00  0.00    +0.024 A 
ATOM      3  C7  UNL     1       7.893  10.612  22.493  0.00  0.00    +0.004 A 
ATOM      4  C8  UNL     1       8.971   9.996  21.855  0.00  0.00    +0.023 A 
ATOM      5  C9  UNL     1       9.729   9.022  22.528  0.00  0.00    +0.035 A 
ATOM      6  C18 UNL     1       9.364   8.650  23.831  0.00  0.00    +0.047 A 
ENDROOT
BRANCH   1  13
ATOM      7  C1  UNL     1       7.252   8.674  30.655  0.00  0.00    +0.110 C 
ATOM      8  C2  UNL     1       7.522   9.557  29.477  0.00  0.00    +0.220 C 
ATOM      9  O1  UNL     1       7.664  10.797  29.657  0.00  0.00    -0.275 OA
ATOM     10  N1  UNL     1       7.619   9.005  28.154  0.00  0.00    -0.224 N 
ATOM     11  C3  UNL     1       7.488   7.593  27.809  0.00  0.00    +0.137 C 
ATOM     12  C4  UNL     1       7.635   7.516  26.269  0.00  0.00    +0.135 C 
ATOM     13  N2  UNL     1       7.924   8.879  25.823  0.00  0.00    -0.253 N 
ATOM     14  C19 UNL     1       7.869   9.722  26.960  0.00  0.00    +0.315 C 
ATOM     15  O3  UNL     1       7.967  10.978  26.909  0.00  0.00    -0.252 OA
ENDBRANCH   1  13
BRANCH   5  16
ATOM     16  N3  UNL     1      10.833   8.359  21.887  0.00  0.00    -0.281 N 
ATOM     17  C10 UNL     1      10.685   7.237  21.001  0.00  0.00    +0.248 C 
ATOM     18  O2  UNL     1       9.581   7.036  20.425  0.00  0.00    -0.270 OA
ATOM     19  H11 UNL     1      11.781   8.789  21.979  0.00  0.00    +0.155 HD
BRANCH  17  20
ATOM     20  C11 UNL     1      11.829   6.337  20.714  0.00  0.00    +0.037 A 
ATOM     21  C12 UNL     1      13.091   6.563  21.296  0.00  0.00    +0.014 A 
ATOM     22  C13 UNL     1      14.162   5.707  21.024  0.00  0.00    +0.019 A 
ATOM     23  C14 UNL     1      13.987   4.611  20.172  0.00  0.00    +0.052 A 
ATOM     24  C16 UNL     1      12.734   4.371  19.596  0.00  0.00    +0.019 A 
ATOM     25  C17 UNL     1      11.662   5.226  19.866  0.00  0.00    +0.014 A 
BRANCH  23  26
ATOM     26  C15 UNL     1      15.090   3.729  19.894  0.00  0.00    +0.099 C 
ATOM     27  N4  UNL     1      15.977   3.020  19.671  0.00  0.00    -0.191 NA
ENDBRANCH  23  26
ENDBRANCH  17  20
ENDBRANCH   5  16
TORSDOF 4
ENDMDL
MODEL 9
REMARK VINA RESULT:    -5.880      3.681     10.115
REMARK INTER + INTRA:          -7.764
REMARK INTER:                  -7.188
REMARK INTRA:                  -0.576
REMARK UNBOUND:                -0.509
REMARK  Name = /home/qwerty/github/datacon2025hack/step_04_hit_selection/docking/ligands/lig_526.pdb
REMARK  5 active torsions:
REMARK  status: ('A' for Active; 'I' for Inactive)
REMARK    1  A    between atoms: C1_1  and  C2_2
REMARK    2  A    between atoms: N2_7  and  C5_8
REMARK    3  A    between atoms: C9_12  and  N3_13
REMARK    4  A    between atoms: C10_14  and  C11_16
REMARK    5  A    between atoms: C14_19  and  C15_20
REMARK                            x       y       z     vdW  Elec       q    Type
REMARK                         _______ _______ _______ _____ _____    ______ ____
ROOT
ATOM      1  C5  UNL     1      19.601   7.188  36.279  0.00  0.00    +0.040 A 
ATOM      2  C6  UNL     1      19.255   6.243  37.260  0.00  0.00    +0.024 A 
ATOM      3  C7  UNL     1      18.000   6.287  37.873  0.00  0.00    +0.004 A 
ATOM      4  C8  UNL     1      17.083   7.280  37.526  0.00  0.00    +0.023 A 
ATOM      5  C9  UNL     1      17.422   8.256  36.573  0.00  0.00    +0.035 A 
ATOM      6  C18 UNL     1      18.677   8.194  35.946  0.00  0.00    +0.047 A 
ENDROOT
BRANCH   1  13
ATOM      7  C1  UNL     1      24.896   5.939  33.122  0.00  0.00    +0.110 C 
ATOM      8  C2  UNL     1      23.441   5.668  33.345  0.00  0.00    +0.220 C 
ATOM      9  O1  UNL     1      22.873   4.768  32.669  0.00  0.00    -0.275 OA
ATOM     10  N1  UNL     1      22.695   6.421  34.314  0.00  0.00    -0.224 N 
ATOM     11  C3  UNL     1      23.230   7.477  35.168  0.00  0.00    +0.137 C 
ATOM     12  C4  UNL     1      22.034   7.996  36.004  0.00  0.00    +0.135 C 
ATOM     13  N2  UNL     1      20.895   7.153  35.643  0.00  0.00    -0.253 N 
ATOM     14  C19 UNL     1      21.323   6.268  34.624  0.00  0.00    +0.315 C 
ATOM     15  O3  UNL     1      20.555   5.476  34.012  0.00  0.00    -0.252 OA
ENDBRANCH   1  13
BRANCH   5  16
ATOM     16  N3  UNL     1      16.488   9.279  36.185  0.00  0.00    -0.281 N 
ATOM     17  C10 UNL     1      16.072  10.349  37.050  0.00  0.00    +0.248 C 
ATOM     18  O2  UNL     1      16.797  10.680  38.028  0.00  0.00    -0.270 OA
ATOM     19  H11 UNL     1      16.187   9.311  35.185  0.00  0.00    +0.155 HD
BRANCH  17  20
ATOM     20  C11 UNL     1      14.825  11.105  36.779  0.00  0.00    +0.037 A 
ATOM     21  C12 UNL     1      13.656  10.445  36.355  0.00  0.00    +0.014 A 
ATOM     22  C13 UNL     1      12.484  11.166  36.108  0.00  0.00    +0.019 A 
ATOM     23  C14 UNL     1      12.461  12.554  36.285  0.00  0.00    +0.052 A 
ATOM     24  C16 UNL     1      13.615  13.219  36.715  0.00  0.00    +0.019 A 
ATOM     25  C17 UNL     1      14.788  12.500  36.963  0.00  0.00    +0.014 A 
BRANCH  23  26
ATOM     26  C15 UNL     1      11.253  13.295  36.031  0.00  0.00    +0.099 C 
ATOM     27  N4  UNL     1      10.282  13.889  35.827  0.00  0.00    -0.191 NA
ENDBRANCH  23  26
ENDBRANCH  17  20
ENDBRANCH   5  16
TORSDOF 4
ENDMDL
