MODEL 1
REMARK VINA RESULT:    -5.710      0.000      0.000
REMARK INTER + INTRA:          -6.969
REMARK INTER:                  -6.712
REMARK INTRA:                  -0.257
REMARK UNBOUND:                -0.257
REMARK  Name = /home/qwerty/github/datacon2025hack/step_04_hit_selection/docking/ligands/lig_438.pdb
REMARK  3 active torsions:
REMARK  status: ('A' for Active; 'I' for Inactive)
REMARK    1  A    between atoms: C1_2  and  C8_12
REMARK    2  A    between atoms: N1_3  and  C2_4
REMARK    3  A    between atoms: C4_7  and  C5_8
REMARK                            x       y       z     vdW  Elec       q    Type
REMARK                         _______ _______ _______ _____ _____    ______ ____
ROOT
ATOM      1  O1  UNL     1      20.492   5.463  24.743  0.00  0.00    -0.268 OA
ATOM      2  C1  UNL     1      21.107   4.872  23.815  0.00  0.00    +0.269 C 
ATOM      3  N1  UNL     1      21.481   3.492  23.974  0.00  0.00    -0.273 N 
ATOM      4  H1  UNL     1      21.705   2.935  23.119  0.00  0.00    +0.156 HD
ENDROOT
BRANCH   2   5
ATOM      5  C8  UNL     1      21.444   5.586  22.556  0.00  0.00    +0.147 A 
ATOM      6  N3  UNL     1      22.647   6.221  22.496  0.00  0.00    -0.228 NA
ATOM      7  C9  UNL     1      23.063   6.917  21.409  0.00  0.00    +0.150 A 
ATOM      8 CL1  UNL     1      24.640   7.692  21.461  0.00  0.00    -0.060 Cl
ATOM      9  C10 UNL     1      22.240   7.007  20.280  0.00  0.00    +0.097 A 
ATOM     10 CL2  UNL     1      22.774   7.912  18.862  0.00  0.00    -0.079 Cl
ATOM     11  C11 UNL     1      20.991   6.366  20.295  0.00  0.00    +0.083 A 
ATOM     12 CL3  UNL     1      19.942   6.461  18.877  0.00  0.00    -0.080 Cl
ATOM     13  C12 UNL     1      20.581   5.646  21.434  0.00  0.00    +0.091 A 
ATOM     14 CL4  UNL     1      19.022   4.809  21.400  0.00  0.00    -0.080 Cl
ENDBRANCH   2   5
BRANCH   3  15
ATOM     15  C2  UNL     1      21.499   2.796  25.228  0.00  0.00    +0.092 A 
ATOM     16  C3  UNL     1      20.656   1.759  25.625  0.00  0.00    +0.142 A 
ATOM     17  N2  UNL     1      20.873   1.313  26.892  0.00  0.00    -0.250 NA
ATOM     18  C4  UNL     1      21.859   2.002  27.509  0.00  0.00    +0.083 A 
ATOM     19  S1  UNL     1      22.521   3.182  26.505  0.00  0.00    -0.057 S 
BRANCH  18  20
ATOM     20  C5  UNL     1      22.338   1.697  28.893  0.00  0.00    +0.045 C 
ATOM     21  C6  UNL     1      22.323   0.219  29.251  0.00  0.00    +0.011 C 
ATOM     22  C7  UNL     1      23.642   0.914  28.960  0.00  0.00    +0.011 C 
ENDBRANCH  18  20
ENDBRANCH   3  15
TORSDOF 3
ENDMDL
MODEL 2
REMARK VINA RESULT:    -5.540      9.746     13.225
REMARK INTER + INTRA:          -6.769
REMARK INTER:                  -6.590
REMARK INTRA:                  -0.179
REMARK UNBOUND:                -0.257
REMARK  Name = /home/qwerty/github/datacon2025hack/step_04_hit_selection/docking/ligands/lig_438.pdb
REMARK  3 active torsions:
REMARK  status: ('A' for Active; 'I' for Inactive)
REMARK    1  A    between atoms: C1_2  and  C8_12
REMARK    2  A    between atoms: N1_3  and  C2_4
REMARK    3  A    between atoms: C4_7  and  C5_8
REMARK                            x       y       z     vdW  Elec       q    Type
REMARK                         _______ _______ _______ _____ _____    ______ ____
ROOT
ATOM      1  O1  UNL     1      18.181   2.950  33.242  0.00  0.00    -0.268 OA
ATOM      2  C1  UNL     1      18.594   2.093  34.069  0.00  0.00    +0.269 C 
ATOM      3  N1  UNL     1      19.904   1.520  33.906  0.00  0.00    -0.273 N 
ATOM      4  H1  UNL     1      20.353   1.063  34.730  0.00  0.00    +0.156 HD
ENDROOT
BRANCH   2   5
ATOM      5  C8  UNL     1      17.744   1.674  35.213  0.00  0.00    +0.147 A 
ATOM      6  N3  UNL     1      17.288   0.392  35.220  0.00  0.00    -0.228 NA
ATOM      7  C9  UNL     1      16.493  -0.106  36.201  0.00  0.00    +0.150 A 
ATOM      8 CL1  UNL     1      15.972  -1.780  36.090  0.00  0.00    -0.060 Cl
ATOM      9  C10 UNL     1      16.106   0.713  37.268  0.00  0.00    +0.097 A 
ATOM     10 CL2  UNL     1      15.072   0.074  38.547  0.00  0.00    -0.079 Cl
ATOM     11  C11 UNL     1      16.554   2.043  37.305  0.00  0.00    +0.083 A 
ATOM     12 CL3  UNL     1      16.083   3.089  38.648  0.00  0.00    -0.080 Cl
ATOM     13  C12 UNL     1      17.381   2.537  36.277  0.00  0.00    +0.091 A 
ATOM     14 CL4  UNL     1      17.968   4.203  36.380  0.00  0.00    -0.080 Cl
ENDBRANCH   2   5
BRANCH   3  15
ATOM     15  C2  UNL     1      20.679   1.598  32.702  0.00  0.00    +0.092 A 
ATOM     16  C3  UNL     1      21.667   2.533  32.397  0.00  0.00    +0.142 A 
ATOM     17  N2  UNL     1      22.211   2.393  31.158  0.00  0.00    -0.250 NA
ATOM     18  C4  UNL     1      21.647   1.374  30.471  0.00  0.00    +0.083 A 
ATOM     19  S1  UNL     1      20.462   0.589  31.375  0.00  0.00    -0.057 S 
BRANCH  18  20
ATOM     20  C5  UNL     1      22.079   0.964  29.099  0.00  0.00    +0.045 C 
ATOM     21  C6  UNL     1      23.572   0.709  28.961  0.00  0.00    +0.011 C 
ATOM     22  C7  UNL     1      22.605  -0.460  28.993  0.00  0.00    +0.011 C 
ENDBRANCH  18  20
ENDBRANCH   3  15
TORSDOF 3
ENDMDL
MODEL 3
REMARK VINA RESULT:    -5.437      9.449     12.016
REMARK INTER + INTRA:          -6.648
REMARK INTER:                  -6.337
REMARK INTRA:                  -0.311
REMARK UNBOUND:                -0.257
REMARK  Name = /home/qwerty/github/datacon2025hack/step_04_hit_selection/docking/ligands/lig_438.pdb
REMARK  3 active torsions:
REMARK  status: ('A' for Active; 'I' for Inactive)
REMARK    1  A    between atoms: C1_2  and  C8_12
REMARK    2  A    between atoms: N1_3  and  C2_4
REMARK    3  A    between atoms: C4_7  and  C5_8
REMARK                            x       y       z     vdW  Elec       q    Type
REMARK                         _______ _______ _______ _____ _____    ______ ____
ROOT
ATOM      1  O1  UNL     1      13.407   2.857  23.396  0.00  0.00    -0.268 OA
ATOM      2  C1  UNL     1      13.289   1.778  22.755  0.00  0.00    +0.269 C 
ATOM      3  N1  UNL     1      12.360   1.698  21.660  0.00  0.00    -0.273 N 
ATOM      4  H1  UNL     1      12.481   0.934  20.959  0.00  0.00    +0.156 HD
ENDROOT
BRANCH   2   5
ATOM      5  C8  UNL     1      14.105   0.590  23.117  0.00  0.00    +0.147 A 
ATOM      6  N3  UNL     1      13.717  -0.130  24.205  0.00  0.00    -0.228 NA
ATOM      7  C9  UNL     1      14.386  -1.226  24.645  0.00  0.00    +0.150 A 
ATOM      8 CL1  UNL     1      13.781  -2.066  26.064  0.00  0.00    -0.060 Cl
ATOM      9  C10 UNL     1      15.533  -1.661  23.970  0.00  0.00    +0.097 A 
ATOM     10 CL2  UNL     1      16.409  -3.085  24.535  0.00  0.00    -0.079 Cl
ATOM     11  C11 UNL     1      15.969  -0.951  22.840  0.00  0.00    +0.083 A 
ATOM     12 CL3  UNL     1      17.409  -1.489  21.970  0.00  0.00    -0.080 Cl
ATOM     13  C12 UNL     1      15.257   0.182  22.400  0.00  0.00    +0.091 A 
ATOM     14 CL4  UNL     1      15.806   1.025  20.944  0.00  0.00    -0.080 Cl
ENDBRANCH   2   5
BRANCH   3  15
ATOM     15  C2  UNL     1      11.311   2.646  21.416  0.00  0.00    +0.092 A 
ATOM     16  C3  UNL     1      11.371   3.773  20.598  0.00  0.00    +0.142 A 
ATOM     17  N2  UNL     1      10.235   4.520  20.587  0.00  0.00    -0.250 NA
ATOM     18  C4  UNL     1       9.286   4.010  21.405  0.00  0.00    +0.083 A 
ATOM     19  S1  UNL     1       9.807   2.600  22.164  0.00  0.00    -0.057 S 
BRANCH  18  20
ATOM     20  C5  UNL     1       7.921   4.603  21.555  0.00  0.00    +0.045 C 
ATOM     21  C6  UNL     1       7.305   4.418  22.933  0.00  0.00    +0.011 C 
ATOM     22  C7  UNL     1       7.837   5.778  22.519  0.00  0.00    +0.011 C 
ENDBRANCH  18  20
ENDBRANCH   3  15
TORSDOF 3
ENDMDL
MODEL 4
REMARK VINA RESULT:    -5.273     13.231     14.578
REMARK INTER + INTRA:          -6.455
REMARK INTER:                  -6.133
REMARK INTRA:                  -0.322
REMARK UNBOUND:                -0.257
REMARK  Name = /home/qwerty/github/datacon2025hack/step_04_hit_selection/docking/ligands/lig_438.pdb
REMARK  3 active torsions:
REMARK  status: ('A' for Active; 'I' for Inactive)
REMARK    1  A    between atoms: C1_2  and  C8_12
REMARK    2  A    between atoms: N1_3  and  C2_4
REMARK    3  A    between atoms: C4_7  and  C5_8
REMARK                            x       y       z     vdW  Elec       q    Type
REMARK                         _______ _______ _______ _____ _____    ______ ____
ROOT
ATOM      1  O1  UNL     1       7.314   9.715  24.342  0.00  0.00    -0.268 OA
ATOM      2  C1  UNL     1       8.203   8.843  24.534  0.00  0.00    +0.269 C 
ATOM      3  N1  UNL     1       8.650   8.565  25.873  0.00  0.00    -0.273 N 
ATOM      4  H1  UNL     1       9.140   7.661  26.057  0.00  0.00    +0.156 HD
ENDROOT
BRANCH   2   5
ATOM      5  C8  UNL     1       8.790   8.096  23.392  0.00  0.00    +0.147 A 
ATOM      6  N3  UNL     1       8.449   6.785  23.257  0.00  0.00    -0.228 NA
ATOM      7  C9  UNL     1       8.929   5.994  22.264  0.00  0.00    +0.150 A 
ATOM      8 CL1  UNL     1       8.410   4.316  22.203  0.00  0.00    -0.060 Cl
ATOM      9  C10 UNL     1       9.818   6.520  21.320  0.00  0.00    +0.097 A 
ATOM     10 CL2  UNL     1      10.447   5.498  20.027  0.00  0.00    -0.079 Cl
ATOM     11  C11 UNL     1      10.197   7.868  21.418  0.00  0.00    +0.083 A 
ATOM     12 CL3  UNL     1      11.312   8.553  20.231  0.00  0.00    -0.080 Cl
ATOM     13  C12 UNL     1       9.684   8.671  22.455  0.00  0.00    +0.091 A 
ATOM     14 CL4  UNL     1      10.143  10.379  22.520  0.00  0.00    -0.080 Cl
ENDBRANCH   2   5
BRANCH   3  15
ATOM     15  C2  UNL     1       8.402   9.413  27.003  0.00  0.00    +0.092 A 
ATOM     16  C3  UNL     1       7.417   9.251  27.976  0.00  0.00    +0.142 A 
ATOM     17  N2  UNL     1       7.386  10.236  28.913  0.00  0.00    -0.250 NA
ATOM     18  C4  UNL     1       8.319  11.187  28.679  0.00  0.00    +0.083 A 
ATOM     19  S1  UNL     1       9.236  10.840  27.310  0.00  0.00    -0.057 S 
BRANCH  18  20
ATOM     20  C5  UNL     1       8.539  12.365  29.574  0.00  0.00    +0.045 C 
ATOM     21  C6  UNL     1       9.246  13.535  28.909  0.00  0.00    +0.011 C 
ATOM     22  C7  UNL     1       7.756  13.613  29.192  0.00  0.00    +0.011 C 
ENDBRANCH  18  20
ENDBRANCH   3  15
TORSDOF 3
ENDMDL
MODEL 5
REMARK VINA RESULT:    -5.268      9.434     12.048
REMARK INTER + INTRA:          -6.449
REMARK INTER:                  -6.139
REMARK INTRA:                  -0.310
REMARK UNBOUND:                -0.257
REMARK  Name = /home/qwerty/github/datacon2025hack/step_04_hit_selection/docking/ligands/lig_438.pdb
REMARK  3 active torsions:
REMARK  status: ('A' for Active; 'I' for Inactive)
REMARK    1  A    between atoms: C1_2  and  C8_12
REMARK    2  A    between atoms: N1_3  and  C2_4
REMARK    3  A    between atoms: C4_7  and  C5_8
REMARK                            x       y       z     vdW  Elec       q    Type
REMARK                         _______ _______ _______ _____ _____    ______ ____
ROOT
ATOM      1  O1  UNL     1      13.674   3.092  23.132  0.00  0.00    -0.268 OA
ATOM      2  C1  UNL     1      13.405   1.962  22.645  0.00  0.00    +0.269 C 
ATOM      3  N1  UNL     1      12.440   1.856  21.583  0.00  0.00    -0.273 N 
ATOM      4  H1  UNL     1      12.445   0.996  20.990  0.00  0.00    +0.156 HD
ENDROOT
BRANCH   2   5
ATOM      5  C8  UNL     1      14.078   0.739  23.154  0.00  0.00    +0.147 A 
ATOM      6  N3  UNL     1      15.142   0.267  22.448  0.00  0.00    -0.228 NA
ATOM      7  C9  UNL     1      15.830  -0.847  22.802  0.00  0.00    +0.150 A 
ATOM      8 CL1  UNL     1      17.185  -1.350  21.803  0.00  0.00    -0.060 Cl
ATOM      9  C10 UNL     1      15.453  -1.568  23.941  0.00  0.00    +0.097 A 
ATOM     10 CL2  UNL     1      16.343  -3.018  24.409  0.00  0.00    -0.079 Cl
ATOM     11  C11 UNL     1      14.363  -1.118  24.703  0.00  0.00    +0.083 A 
ATOM     12 CL3  UNL     1      13.877  -2.009  26.148  0.00  0.00    -0.080 Cl
ATOM     13  C12 UNL     1      13.665   0.043  24.317  0.00  0.00    +0.091 A 
ATOM     14 CL4  UNL     1      12.327   0.610  25.327  0.00  0.00    -0.080 Cl
ENDBRANCH   2   5
BRANCH   3  15
ATOM     15  C2  UNL     1      11.510   2.888  21.226  0.00  0.00    +0.092 A 
ATOM     16  C3  UNL     1      11.746   3.979  20.391  0.00  0.00    +0.142 A 
ATOM     17  N2  UNL     1      10.689   4.826  20.264  0.00  0.00    -0.250 NA
ATOM     18  C4  UNL     1       9.631   4.430  21.006  0.00  0.00    +0.083 A 
ATOM     19  S1  UNL     1       9.950   3.002  21.840  0.00  0.00    -0.057 S 
BRANCH  18  20
ATOM     20  C5  UNL     1       8.319   5.150  21.023  0.00  0.00    +0.045 C 
ATOM     21  C6  UNL     1       7.428   4.804  22.206  0.00  0.00    +0.011 C 
ATOM     22  C7  UNL     1       8.148   6.140  22.165  0.00  0.00    +0.011 C 
ENDBRANCH  18  20
ENDBRANCH   3  15
TORSDOF 3
ENDMDL
MODEL 6
REMARK VINA RESULT:    -5.188     14.486     15.910
REMARK INTER + INTRA:          -6.355
REMARK INTER:                  -6.060
REMARK INTRA:                  -0.295
REMARK UNBOUND:                -0.257
REMARK  Name = /home/qwerty/github/datacon2025hack/step_04_hit_selection/docking/ligands/lig_438.pdb
REMARK  3 active torsions:
REMARK  status: ('A' for Active; 'I' for Inactive)
REMARK    1  A    between atoms: C1_2  and  C8_12
REMARK    2  A    between atoms: N1_3  and  C2_4
REMARK    3  A    between atoms: C4_7  and  C5_8
REMARK                            x       y       z     vdW  Elec       q    Type
REMARK                         _______ _______ _______ _____ _____    ______ ____
ROOT
ATOM      1  O1  UNL     1      15.213   9.419  35.195  0.00  0.00    -0.268 OA
ATOM      2  C1  UNL     1      15.218  10.541  35.770  0.00  0.00    +0.269 C 
ATOM      3  N1  UNL     1      16.401  10.983  36.459  0.00  0.00    -0.273 N 
ATOM      4  H1  UNL     1      16.508  12.002  36.660  0.00  0.00    +0.156 HD
ENDROOT
BRANCH   2   5
ATOM      5  C8  UNL     1      14.015  11.413  35.737  0.00  0.00    +0.147 A 
ATOM      6  N3  UNL     1      13.045  11.181  36.664  0.00  0.00    -0.228 NA
ATOM      7  C9  UNL     1      11.896  11.899  36.728  0.00  0.00    +0.150 A 
ATOM      8 CL1  UNL     1      10.723  11.497  37.974  0.00  0.00    -0.060 Cl
ATOM      9  C10 UNL     1      11.666  12.932  35.812  0.00  0.00    +0.097 A 
ATOM     10 CL2  UNL     1      10.173  13.870  35.889  0.00  0.00    -0.079 Cl
ATOM     11  C11 UNL     1      12.639  13.210  34.839  0.00  0.00    +0.083 A 
ATOM     12 CL3  UNL     1      12.371  14.515  33.680  0.00  0.00    -0.080 Cl
ATOM     13  C12 UNL     1      13.826  12.453  34.793  0.00  0.00    +0.091 A 
ATOM     14 CL4  UNL     1      15.054  12.862  33.585  0.00  0.00    -0.080 Cl
ENDBRANCH   2   5
BRANCH   3  15
ATOM     15  C2  UNL     1      17.492  10.128  36.828  0.00  0.00    +0.092 A 
ATOM     16  C3  UNL     1      17.540   9.246  37.906  0.00  0.00    +0.142 A 
ATOM     17  N2  UNL     1      18.724   8.590  38.041  0.00  0.00    -0.250 NA
ATOM     18  C4  UNL     1      19.619   8.960  37.097  0.00  0.00    +0.083 A 
ATOM     19  S1  UNL     1      18.977  10.105  36.041  0.00  0.00    -0.057 S 
BRANCH  18  20
ATOM     20  C5  UNL     1      20.987   8.367  36.979  0.00  0.00    +0.045 C 
ATOM     21  C6  UNL     1      21.173   7.062  37.737  0.00  0.00    +0.011 C 
ATOM     22  C7  UNL     1      21.049   7.048  36.223  0.00  0.00    +0.011 C 
ENDBRANCH  18  20
ENDBRANCH   3  15
TORSDOF 3
ENDMDL
MODEL 7
REMARK VINA RESULT:    -5.125      6.821      7.672
REMARK INTER + INTRA:          -6.281
REMARK INTER:                  -5.979
REMARK INTRA:                  -0.303
REMARK UNBOUND:                -0.257
REMARK  Name = /home/qwerty/github/datacon2025hack/step_04_hit_selection/docking/ligands/lig_438.pdb
REMARK  3 active torsions:
REMARK  status: ('A' for Active; 'I' for Inactive)
REMARK    1  A    between atoms: C1_2  and  C8_12
REMARK    2  A    between atoms: N1_3  and  C2_4
REMARK    3  A    between atoms: C4_7  and  C5_8
REMARK                            x       y       z     vdW  Elec       q    Type
REMARK                         _______ _______ _______ _____ _____    ______ ____
ROOT
ATOM      1  O1  UNL     1      16.684   6.490  21.638  0.00  0.00    -0.268 OA
ATOM      2  C1  UNL     1      16.764   6.885  20.444  0.00  0.00    +0.269 C 
ATOM      3  N1  UNL     1      16.010   6.212  19.420  0.00  0.00    -0.273 N 
ATOM      4  H1  UNL     1      15.839   6.711  18.519  0.00  0.00    +0.156 HD
ENDROOT
BRANCH   2   5
ATOM      5  C8  UNL     1      17.625   8.041  20.085  0.00  0.00    +0.147 A 
ATOM      6  N3  UNL     1      17.006   9.208  19.756  0.00  0.00    -0.228 NA
ATOM      7  C9  UNL     1      17.681  10.329  19.398  0.00  0.00    +0.150 A 
ATOM      8 CL1  UNL     1      16.761  11.771  18.996  0.00  0.00    -0.060 Cl
ATOM      9  C10 UNL     1      19.081  10.317  19.354  0.00  0.00    +0.097 A 
ATOM     10 CL2  UNL     1      19.966  11.770  18.888  0.00  0.00    -0.079 Cl
ATOM     11  C11 UNL     1      19.763   9.136  19.687  0.00  0.00    +0.083 A 
ATOM     12 CL3  UNL     1      21.529   9.103  19.645  0.00  0.00    -0.080 Cl
ATOM     13  C12 UNL     1      19.041   7.985  20.059  0.00  0.00    +0.091 A 
ATOM     14 CL4  UNL     1      19.934   6.528  20.520  0.00  0.00    -0.080 Cl
ENDBRANCH   2   5
BRANCH   3  15
ATOM     15  C2  UNL     1      15.405   4.921  19.574  0.00  0.00    +0.092 A 
ATOM     16  C3  UNL     1      14.045   4.640  19.703  0.00  0.00    +0.142 A 
ATOM     17  N2  UNL     1      13.759   3.322  19.879  0.00  0.00    -0.250 NA
ATOM     18  C4  UNL     1      14.876   2.562  19.916  0.00  0.00    +0.083 A 
ATOM     19  S1  UNL     1      16.270   3.486  19.713  0.00  0.00    -0.057 S 
BRANCH  18  20
ATOM     20  C5  UNL     1      14.857   1.072  20.056  0.00  0.00    +0.045 C 
ATOM     21  C6  UNL     1      16.208   0.455  20.384  0.00  0.00    +0.011 C 
ATOM     22  C7  UNL     1      15.141   0.558  21.460  0.00  0.00    +0.011 C 
ENDBRANCH  18  20
ENDBRANCH   3  15
TORSDOF 3
ENDMDL
MODEL 8
REMARK VINA RESULT:    -5.100     13.016     14.717
REMARK INTER + INTRA:          -6.252
REMARK INTER:                  -5.983
REMARK INTRA:                  -0.269
REMARK UNBOUND:                -0.257
REMARK  Name = /home/qwerty/github/datacon2025hack/step_04_hit_selection/docking/ligands/lig_438.pdb
REMARK  3 active torsions:
REMARK  status: ('A' for Active; 'I' for Inactive)
REMARK    1  A    between atoms: C1_2  and  C8_12
REMARK    2  A    between atoms: N1_3  and  C2_4
REMARK    3  A    between atoms: C4_7  and  C5_8
REMARK                            x       y       z     vdW  Elec       q    Type
REMARK                         _______ _______ _______ _____ _____    ______ ____
ROOT
ATOM      1  O1  UNL     1      18.315   9.126  34.828  0.00  0.00    -0.268 OA
ATOM      2  C1  UNL     1      19.362   9.659  35.284  0.00  0.00    +0.269 C 
ATOM      3  N1  UNL     1      19.261  10.829  36.116  0.00  0.00    -0.273 N 
ATOM      4  H1  UNL     1      20.072  11.078  36.725  0.00  0.00    +0.156 HD
ENDROOT
BRANCH   2   5
ATOM      5  C8  UNL     1      20.698   9.088  34.975  0.00  0.00    +0.147 A 
ATOM      6  N3  UNL     1      21.306   9.497  33.827  0.00  0.00    -0.228 NA
ATOM      7  C9  UNL     1      22.519   9.039  33.428  0.00  0.00    +0.150 A 
ATOM      8 CL1  UNL     1      23.192   9.646  31.923  0.00  0.00    -0.060 Cl
ATOM      9  C10 UNL     1      23.204   8.101  34.211  0.00  0.00    +0.097 A 
ATOM     10 CL2  UNL     1      24.781   7.500  33.699  0.00  0.00    -0.079 Cl
ATOM     11  C11 UNL     1      22.617   7.653  35.406  0.00  0.00    +0.083 A 
ATOM     12 CL3  UNL     1      23.469   6.477  36.411  0.00  0.00    -0.080 Cl
ATOM     13  C12 UNL     1      21.358   8.144  35.801  0.00  0.00    +0.091 A 
ATOM     14 CL4  UNL     1      20.670   7.596  37.336  0.00  0.00    -0.080 Cl
ENDBRANCH   2   5
BRANCH   3  15
ATOM     15  C2  UNL     1      18.087  11.646  36.227  0.00  0.00    +0.092 A 
ATOM     16  C3  UNL     1      17.034  11.485  37.127  0.00  0.00    +0.142 A 
ATOM     17  N2  UNL     1      16.026  12.386  36.977  0.00  0.00    -0.250 NA
ATOM     18  C4  UNL     1      16.258  13.240  35.955  0.00  0.00    +0.083 A 
ATOM     19  S1  UNL     1      17.733  12.930  35.203  0.00  0.00    -0.057 S 
BRANCH  18  20
ATOM     20  C5  UNL     1      15.338  14.362  35.592  0.00  0.00    +0.045 C 
ATOM     21  C6  UNL     1      14.183  14.566  36.561  0.00  0.00    +0.011 C 
ATOM     22  C7  UNL     1      15.350  15.538  36.558  0.00  0.00    +0.011 C 
ENDBRANCH  18  20
ENDBRANCH   3  15
TORSDOF 3
ENDMDL
MODEL 9
REMARK VINA RESULT:    -5.078      9.222     10.679
REMARK INTER + INTRA:          -6.226
REMARK INTER:                  -5.914
REMARK INTRA:                  -0.311
REMARK UNBOUND:                -0.257
REMARK  Name = /home/qwerty/github/datacon2025hack/step_04_hit_selection/docking/ligands/lig_438.pdb
REMARK  3 active torsions:
REMARK  status: ('A' for Active; 'I' for Inactive)
REMARK    1  A    between atoms: C1_2  and  C8_12
REMARK    2  A    between atoms: N1_3  and  C2_4
REMARK    3  A    between atoms: C4_7  and  C5_8
REMARK                            x       y       z     vdW  Elec       q    Type
REMARK                         _______ _______ _______ _____ _____    ______ ____
ROOT
ATOM      1  O1  UNL     1      12.704   3.264  19.902  0.00  0.00    -0.268 OA
ATOM      2  C1  UNL     1      12.340   3.683  21.033  0.00  0.00    +0.269 C 
ATOM      3  N1  UNL     1      13.101   3.330  22.202  0.00  0.00    -0.273 N 
ATOM      4  H1  UNL     1      12.986   3.908  23.064  0.00  0.00    +0.156 HD
ENDROOT
BRANCH   2   5
ATOM      5  C8  UNL     1      11.136   4.543  21.170  0.00  0.00    +0.147 A 
ATOM      6  N3  UNL     1      11.228   5.828  20.731  0.00  0.00    -0.228 NA
ATOM      7  C9  UNL     1      10.204   6.714  20.813  0.00  0.00    +0.150 A 
ATOM      8 CL1  UNL     1      10.454   8.345  20.210  0.00  0.00    -0.060 Cl
ATOM      9  C10 UNL     1       8.982   6.319  21.371  0.00  0.00    +0.097 A 
ATOM     10 CL2  UNL     1       7.645   7.465  21.482  0.00  0.00    -0.079 Cl
ATOM     11  C11 UNL     1       8.839   5.001  21.835  0.00  0.00    +0.083 A 
ATOM     12 CL3  UNL     1       7.303   4.482  22.535  0.00  0.00    -0.080 Cl
ATOM     13  C12 UNL     1       9.915   4.098  21.737  0.00  0.00    +0.091 A 
ATOM     14 CL4  UNL     1       9.685   2.432  22.286  0.00  0.00    -0.080 Cl
ENDBRANCH   2   5
BRANCH   3  15
ATOM     15  C2  UNL     1      14.072   2.276  22.249  0.00  0.00    +0.092 A 
ATOM     16  C3  UNL     1      15.460   2.410  22.235  0.00  0.00    +0.142 A 
ATOM     17  N2  UNL     1      16.138   1.232  22.246  0.00  0.00    -0.250 NA
ATOM     18  C4  UNL     1      15.304   0.168  22.244  0.00  0.00    +0.083 A 
ATOM     19  S1  UNL     1      13.687   0.639  22.247  0.00  0.00    -0.057 S 
BRANCH  18  20
ATOM     20  C5  UNL     1      15.775  -1.251  22.299  0.00  0.00    +0.045 C 
ATOM     21  C6  UNL     1      17.212  -1.418  22.770  0.00  0.00    +0.011 C 
ATOM     22  C7  UNL     1      16.064  -1.776  23.698  0.00  0.00    +0.011 C 
ENDBRANCH  18  20
ENDBRANCH   3  15
TORSDOF 3
ENDMDL
