MODEL 1
REMARK VINA RESULT:    -5.798      0.000      0.000
REMARK INTER + INTRA:          -7.683
REMARK INTER:                  -7.154
REMARK INTRA:                  -0.529
REMARK UNBOUND:                -0.529
REMARK  Name = /home/qwerty/github/datacon2025hack/step_04_hit_selection/docking/ligands/lig_114.pdb
REMARK  6 active torsions:
REMARK  status: ('A' for Active; 'I' for Inactive)
REMARK    1  A    between atoms: C1_1  and  C2_2
REMARK    2  A    between atoms: C2_2  and  O1_3
REMARK    3  A    between atoms: C2_2  and  C3_4
REMARK    4  A    between atoms: C3_4  and  N1_5
REMARK    5  A    between atoms: C6_9  and  C7_11
REMARK    6  A    between atoms: C11_16  and  O3_17
REMARK                            x       y       z     vdW  Elec       q    Type
REMARK                         _______ _______ _______ _____ _____    ______ ____
ROOT
ATOM      1  N1  UNL     1      19.707   9.888  35.100  0.00  0.00    -0.297 NA
ATOM      2  C4  UNL     1      18.243   9.804  34.922  0.00  0.00    +0.103 C 
ATOM      3  C5  UNL     1      17.725  11.036  34.178  0.00  0.00    +0.123 C 
ATOM      4  N2  UNL     1      18.176  12.256  34.855  0.00  0.00    -0.295 N 
ATOM      5  C6  UNL     1      17.377  13.451  34.788  0.00  0.00    +0.252 C 
ATOM      6  O2  UNL     1      17.912  14.533  34.422  0.00  0.00    -0.270 OA
ATOM      7  C15 UNL     1      19.598  12.355  35.195  0.00  0.00    +0.123 C 
ATOM      8  C16 UNL     1      20.048  11.079  35.909  0.00  0.00    +0.103 C 
ENDROOT
BRANCH   5   9
ATOM      9  C7  UNL     1      15.947  13.434  35.180  0.00  0.00    +0.098 A 
ATOM     10  C8  UNL     1      14.948  13.362  34.189  0.00  0.00    +0.023 A 
ATOM     11  C9  UNL     1      13.612  13.333  34.580  0.00  0.00    -0.025 A 
ATOM     12  C10 UNL     1      13.278  13.367  35.903  0.00  0.00    +0.048 A 
ATOM     13  N3  UNL     1      14.226  13.428  36.872  0.00  0.00    -0.217 NA
ATOM     14  C11 UNL     1      15.551  13.462  36.543  0.00  0.00    +0.225 A 
ATOM     15  C12 UNL     1      11.819  13.322  36.125  0.00  0.00    +0.056 C 
ATOM     16  C13 UNL     1      11.235  13.259  34.699  0.00  0.00    +0.011 C 
ATOM     17  C14 UNL     1      12.420  13.259  33.709  0.00  0.00    +0.037 C 
BRANCH  14  18
ATOM     18  O3  UNL     1      16.502  13.539  37.557  0.00  0.00    -0.492 OA
ATOM     19  H13 UNL     1      16.802  14.434  37.923  0.00  0.00    +0.294 HD
ENDBRANCH  14  18
ENDBRANCH   5   9
BRANCH   1  20
ATOM     20  C3  UNL     1      20.222   8.653  35.736  0.00  0.00    +0.115 C 
BRANCH  20  22
ATOM     21  C1  UNL     1      19.073   7.717  37.795  0.00  0.00    +0.039 C 
ATOM     22  C2  UNL     1      20.093   8.733  37.270  0.00  0.00    +0.125 C 
BRANCH  22  23
ATOM     23  O1  UNL     1      21.341   8.537  37.888  0.00  0.00    -0.391 OA
ATOM     24  H5  UNL     1      21.349   9.073  38.723  0.00  0.00    +0.210 HD
ENDBRANCH  22  23
ENDBRANCH  20  22
ENDBRANCH   1  20
TORSDOF 5
ENDMDL
MODEL 2
REMARK VINA RESULT:    -5.777      8.888     10.941
REMARK INTER + INTRA:          -7.658
REMARK INTER:                  -6.984
REMARK INTRA:                  -0.674
REMARK UNBOUND:                -0.529
REMARK  Name = /home/qwerty/github/datacon2025hack/step_04_hit_selection/docking/ligands/lig_114.pdb
REMARK  6 active torsions:
REMARK  status: ('A' for Active; 'I' for Inactive)
REMARK    1  A    between atoms: C1_1  and  C2_2
REMARK    2  A    between atoms: C2_2  and  O1_3
REMARK    3  A    between atoms: C2_2  and  C3_4
REMARK    4  A    between atoms: C3_4  and  N1_5
REMARK    5  A    between atoms: C6_9  and  C7_11
REMARK    6  A    between atoms: C11_16  and  O3_17
REMARK                            x       y       z     vdW  Elec       q    Type
REMARK                         _______ _______ _______ _____ _____    ______ ____
ROOT
ATOM      1  N1  UNL     1      20.883   1.833  31.003  0.00  0.00    -0.297 NA
ATOM      2  C4  UNL     1      22.180   2.531  31.113  0.00  0.00    +0.103 C 
ATOM      3  C5  UNL     1      22.318   3.187  32.488  0.00  0.00    +0.123 C 
ATOM      4  N2  UNL     1      21.156   4.040  32.754  0.00  0.00    -0.295 N 
ATOM      5  C6  UNL     1      21.295   5.200  33.595  0.00  0.00    +0.252 C 
ATOM      6  O2  UNL     1      20.503   5.359  34.564  0.00  0.00    -0.270 OA
ATOM      7  C15 UNL     1      19.828   3.464  32.532  0.00  0.00    +0.123 C 
ATOM      8  C16 UNL     1      19.776   2.802  31.152  0.00  0.00    +0.103 C 
ENDROOT
BRANCH   5   9
ATOM      9  C7  UNL     1      22.327   6.226  33.313  0.00  0.00    +0.098 A 
ATOM     10  C8  UNL     1      22.204   7.054  32.179  0.00  0.00    +0.023 A 
ATOM     11  C9  UNL     1      23.177   8.021  31.942  0.00  0.00    -0.025 A 
ATOM     12  C10 UNL     1      24.229   8.168  32.799  0.00  0.00    +0.048 A 
ATOM     13  N3  UNL     1      24.361   7.386  33.900  0.00  0.00    -0.217 NA
ATOM     14  C11 UNL     1      23.436   6.420  34.178  0.00  0.00    +0.225 A 
ATOM     15  C12 UNL     1      25.153   9.244  32.390  0.00  0.00    +0.056 C 
ATOM     16  C13 UNL     1      24.526   9.788  31.090  0.00  0.00    +0.011 C 
ATOM     17  C14 UNL     1      23.236   8.984  30.821  0.00  0.00    +0.037 C 
BRANCH  14  18
ATOM     18  O3  UNL     1      23.604   5.623  35.307  0.00  0.00    -0.492 OA
ATOM     19  H13 UNL     1      24.521   5.290  35.579  0.00  0.00    +0.294 HD
ENDBRANCH  14  18
ENDBRANCH   5   9
BRANCH   1  20
ATOM     20  C3  UNL     1      20.789   1.118  29.709  0.00  0.00    +0.115 C 
BRANCH  20  22
ATOM     21  C1  UNL     1      22.560  -0.540  28.968  0.00  0.00    +0.039 C 
ATOM     22  C2  UNL     1      22.186   0.942  29.080  0.00  0.00    +0.125 C 
BRANCH  22  23
ATOM     23  O1  UNL     1      22.247   1.558  27.817  0.00  0.00    -0.391 OA
ATOM     24  H5  UNL     1      23.151   1.959  27.724  0.00  0.00    +0.210 HD
ENDBRANCH  22  23
ENDBRANCH  20  22
ENDBRANCH   1  20
TORSDOF 5
ENDMDL
MODEL 3
REMARK VINA RESULT:    -5.627     11.862     14.226
REMARK INTER + INTRA:          -7.473
REMARK INTER:                  -6.799
REMARK INTRA:                  -0.674
REMARK UNBOUND:                -0.529
REMARK  Name = /home/qwerty/github/datacon2025hack/step_04_hit_selection/docking/ligands/lig_114.pdb
REMARK  6 active torsions:
REMARK  status: ('A' for Active; 'I' for Inactive)
REMARK    1  A    between atoms: C1_1  and  C2_2
REMARK    2  A    between atoms: C2_2  and  O1_3
REMARK    3  A    between atoms: C2_2  and  C3_4
REMARK    4  A    between atoms: C3_4  and  N1_5
REMARK    5  A    between atoms: C6_9  and  C7_11
REMARK    6  A    between atoms: C11_16  and  O3_17
REMARK                            x       y       z     vdW  Elec       q    Type
REMARK                         _______ _______ _______ _____ _____    ______ ____
ROOT
ATOM      1  N1  UNL     1      21.447   2.119  30.301  0.00  0.00    -0.297 NA
ATOM      2  C4  UNL     1      21.017   0.835  29.711  0.00  0.00    +0.103 C 
ATOM      3  C5  UNL     1      21.086   0.901  28.184  0.00  0.00    +0.123 C 
ATOM      4  N2  UNL     1      20.335   2.063  27.699  0.00  0.00    -0.295 N 
ATOM      5  C6  UNL     1      19.713   2.025  26.401  0.00  0.00    +0.252 C 
ATOM      6  O2  UNL     1      19.937   2.957  25.582  0.00  0.00    -0.270 OA
ATOM      7  C15 UNL     1      20.602   3.355  28.334  0.00  0.00    +0.123 C 
ATOM      8  C16 UNL     1      20.545   3.204  29.856  0.00  0.00    +0.103 C 
ENDROOT
BRANCH   5   9
ATOM      9  C7  UNL     1      18.786   0.928  26.032  0.00  0.00    +0.098 A 
ATOM     10  C8  UNL     1      17.593   0.741  26.760  0.00  0.00    +0.023 A 
ATOM     11  C9  UNL     1      16.731  -0.285  26.386  0.00  0.00    -0.025 A 
ATOM     12  C10 UNL     1      17.033  -1.092  25.327  0.00  0.00    +0.048 A 
ATOM     13  N3  UNL     1      18.172  -0.923  24.611  0.00  0.00    -0.217 NA
ATOM     14  C11 UNL     1      19.055   0.066  24.936  0.00  0.00    +0.225 A 
ATOM     15  C12 UNL     1      16.001  -2.117  25.078  0.00  0.00    +0.056 C 
ATOM     16  C13 UNL     1      14.949  -1.851  26.174  0.00  0.00    +0.011 C 
ATOM     17  C14 UNL     1      15.440  -0.648  27.009  0.00  0.00    +0.037 C 
BRANCH  14  18
ATOM     18  O3  UNL     1      20.223   0.209  24.191  0.00  0.00    -0.492 OA
ATOM     19  H13 UNL     1      20.937  -0.510  24.199  0.00  0.00    +0.294 HD
ENDBRANCH  14  18
ENDBRANCH   5   9
BRANCH   1  20
ATOM     20  C3  UNL     1      21.471   2.025  31.779  0.00  0.00    +0.115 C 
BRANCH  20  22
ATOM     21  C1  UNL     1      21.234   3.666  33.699  0.00  0.00    +0.039 C 
ATOM     22  C2  UNL     1      21.982   3.340  32.402  0.00  0.00    +0.125 C 
BRANCH  22  23
ATOM     23  O1  UNL     1      23.367   3.277  32.639  0.00  0.00    -0.391 OA
ATOM     24  H5  UNL     1      23.626   2.319  32.650  0.00  0.00    +0.210 HD
ENDBRANCH  22  23
ENDBRANCH  20  22
ENDBRANCH   1  20
TORSDOF 5
ENDMDL
MODEL 4
REMARK VINA RESULT:    -5.614     10.528     13.436
REMARK INTER + INTRA:          -7.456
REMARK INTER:                  -6.794
REMARK INTRA:                  -0.662
REMARK UNBOUND:                -0.529
REMARK  Name = /home/qwerty/github/datacon2025hack/step_04_hit_selection/docking/ligands/lig_114.pdb
REMARK  6 active torsions:
REMARK  status: ('A' for Active; 'I' for Inactive)
REMARK    1  A    between atoms: C1_1  and  C2_2
REMARK    2  A    between atoms: C2_2  and  O1_3
REMARK    3  A    between atoms: C2_2  and  C3_4
REMARK    4  A    between atoms: C3_4  and  N1_5
REMARK    5  A    between atoms: C6_9  and  C7_11
REMARK    6  A    between atoms: C11_16  and  O3_17
REMARK                            x       y       z     vdW  Elec       q    Type
REMARK                         _______ _______ _______ _____ _____    ______ ____
ROOT
ATOM      1  N1  UNL     1       9.501  12.632  29.147  0.00  0.00    -0.297 NA
ATOM      2  C4  UNL     1       9.339  13.033  27.734  0.00  0.00    +0.103 C 
ATOM      3  C5  UNL     1       8.260  12.183  27.059  0.00  0.00    +0.123 C 
ATOM      4  N2  UNL     1       8.556  10.759  27.246  0.00  0.00    -0.295 N 
ATOM      5  C6  UNL     1       8.134   9.803  26.257  0.00  0.00    +0.252 C 
ATOM      6  O2  UNL     1       7.473   8.791  26.618  0.00  0.00    -0.270 OA
ATOM      7  C15 UNL     1       8.868  10.305  28.603  0.00  0.00    +0.123 C 
ATOM      8  C16 UNL     1       9.929  11.218  29.222  0.00  0.00    +0.103 C 
ENDROOT
BRANCH   5   9
ATOM      9  C7  UNL     1       8.498   9.972  24.829  0.00  0.00    +0.098 A 
ATOM     10  C8  UNL     1       9.854   9.968  24.445  0.00  0.00    +0.023 A 
ATOM     11  C9  UNL     1      10.172  10.113  23.097  0.00  0.00    -0.025 A 
ATOM     12  C10 UNL     1       9.185  10.249  22.164  0.00  0.00    +0.048 A 
ATOM     13  N3  UNL     1       7.875  10.247  22.514  0.00  0.00    -0.217 NA
ATOM     14  C11 UNL     1       7.507  10.112  23.822  0.00  0.00    +0.225 A 
ATOM     15  C12 UNL     1       9.712  10.384  20.791  0.00  0.00    +0.056 C 
ATOM     16  C13 UNL     1      11.241  10.321  20.980  0.00  0.00    +0.011 C 
ATOM     17  C14 UNL     1      11.519  10.135  22.487  0.00  0.00    +0.037 C 
BRANCH  14  18
ATOM     18  O3  UNL     1       6.155  10.126  24.154  0.00  0.00    -0.492 OA
ATOM     19  H13 UNL     1       5.445  10.252  23.442  0.00  0.00    +0.294 HD
ENDBRANCH  14  18
ENDBRANCH   5   9
BRANCH   1  20
ATOM     20  C3  UNL     1      10.475  13.516  29.826  0.00  0.00    +0.115 C 
BRANCH  20  22
ATOM     21  C1  UNL     1      12.150  14.924  28.542  0.00  0.00    +0.039 C 
ATOM     22  C2  UNL     1      11.822  13.525  29.075  0.00  0.00    +0.125 C 
BRANCH  22  23
ATOM     23  O1  UNL     1      12.860  13.061  29.902  0.00  0.00    -0.391 OA
ATOM     24  H5  UNL     1      12.998  12.099  29.698  0.00  0.00    +0.210 HD
ENDBRANCH  22  23
ENDBRANCH  20  22
ENDBRANCH   1  20
TORSDOF 5
ENDMDL
MODEL 5
REMARK VINA RESULT:    -5.609      2.803      8.375
REMARK INTER + INTRA:          -7.450
REMARK INTER:                  -6.966
REMARK INTRA:                  -0.483
REMARK UNBOUND:                -0.529
REMARK  Name = /home/qwerty/github/datacon2025hack/step_04_hit_selection/docking/ligands/lig_114.pdb
REMARK  6 active torsions:
REMARK  status: ('A' for Active; 'I' for Inactive)
REMARK    1  A    between atoms: C1_1  and  C2_2
REMARK    2  A    between atoms: C2_2  and  O1_3
REMARK    3  A    between atoms: C2_2  and  C3_4
REMARK    4  A    between atoms: C3_4  and  N1_5
REMARK    5  A    between atoms: C6_9  and  C7_11
REMARK    6  A    between atoms: C11_16  and  O3_17
REMARK                            x       y       z     vdW  Elec       q    Type
REMARK                         _______ _______ _______ _____ _____    ______ ____
ROOT
ATOM      1  N1  UNL     1      16.374  10.218  36.309  0.00  0.00    -0.297 NA
ATOM      2  C4  UNL     1      17.374   9.854  35.285  0.00  0.00    +0.103 C 
ATOM      3  C5  UNL     1      17.738   8.373  35.397  0.00  0.00    +0.123 C 
ATOM      4  N2  UNL     1      18.148   8.061  36.769  0.00  0.00    -0.295 N 
ATOM      5  C6  UNL     1      19.095   7.005  37.013  0.00  0.00    +0.252 C 
ATOM      6  O2  UNL     1      18.814   6.103  37.848  0.00  0.00    -0.270 OA
ATOM      7  C15 UNL     1      17.276   8.514  37.856  0.00  0.00    +0.123 C 
ATOM      8  C16 UNL     1      16.932   9.993  37.660  0.00  0.00    +0.103 C 
ENDROOT
BRANCH   5   9
ATOM      9  C7  UNL     1      20.409   6.987  36.326  0.00  0.00    +0.098 A 
ATOM     10  C8  UNL     1      20.610   6.140  35.216  0.00  0.00    +0.023 A 
ATOM     11  C9  UNL     1      21.846   6.150  34.578  0.00  0.00    -0.025 A 
ATOM     12  C10 UNL     1      22.844   6.972  35.014  0.00  0.00    +0.048 A 
ATOM     13  N3  UNL     1      22.667   7.799  36.075  0.00  0.00    -0.217 NA
ATOM     14  C11 UNL     1      21.475   7.827  36.740  0.00  0.00    +0.225 A 
ATOM     15  C12 UNL     1      24.078   6.849  34.212  0.00  0.00    +0.056 C 
ATOM     16  C13 UNL     1      23.721   5.783  33.156  0.00  0.00    +0.011 C 
ATOM     17  C14 UNL     1      22.261   5.347  33.406  0.00  0.00    +0.037 C 
BRANCH  14  18
ATOM     18  O3  UNL     1      21.326   8.676  37.834  0.00  0.00    -0.492 OA
ATOM     19  H13 UNL     1      22.111   9.207  38.192  0.00  0.00    +0.294 HD
ENDBRANCH  14  18
ENDBRANCH   5   9
BRANCH   1  20
ATOM     20  C3  UNL     1      15.950  11.627  36.140  0.00  0.00    +0.115 C 
BRANCH  20  22
ATOM     21  C1  UNL     1      17.448  13.425  35.159  0.00  0.00    +0.039 C 
ATOM     22  C2  UNL     1      17.128  12.587  36.402  0.00  0.00    +0.125 C 
BRANCH  22  23
ATOM     23  O1  UNL     1      16.859  13.423  37.500  0.00  0.00    -0.391 OA
ATOM     24  H5  UNL     1      17.135  12.938  38.321  0.00  0.00    +0.210 HD
ENDBRANCH  22  23
ENDBRANCH  20  22
ENDBRANCH   1  20
TORSDOF 5
ENDMDL
MODEL 6
REMARK VINA RESULT:    -5.541      6.734      9.369
REMARK INTER + INTRA:          -7.366
REMARK INTER:                  -6.654
REMARK INTRA:                  -0.713
REMARK UNBOUND:                -0.529
REMARK  Name = /home/qwerty/github/datacon2025hack/step_04_hit_selection/docking/ligands/lig_114.pdb
REMARK  6 active torsions:
REMARK  status: ('A' for Active; 'I' for Inactive)
REMARK    1  A    between atoms: C1_1  and  C2_2
REMARK    2  A    between atoms: C2_2  and  O1_3
REMARK    3  A    between atoms: C2_2  and  C3_4
REMARK    4  A    between atoms: C3_4  and  N1_5
REMARK    5  A    between atoms: C6_9  and  C7_11
REMARK    6  A    between atoms: C11_16  and  O3_17
REMARK                            x       y       z     vdW  Elec       q    Type
REMARK                         _______ _______ _______ _____ _____    ______ ____
ROOT
ATOM      1  N1  UNL     1       9.184  12.137  27.940  0.00  0.00    -0.297 NA
ATOM      2  C4  UNL     1       8.729  12.482  29.302  0.00  0.00    +0.103 C 
ATOM      3  C5  UNL     1       9.650  13.535  29.921  0.00  0.00    +0.123 C 
ATOM      4  N2  UNL     1      11.043  13.082  29.854  0.00  0.00    -0.295 N 
ATOM      5  C6  UNL     1      11.985  13.507  30.855  0.00  0.00    +0.252 C 
ATOM      6  O2  UNL     1      13.078  14.024  30.496  0.00  0.00    -0.270 OA
ATOM      7  C15 UNL     1      11.532  12.589  28.564  0.00  0.00    +0.123 C 
ATOM      8  C16 UNL     1      10.547  11.565  27.995  0.00  0.00    +0.103 C 
ENDROOT
BRANCH   5   9
ATOM      9  C7  UNL     1      11.704  13.311  32.298  0.00  0.00    +0.098 A 
ATOM     10  C8  UNL     1      11.617  12.006  32.825  0.00  0.00    +0.023 A 
ATOM     11  C9  UNL     1      11.368  11.846  34.185  0.00  0.00    -0.025 A 
ATOM     12  C10 UNL     1      11.218  12.934  34.995  0.00  0.00    +0.048 A 
ATOM     13  N3  UNL     1      11.306  14.197  34.507  0.00  0.00    -0.217 NA
ATOM     14  C11 UNL     1      11.546  14.412  33.180  0.00  0.00    +0.225 A 
ATOM     15  C12 UNL     1      10.966  12.569  36.403  0.00  0.00    +0.056 C 
ATOM     16  C13 UNL     1      10.969  11.026  36.385  0.00  0.00    +0.011 C 
ATOM     17  C14 UNL     1      11.241  10.576  34.933  0.00  0.00    +0.037 C 
BRANCH  14  18
ATOM     18  O3  UNL     1      11.618  15.719  32.704  0.00  0.00    -0.492 OA
ATOM     19  H13 UNL     1      12.189  15.950  31.900  0.00  0.00    +0.294 HD
ENDBRANCH  14  18
ENDBRANCH   5   9
BRANCH   1  20
ATOM     20  C3  UNL     1       8.239  11.190  27.304  0.00  0.00    +0.115 C 
BRANCH  20  22
ATOM     21  C1  UNL     1       7.349   9.156  28.531  0.00  0.00    +0.039 C 
ATOM     22  C2  UNL     1       8.530   9.743  27.751  0.00  0.00    +0.125 C 
BRANCH  22  23
ATOM     23  O1  UNL     1       8.841   8.931  26.647  0.00  0.00    -0.391 OA
ATOM     24  H5  UNL     1       9.819   8.999  26.490  0.00  0.00    +0.210 HD
ENDBRANCH  22  23
ENDBRANCH  20  22
ENDBRANCH   1  20
TORSDOF 5
ENDMDL
MODEL 7
REMARK VINA RESULT:    -5.502     10.967     13.133
REMARK INTER + INTRA:          -7.319
REMARK INTER:                  -6.623
REMARK INTRA:                  -0.695
REMARK UNBOUND:                -0.529
REMARK  Name = /home/qwerty/github/datacon2025hack/step_04_hit_selection/docking/ligands/lig_114.pdb
REMARK  6 active torsions:
REMARK  status: ('A' for Active; 'I' for Inactive)
REMARK    1  A    between atoms: C1_1  and  C2_2
REMARK    2  A    between atoms: C2_2  and  O1_3
REMARK    3  A    between atoms: C2_2  and  C3_4
REMARK    4  A    between atoms: C3_4  and  N1_5
REMARK    5  A    between atoms: C6_9  and  C7_11
REMARK    6  A    between atoms: C11_16  and  O3_17
REMARK                            x       y       z     vdW  Elec       q    Type
REMARK                         _______ _______ _______ _____ _____    ______ ____
ROOT
ATOM      1  N1  UNL     1      20.936   3.459  26.339  0.00  0.00    -0.297 NA
ATOM      2  C4  UNL     1      20.402   3.974  27.616  0.00  0.00    +0.103 C 
ATOM      3  C5  UNL     1      21.446   3.834  28.726  0.00  0.00    +0.123 C 
ATOM      4  N2  UNL     1      21.922   2.449  28.792  0.00  0.00    -0.295 N 
ATOM      5  C6  UNL     1      22.370   1.904  30.046  0.00  0.00    +0.252 C 
ATOM      6  O2  UNL     1      23.499   1.347  30.110  0.00  0.00    -0.270 OA
ATOM      7  C15 UNL     1      22.338   1.815  27.539  0.00  0.00    +0.123 C 
ATOM      8  C16 UNL     1      21.260   2.022  26.472  0.00  0.00    +0.103 C 
ENDROOT
BRANCH   5   9
ATOM      9  C7  UNL     1      21.506   1.953  31.251  0.00  0.00    +0.098 A 
ATOM     10  C8  UNL     1      20.260   1.294  31.250  0.00  0.00    +0.023 A 
ATOM     11  C9  UNL     1      19.472   1.342  32.397  0.00  0.00    -0.025 A 
ATOM     12  C10 UNL     1      19.905   2.009  33.506  0.00  0.00    +0.048 A 
ATOM     13  N3  UNL     1      21.104   2.642  33.528  0.00  0.00    -0.217 NA
ATOM     14  C11 UNL     1      21.915   2.630  32.430  0.00  0.00    +0.225 A 
ATOM     15  C12 UNL     1      18.941   1.945  34.623  0.00  0.00    +0.056 C 
ATOM     16  C13 UNL     1      17.775   1.114  34.051  0.00  0.00    +0.011 C 
ATOM     17  C14 UNL     1      18.145   0.723  32.603  0.00  0.00    +0.037 C 
BRANCH  14  18
ATOM     18  O3  UNL     1      23.135   3.300  32.477  0.00  0.00    -0.492 OA
ATOM     19  H13 UNL     1      23.281   4.155  31.954  0.00  0.00    +0.294 HD
ENDBRANCH  14  18
ENDBRANCH   5   9
BRANCH   1  20
ATOM     20  C3  UNL     1      19.962   3.681  25.245  0.00  0.00    +0.115 C 
BRANCH  20  22
ATOM     21  C1  UNL     1      21.846   5.093  24.299  0.00  0.00    +0.039 C 
ATOM     22  C2  UNL     1      20.677   4.160  23.965  0.00  0.00    +0.125 C 
BRANCH  22  23
ATOM     23  O1  UNL     1      21.126   3.066  23.203  0.00  0.00    -0.391 OA
ATOM     24  H5  UNL     1      22.118   3.078  23.218  0.00  0.00    +0.210 HD
ENDBRANCH  22  23
ENDBRANCH  20  22
ENDBRANCH   1  20
TORSDOF 5
ENDMDL
MODEL 8
REMARK VINA RESULT:    -5.362     15.982     17.039
REMARK INTER + INTRA:          -7.146
REMARK INTER:                  -6.660
REMARK INTRA:                  -0.485
REMARK UNBOUND:                -0.529
REMARK  Name = /home/qwerty/github/datacon2025hack/step_04_hit_selection/docking/ligands/lig_114.pdb
REMARK  6 active torsions:
REMARK  status: ('A' for Active; 'I' for Inactive)
REMARK    1  A    between atoms: C1_1  and  C2_2
REMARK    2  A    between atoms: C2_2  and  O1_3
REMARK    3  A    between atoms: C2_2  and  C3_4
REMARK    4  A    between atoms: C3_4  and  N1_5
REMARK    5  A    between atoms: C6_9  and  C7_11
REMARK    6  A    between atoms: C11_16  and  O3_17
REMARK                            x       y       z     vdW  Elec       q    Type
REMARK                         _______ _______ _______ _____ _____    ______ ____
ROOT
ATOM      1  N1  UNL     1      12.912   2.222  22.510  0.00  0.00    -0.297 NA
ATOM      2  C4  UNL     1      12.859   3.687  22.690  0.00  0.00    +0.103 C 
ATOM      3  C5  UNL     1      11.503   4.105  23.263  0.00  0.00    +0.123 C 
ATOM      4  N2  UNL     1      10.422   3.565  22.433  0.00  0.00    -0.295 N 
ATOM      5  C6  UNL     1       9.171   4.270  22.337  0.00  0.00    +0.252 C 
ATOM      6  O2  UNL     1       8.095   3.652  22.560  0.00  0.00    -0.270 OA
ATOM      7  C15 UNL     1      10.478   2.143  22.090  0.00  0.00    +0.123 C 
ATOM      8  C16 UNL     1      11.868   1.795  21.553  0.00  0.00    +0.103 C 
ENDROOT
BRANCH   5   9
ATOM      9  C7  UNL     1       9.129   5.699  21.944  0.00  0.00    +0.098 A 
ATOM     10  C8  UNL     1       8.610   6.659  22.836  0.00  0.00    +0.023 A 
ATOM     11  C9  UNL     1       8.594   7.997  22.451  0.00  0.00    -0.025 A 
ATOM     12  C10 UNL     1       9.081   8.372  21.232  0.00  0.00    +0.048 A 
ATOM     13  N3  UNL     1       9.591   7.464  20.363  0.00  0.00    -0.217 NA
ATOM     14  C11 UNL     1       9.628   6.138  20.689  0.00  0.00    +0.225 A 
ATOM     15  C12 UNL     1       8.986   9.827  21.003  0.00  0.00    +0.056 C 
ATOM     16  C13 UNL     1       8.338  10.359  22.297  0.00  0.00    +0.011 C 
ATOM     17  C14 UNL     1       8.099   9.152  23.230  0.00  0.00    +0.037 C 
BRANCH  14  18
ATOM     18  O3  UNL     1      10.145   5.226  19.772  0.00  0.00    -0.492 OA
ATOM     19  H13 UNL     1       9.791   4.278  19.724  0.00  0.00    +0.294 HD
ENDBRANCH  14  18
ENDBRANCH   5   9
BRANCH   1  20
ATOM     20  C3  UNL     1      14.256   1.807  22.047  0.00  0.00    +0.115 C 
BRANCH  20  22
ATOM     21  C1  UNL     1      15.327   2.794  19.969  0.00  0.00    +0.039 C 
ATOM     22  C2  UNL     1      14.317   1.774  20.506  0.00  0.00    +0.125 C 
BRANCH  22  23
ATOM     23  O1  UNL     1      14.632   0.484  20.045  0.00  0.00    -0.391 OA
ATOM     24  H5  UNL     1      15.565   0.286  20.322  0.00  0.00    +0.210 HD
ENDBRANCH  22  23
ENDBRANCH  20  22
ENDBRANCH   1  20
TORSDOF 5
ENDMDL
MODEL 9
REMARK VINA RESULT:    -5.346     10.730     13.038
REMARK INTER + INTRA:          -7.126
REMARK INTER:                  -6.587
REMARK INTRA:                  -0.539
REMARK UNBOUND:                -0.529
REMARK  Name = /home/qwerty/github/datacon2025hack/step_04_hit_selection/docking/ligands/lig_114.pdb
REMARK  6 active torsions:
REMARK  status: ('A' for Active; 'I' for Inactive)
REMARK    1  A    between atoms: C1_1  and  C2_2
REMARK    2  A    between atoms: C2_2  and  O1_3
REMARK    3  A    between atoms: C2_2  and  C3_4
REMARK    4  A    between atoms: C3_4  and  N1_5
REMARK    5  A    between atoms: C6_9  and  C7_11
REMARK    6  A    between atoms: C11_16  and  O3_17
REMARK                            x       y       z     vdW  Elec       q    Type
REMARK                         _______ _______ _______ _____ _____    ______ ____
ROOT
ATOM      1  N1  UNL     1      18.230   1.091  34.269  0.00  0.00    -0.297 NA
ATOM      2  C4  UNL     1      18.316   0.308  33.020  0.00  0.00    +0.103 C 
ATOM      3  C5  UNL     1      19.755   0.290  32.500  0.00  0.00    +0.123 C 
ATOM      4  N2  UNL     1      20.262   1.661  32.383  0.00  0.00    -0.295 N 
ATOM      5  C6  UNL     1      21.251   1.977  31.387  0.00  0.00    +0.252 C 
ATOM      6  O2  UNL     1      22.307   2.574  31.733  0.00  0.00    -0.270 OA
ATOM      7  C15 UNL     1      20.086   2.548  33.535  0.00  0.00    +0.123 C 
ATOM      8  C16 UNL     1      18.634   2.491  34.015  0.00  0.00    +0.103 C 
ENDROOT
BRANCH   5   9
ATOM      9  C7  UNL     1      21.029   1.646  29.959  0.00  0.00    +0.098 A 
ATOM     10  C8  UNL     1      19.740   1.767  29.402  0.00  0.00    +0.023 A 
ATOM     11  C9  UNL     1      19.557   1.465  28.056  0.00  0.00    -0.025 A 
ATOM     12  C10 UNL     1      20.612   1.065  27.287  0.00  0.00    +0.048 A 
ATOM     13  N3  UNL     1      21.861   0.950  27.803  0.00  0.00    -0.217 NA
ATOM     14  C11 UNL     1      22.095   1.231  29.118  0.00  0.00    +0.225 A 
ATOM     15  C12 UNL     1      20.228   0.796  25.887  0.00  0.00    +0.056 C 
ATOM     16  C13 UNL     1      18.713   1.083  25.862  0.00  0.00    +0.011 C 
ATOM     17  C14 UNL     1      18.298   1.526  27.282  0.00  0.00    +0.037 C 
BRANCH  14  18
ATOM     18  O3  UNL     1      23.385   1.091  29.625  0.00  0.00    -0.492 OA
ATOM     19  H13 UNL     1      23.555   0.587  30.486  0.00  0.00    +0.294 HD
ENDBRANCH  14  18
ENDBRANCH   5   9
BRANCH   1  20
ATOM     20  C3  UNL     1      16.858   1.029  34.823  0.00  0.00    +0.115 C 
BRANCH  20  22
ATOM     21  C1  UNL     1      16.435  -0.956  36.345  0.00  0.00    +0.039 C 
ATOM     22  C2  UNL     1      16.877   0.510  36.275  0.00  0.00    +0.125 C 
BRANCH  22  23
ATOM     23  O1  UNL     1      18.152   0.664  36.846  0.00  0.00    -0.391 OA
ATOM     24  H5  UNL     1      18.289   1.632  37.018  0.00  0.00    +0.210 HD
ENDBRANCH  22  23
ENDBRANCH  20  22
ENDBRANCH   1  20
TORSDOF 5
ENDMDL
