REMARK  Name = /home/qwerty/github/datacon2025hack/step_04_hit_selection/docking/ligands/lig_82.pdb
REMARK  5 active torsions:
REMARK  status: ('A' for Active; 'I' for Inactive)
REMARK    1  A    between atoms: C1_2  and  C16_20
REMARK    2  A    between atoms: N1_3  and  C2_4
REMARK    3  A    between atoms: C2_4  and  C3_5
REMARK    4  A    between atoms: C6_8  and  N2_9
REMARK    5  A    between atoms: C7_10  and  C8_12
REMARK                            x       y       z     vdW  Elec       q    Type
REMARK                         _______ _______ _______ _____ _____    ______ ____
ROOT
ATOM      1  C3  UNL     1       2.445  -0.543  -0.627  0.00  0.00    +0.008 C 
ATOM      2  C4  UNL     1       2.073  -0.411   0.844  0.00  0.00    +0.007 C 
ATOM      3  C5  UNL     1       0.860  -1.304   1.015  0.00  0.00    +0.022 C 
ATOM      4  C6  UNL     1       0.119  -1.269  -0.328  0.00  0.00    +0.073 C 
ATOM      5  C15 UNL     1       1.112  -0.711  -1.358  0.00  0.00    +0.027 C 
ENDROOT
BRANCH   4   6
ATOM      6  N2  UNL     1      -1.077  -0.422  -0.256  0.00  0.00    -0.312 N 
ATOM      7  C7  UNL     1      -2.116  -0.492  -1.244  0.00  0.00    +0.216 C 
ATOM      8  O2  UNL     1      -1.985  -1.255  -2.241  0.00  0.00    -0.276 OA
ATOM      9  H10 UNL     1      -1.174   0.271   0.520  0.00  0.00    +0.149 HD
BRANCH   7  10
ATOM     10  C8  UNL     1      -3.317   0.416  -1.139  0.00  0.00    +0.076 C 
ATOM     11  C9  UNL     1      -4.593  -0.115  -1.818  0.00  0.00    +0.019 C 
ATOM     12  C10 UNL     1      -5.265  -0.145  -0.453  0.00  0.00    -0.028 C 
ATOM     13  C11 UNL     1      -5.892  -1.444   0.033  0.00  0.00    +0.007 C 
ATOM     14  C12 UNL     1      -7.208  -0.689   0.236  0.00  0.00    +0.001 C 
ATOM     15  C13 UNL     1      -6.570   0.612  -0.257  0.00  0.00    +0.007 C 
ATOM     16  C14 UNL     1      -4.007   0.366   0.235  0.00  0.00    +0.019 C 
ENDBRANCH   7  10
ENDBRANCH   4   6
BRANCH   1  17
ATOM     17  C2  UNL     1       3.258   0.652  -1.151  0.00  0.00    +0.108 C 
BRANCH  17  20
ATOM     18  O1  UNL     1       4.031   2.363   1.016  0.00  0.00    -0.270 OA
ATOM     19  C1  UNL     1       4.875   1.517   0.613  0.00  0.00    +0.247 C 
ATOM     20  N1  UNL     1       4.576   0.687  -0.521  0.00  0.00    -0.311 N 
ATOM     21  H1  UNL     1       5.283  -0.005  -0.856  0.00  0.00    +0.149 HD
BRANCH  19  22
ATOM     22  C16 UNL     1       6.163   1.397   1.323  0.00  0.00    +0.074 A 
ATOM     23  C17 UNL     1       6.576   2.138   2.416  0.00  0.00    +0.147 A 
ATOM     24  N3  UNL     1       7.805   1.729   2.789  0.00  0.00    -0.182 NA
ATOM     25  N4  UNL     1       8.175   0.759   1.968  0.00  0.00    -0.284 N 
ATOM     26  C18 UNL     1       7.205   0.529   1.066  0.00  0.00    +0.118 A 
ATOM     27  H25 UNL     1       9.088   0.256   2.029  0.00  0.00    +0.188 HD
ENDBRANCH  19  22
ENDBRANCH  17  20
ENDBRANCH   1  17
TORSDOF 5
