MODEL 1
REMARK VINA RESULT:    -6.343      0.000      0.000
REMARK INTER + INTRA:          -9.432
REMARK INTER:                  -8.568
REMARK INTRA:                  -0.864
REMARK UNBOUND:                -0.864
REMARK  Name = /home/qwerty/github/datacon2025hack/step_04_hit_selection/docking/ligands/lig_452.pdb
REMARK  10 active torsions:
REMARK  status: ('A' for Active; 'I' for Inactive)
REMARK    1  A    between atoms: C1_1  and  O1_2
REMARK    2  A    between atoms: O1_2  and  C2_3
REMARK    3  A    between atoms: C4_5  and  C5_6
REMARK    4  A    between atoms: C9_14  and  C10_15
REMARK    5  A    between atoms: C13_18  and  C14_19
REMARK    6  A    between atoms: C17_22  and  C18_23
REMARK    7  A    between atoms: C25_33  and  O3_34
REMARK    8  A    between atoms: O3_34  and  C26_35
REMARK    9  A    between atoms: C27_36  and  O4_37
REMARK   10  A    between atoms: O4_37  and  C28_38
REMARK                            x       y       z     vdW  Elec       q    Type
REMARK                         _______ _______ _______ _____ _____    ______ ____
ROOT
ATOM      1  C5  UNL     1      17.555   2.619  24.383  0.00  0.00    +0.247 C 
ATOM      2  O2  UNL     1      17.929   3.106  25.485  0.00  0.00    -0.270 OA
ATOM      3  N1  UNL     1      17.885   3.302  23.160  0.00  0.00    -0.295 N 
ATOM      4  C6  UNL     1      19.240   3.826  22.955  0.00  0.00    +0.127 C 
ATOM      5  C7  UNL     1      19.183   5.248  22.390  0.00  0.00    +0.126 C 
ATOM      6  N2  UNL     1      18.264   5.347  21.247  0.00  0.00    -0.307 N 
ATOM      7  C8  UNL     1      18.350   6.503  20.391  0.00  0.00    +0.161 A 
ATOM      8  N3  UNL     1      19.137   7.567  20.662  0.00  0.00    -0.223 NA
ATOM      9  C9  UNL     1      19.086   8.515  19.687  0.00  0.00    +0.100 A 
ATOM     10  C21 UNL     1      18.242   8.201  18.617  0.00  0.00    +0.078 A 
ATOM     11  S1  UNL     1      17.555   6.697  18.920  0.00  0.00    -0.060 S 
ATOM     12  C22 UNL     1      17.396   4.212  20.894  0.00  0.00    +0.126 C 
ATOM     13  C23 UNL     1      16.837   3.543  22.155  0.00  0.00    +0.127 C 
ENDROOT
BRANCH   1  16
ATOM     14  C2  UNL     1      14.664   0.168  24.654  0.00  0.00    +0.166 A 
ATOM     15  C3  UNL     1      15.409   1.365  24.640  0.00  0.00    +0.062 A 
ATOM     16  C4  UNL     1      16.784   1.356  24.374  0.00  0.00    +0.044 A 
ATOM     17  C24 UNL     1      17.425   0.136  24.134  0.00  0.00    +0.062 A 
ATOM     18  C25 UNL     1      16.704  -1.060  24.110  0.00  0.00    +0.166 A 
ATOM     19  C27 UNL     1      15.324  -1.065  24.398  0.00  0.00    +0.204 A 
BRANCH  14  21
ATOM     20  C1  UNL     1      12.277   0.629  24.020  0.00  0.00    +0.277 C 
ATOM     21  O1  UNL     1      13.286   0.184  24.922  0.00  0.00    -0.491 OA
ENDBRANCH  14  21
BRANCH  18  22
ATOM     22  O3  UNL     1      17.402  -2.240  23.830  0.00  0.00    -0.491 OA
ATOM     23  C26 UNL     1      17.959  -3.073  24.841  0.00  0.00    +0.277 C 
ENDBRANCH  18  22
BRANCH  19  24
ATOM     24  O4  UNL     1      14.677  -2.313  24.447  0.00  0.00    -0.488 OA
ATOM     25  C28 UNL     1      14.310  -3.040  25.615  0.00  0.00    +0.277 C 
ENDBRANCH  19  24
ENDBRANCH   1  16
BRANCH   9  26
ATOM     26  C10 UNL     1      19.913   9.740  19.779  0.00  0.00    +0.112 A 
ATOM     27  C11 UNL     1      19.623  10.908  19.059  0.00  0.00    +0.034 A 
ATOM     28  C12 UNL     1      20.467  12.010  19.170  0.00  0.00    +0.032 A 
ATOM     29  C13 UNL     1      21.595  11.936  20.002  0.00  0.00    +0.093 A 
ATOM     30  N4  UNL     1      21.825  10.779  20.681  0.00  0.00    -0.149 NA
ATOM     31  N5  UNL     1      21.015   9.725  20.576  0.00  0.00    -0.147 NA
BRANCH  29  32
ATOM     32  C14 UNL     1      22.555  13.064  20.132  0.00  0.00    +0.002 A 
ATOM     33  C15 UNL     1      23.103  13.652  18.976  0.00  0.00    +0.010 A 
ATOM     34  C16 UNL     1      24.003  14.717  19.076  0.00  0.00    +0.004 A 
ATOM     35  C17 UNL     1      24.389  15.203  20.331  0.00  0.00    -0.050 A 
ATOM     36  C18 UNL     1      25.322  16.374  20.433  0.00  0.00    +0.044 C 
ATOM     37  C19 UNL     1      23.845  14.626  21.488  0.00  0.00    +0.004 A 
ATOM     38  C20 UNL     1      22.944  13.560  21.391  0.00  0.00    +0.010 A 
ENDBRANCH  29  32
ENDBRANCH   9  26
TORSDOF 6
ENDMDL
MODEL 2
REMARK VINA RESULT:    -6.284     11.073     12.598
REMARK INTER + INTRA:          -9.352
REMARK INTER:                  -8.393
REMARK INTRA:                  -0.959
REMARK UNBOUND:                -0.864
REMARK  Name = /home/qwerty/github/datacon2025hack/step_04_hit_selection/docking/ligands/lig_452.pdb
REMARK  10 active torsions:
REMARK  status: ('A' for Active; 'I' for Inactive)
REMARK    1  A    between atoms: C1_1  and  O1_2
REMARK    2  A    between atoms: O1_2  and  C2_3
REMARK    3  A    between atoms: C4_5  and  C5_6
REMARK    4  A    between atoms: C9_14  and  C10_15
REMARK    5  A    between atoms: C13_18  and  C14_19
REMARK    6  A    between atoms: C17_22  and  C18_23
REMARK    7  A    between atoms: C25_33  and  O3_34
REMARK    8  A    between atoms: O3_34  and  C26_35
REMARK    9  A    between atoms: C27_36  and  O4_37
REMARK   10  A    between atoms: O4_37  and  C28_38
REMARK                            x       y       z     vdW  Elec       q    Type
REMARK                         _______ _______ _______ _____ _____    ______ ____
ROOT
ATOM      1  C5  UNL     1      14.999  11.887  32.096  0.00  0.00    +0.247 C 
ATOM      2  O2  UNL     1      14.631  11.139  31.150  0.00  0.00    -0.270 OA
ATOM      3  N1  UNL     1      16.022  12.872  31.863  0.00  0.00    -0.295 N 
ATOM      4  C6  UNL     1      15.975  13.705  30.655  0.00  0.00    +0.127 C 
ATOM      5  C7  UNL     1      17.360  13.782  30.006  0.00  0.00    +0.126 C 
ATOM      6  N2  UNL     1      18.408  14.106  30.984  0.00  0.00    -0.307 N 
ATOM      7  C8  UNL     1      19.689  14.553  30.500  0.00  0.00    +0.161 A 
ATOM      8  N3  UNL     1      20.024  14.559  29.191  0.00  0.00    -0.223 NA
ATOM      9  C9  UNL     1      21.268  15.067  28.974  0.00  0.00    +0.100 A 
ATOM     10  C21 UNL     1      21.938  15.474  30.132  0.00  0.00    +0.078 A 
ATOM     11  S1  UNL     1      20.930  15.184  31.446  0.00  0.00    -0.060 S 
ATOM     12  C22 UNL     1      18.095  14.134  32.422  0.00  0.00    +0.126 C 
ATOM     13  C23 UNL     1      17.155  12.981  32.795  0.00  0.00    +0.127 C 
ENDROOT
BRANCH   1  16
ATOM     14  C2  UNL     1      13.022  12.651  35.251  0.00  0.00    +0.166 A 
ATOM     15  C3  UNL     1      13.612  12.775  33.976  0.00  0.00    +0.062 A 
ATOM     16  C4  UNL     1      14.370  11.734  33.427  0.00  0.00    +0.044 A 
ATOM     17  C24 UNL     1      14.554  10.560  34.166  0.00  0.00    +0.062 A 
ATOM     18  C25 UNL     1      13.954  10.400  35.417  0.00  0.00    +0.166 A 
ATOM     19  C27 UNL     1      13.207  11.450  35.988  0.00  0.00    +0.204 A 
BRANCH  14  21
ATOM     20  C1  UNL     1      10.902  13.978  35.485  0.00  0.00    +0.277 C 
ATOM     21  O1  UNL     1      12.265  13.700  35.796  0.00  0.00    -0.491 OA
ENDBRANCH  14  21
BRANCH  18  22
ATOM     22  O3  UNL     1      14.151   9.187  36.087  0.00  0.00    -0.491 OA
ATOM     23  C26 UNL     1      15.407   8.520  36.136  0.00  0.00    +0.277 C 
ENDBRANCH  18  22
BRANCH  19  24
ATOM     24  O4  UNL     1      12.707  11.256  37.289  0.00  0.00    -0.488 OA
ATOM     25  C28 UNL     1      11.385  10.864  37.645  0.00  0.00    +0.277 C 
ENDBRANCH  19  24
ENDBRANCH   1  16
BRANCH   9  26
ATOM     26  C10 UNL     1      21.801  15.198  27.599  0.00  0.00    +0.112 A 
ATOM     27  C11 UNL     1      22.988  14.576  27.183  0.00  0.00    +0.034 A 
ATOM     28  C12 UNL     1      23.447  14.773  25.883  0.00  0.00    +0.032 A 
ATOM     29  C13 UNL     1      22.714  15.588  25.007  0.00  0.00    +0.093 A 
ATOM     30  N4  UNL     1      21.567  16.163  25.463  0.00  0.00    -0.149 NA
ATOM     31  N5  UNL     1      21.127  15.972  26.707  0.00  0.00    -0.147 NA
BRANCH  29  32
ATOM     32  C14 UNL     1      23.171  15.869  23.621  0.00  0.00    +0.002 A 
ATOM     33  C15 UNL     1      24.547  15.847  23.321  0.00  0.00    +0.010 A 
ATOM     34  C16 UNL     1      24.998  16.102  22.023  0.00  0.00    +0.004 A 
ATOM     35  C17 UNL     1      24.086  16.404  21.002  0.00  0.00    -0.050 A 
ATOM     36  C18 UNL     1      24.571  16.635  19.601  0.00  0.00    +0.044 C 
ATOM     37  C19 UNL     1      22.714  16.424  21.291  0.00  0.00    +0.004 A 
ATOM     38  C20 UNL     1      22.260  16.168  22.590  0.00  0.00    +0.010 A 
ENDBRANCH  29  32
ENDBRANCH   9  26
TORSDOF 6
ENDMDL
MODEL 3
REMARK VINA RESULT:    -6.269     11.073     12.791
REMARK INTER + INTRA:          -9.331
REMARK INTER:                  -8.477
REMARK INTRA:                  -0.854
REMARK UNBOUND:                -0.864
REMARK  Name = /home/qwerty/github/datacon2025hack/step_04_hit_selection/docking/ligands/lig_452.pdb
REMARK  10 active torsions:
REMARK  status: ('A' for Active; 'I' for Inactive)
REMARK    1  A    between atoms: C1_1  and  O1_2
REMARK    2  A    between atoms: O1_2  and  C2_3
REMARK    3  A    between atoms: C4_5  and  C5_6
REMARK    4  A    between atoms: C9_14  and  C10_15
REMARK    5  A    between atoms: C13_18  and  C14_19
REMARK    6  A    between atoms: C17_22  and  C18_23
REMARK    7  A    between atoms: C25_33  and  O3_34
REMARK    8  A    between atoms: O3_34  and  C26_35
REMARK    9  A    between atoms: C27_36  and  O4_37
REMARK   10  A    between atoms: O4_37  and  C28_38
REMARK                            x       y       z     vdW  Elec       q    Type
REMARK                         _______ _______ _______ _____ _____    ______ ____
ROOT
ATOM      1  C5  UNL     1      15.310  11.858  32.187  0.00  0.00    +0.247 C 
ATOM      2  O2  UNL     1      14.986  11.068  31.260  0.00  0.00    -0.270 OA
ATOM      3  N1  UNL     1      16.292  12.880  31.935  0.00  0.00    -0.295 N 
ATOM      4  C6  UNL     1      16.221  13.676  30.704  0.00  0.00    +0.127 C 
ATOM      5  C7  UNL     1      17.608  13.796  30.066  0.00  0.00    +0.126 C 
ATOM      6  N2  UNL     1      18.630  14.193  31.045  0.00  0.00    -0.307 N 
ATOM      7  C8  UNL     1      19.895  14.683  30.561  0.00  0.00    +0.161 A 
ATOM      8  N3  UNL     1      20.244  14.667  29.256  0.00  0.00    -0.223 NA
ATOM      9  C9  UNL     1      21.467  15.224  29.036  0.00  0.00    +0.100 A 
ATOM     10  C21 UNL     1      22.106  15.692  30.188  0.00  0.00    +0.078 A 
ATOM     11  S1  UNL     1      21.098  15.395  31.500  0.00  0.00    -0.060 S 
ATOM     12  C22 UNL     1      18.301  14.248  32.478  0.00  0.00    +0.126 C 
ATOM     13  C23 UNL     1      17.408  13.066  32.875  0.00  0.00    +0.127 C 
ENDROOT
BRANCH   1  16
ATOM     14  C2  UNL     1      13.884  10.291  35.342  0.00  0.00    +0.166 A 
ATOM     15  C3  UNL     1      14.505  10.446  34.085  0.00  0.00    +0.062 A 
ATOM     16  C4  UNL     1      14.674  11.714  33.516  0.00  0.00    +0.044 A 
ATOM     17  C24 UNL     1      14.205  12.840  34.202  0.00  0.00    +0.062 A 
ATOM     18  C25 UNL     1      13.616  12.716  35.463  0.00  0.00    +0.166 A 
ATOM     19  C27 UNL     1      13.420  11.442  36.035  0.00  0.00    +0.204 A 
BRANCH  14  21
ATOM     20  C1  UNL     1      12.774   8.041  35.469  0.00  0.00    +0.277 C 
ATOM     21  O1  UNL     1      13.716   9.017  35.906  0.00  0.00    -0.491 OA
ENDBRANCH  14  21
BRANCH  18  22
ATOM     22  O3  UNL     1      13.200  13.886  36.109  0.00  0.00    -0.491 OA
ATOM     23  C26 UNL     1      13.918  15.112  36.034  0.00  0.00    +0.277 C 
ENDBRANCH  18  22
BRANCH  19  24
ATOM     24  O4  UNL     1      12.739  11.383  37.265  0.00  0.00    -0.488 OA
ATOM     25  C28 UNL     1      11.354  11.117  37.462  0.00  0.00    +0.277 C 
ENDBRANCH  19  24
ENDBRANCH   1  16
BRANCH   9  26
ATOM     26  C10 UNL     1      22.009  15.338  27.663  0.00  0.00    +0.112 A 
ATOM     27  C11 UNL     1      23.122  14.606  27.222  0.00  0.00    +0.034 A 
ATOM     28  C12 UNL     1      23.597  14.794  25.927  0.00  0.00    +0.032 A 
ATOM     29  C13 UNL     1      22.955  15.709  25.080  0.00  0.00    +0.093 A 
ATOM     30  N4  UNL     1      21.876  16.389  25.558  0.00  0.00    -0.149 NA
ATOM     31  N5  UNL     1      21.421  16.208  26.799  0.00  0.00    -0.147 NA
BRANCH  29  32
ATOM     32  C14 UNL     1      23.437  15.982  23.700  0.00  0.00    +0.002 A 
ATOM     33  C15 UNL     1      24.814  15.911  23.415  0.00  0.00    +0.010 A 
ATOM     34  C16 UNL     1      25.288  16.158  22.123  0.00  0.00    +0.004 A 
ATOM     35  C17 UNL     1      24.400  16.501  21.096  0.00  0.00    -0.050 A 
ATOM     36  C18 UNL     1      24.908  16.723  19.701  0.00  0.00    +0.044 C 
ATOM     37  C19 UNL     1      23.026  16.570  21.370  0.00  0.00    +0.004 A 
ATOM     38  C20 UNL     1      22.549  16.323  22.662  0.00  0.00    +0.010 A 
ENDBRANCH  29  32
ENDBRANCH   9  26
TORSDOF 6
ENDMDL
MODEL 4
REMARK VINA RESULT:    -6.209      0.511      2.099
REMARK INTER + INTRA:          -9.250
REMARK INTER:                  -8.330
REMARK INTRA:                  -0.920
REMARK UNBOUND:                -0.864
REMARK  Name = /home/qwerty/github/datacon2025hack/step_04_hit_selection/docking/ligands/lig_452.pdb
REMARK  10 active torsions:
REMARK  status: ('A' for Active; 'I' for Inactive)
REMARK    1  A    between atoms: C1_1  and  O1_2
REMARK    2  A    between atoms: O1_2  and  C2_3
REMARK    3  A    between atoms: C4_5  and  C5_6
REMARK    4  A    between atoms: C9_14  and  C10_15
REMARK    5  A    between atoms: C13_18  and  C14_19
REMARK    6  A    between atoms: C17_22  and  C18_23
REMARK    7  A    between atoms: C25_33  and  O3_34
REMARK    8  A    between atoms: O3_34  and  C26_35
REMARK    9  A    between atoms: C27_36  and  O4_37
REMARK   10  A    between atoms: O4_37  and  C28_38
REMARK                            x       y       z     vdW  Elec       q    Type
REMARK                         _______ _______ _______ _____ _____    ______ ____
ROOT
ATOM      1  C5  UNL     1      17.609   2.726  24.527  0.00  0.00    +0.247 C 
ATOM      2  O2  UNL     1      17.944   3.283  25.608  0.00  0.00    -0.270 OA
ATOM      3  N1  UNL     1      17.951   3.347  23.275  0.00  0.00    -0.295 N 
ATOM      4  C6  UNL     1      19.299   3.893  23.072  0.00  0.00    +0.127 C 
ATOM      5  C7  UNL     1      19.221   5.279  22.425  0.00  0.00    +0.126 C 
ATOM      6  N2  UNL     1      18.328   5.291  21.258  0.00  0.00    -0.307 N 
ATOM      7  C8  UNL     1      18.407   6.398  20.341  0.00  0.00    +0.161 A 
ATOM      8  N3  UNL     1      19.162   7.495  20.569  0.00  0.00    -0.223 NA
ATOM      9  C9  UNL     1      19.112   8.386  19.540  0.00  0.00    +0.100 A 
ATOM     10  C21 UNL     1      18.301   7.991  18.471  0.00  0.00    +0.078 A 
ATOM     11  S1  UNL     1      17.644   6.489  18.843  0.00  0.00    -0.060 S 
ATOM     12  C22 UNL     1      17.497   4.116  20.950  0.00  0.00    +0.126 C 
ATOM     13  C23 UNL     1      16.923   3.505  22.234  0.00  0.00    +0.127 C 
ENDROOT
BRANCH   1  16
ATOM     14  C2  UNL     1      16.808  -0.978  24.245  0.00  0.00    +0.166 A 
ATOM     15  C3  UNL     1      17.505   0.247  24.225  0.00  0.00    +0.062 A 
ATOM     16  C4  UNL     1      16.868   1.445  24.572  0.00  0.00    +0.044 A 
ATOM     17  C24 UNL     1      15.516   1.422  24.929  0.00  0.00    +0.062 A 
ATOM     18  C25 UNL     1      14.812   0.216  24.988  0.00  0.00    +0.166 A 
ATOM     19  C27 UNL     1      15.437  -0.992  24.619  0.00  0.00    +0.204 A 
BRANCH  14  21
ATOM     20  C1  UNL     1      18.054  -3.085  24.811  0.00  0.00    +0.277 C 
ATOM     21  O1  UNL     1      17.452  -2.175  23.894  0.00  0.00    -0.491 OA
ENDBRANCH  14  21
BRANCH  18  22
ATOM     22  O3  UNL     1      13.471   0.261  25.387  0.00  0.00    -0.491 OA
ATOM     23  C26 UNL     1      12.989   1.137  26.400  0.00  0.00    +0.277 C 
ENDBRANCH  18  22
BRANCH  19  24
ATOM     24  O4  UNL     1      14.645  -2.155  24.614  0.00  0.00    -0.488 OA
ATOM     25  C28 UNL     1      14.416  -3.036  25.708  0.00  0.00    +0.277 C 
ENDBRANCH  19  24
ENDBRANCH   1  16
BRANCH   9  26
ATOM     26  C10 UNL     1      19.907   9.634  19.582  0.00  0.00    +0.112 A 
ATOM     27  C11 UNL     1      19.484  10.824  18.971  0.00  0.00    +0.034 A 
ATOM     28  C12 UNL     1      20.303  11.949  19.022  0.00  0.00    +0.032 A 
ATOM     29  C13 UNL     1      21.537  11.878  19.685  0.00  0.00    +0.093 A 
ATOM     30  N4  UNL     1      21.895  10.699  20.264  0.00  0.00    -0.149 NA
ATOM     31  N5  UNL     1      21.109   9.622  20.216  0.00  0.00    -0.147 NA
BRANCH  29  32
ATOM     32  C14 UNL     1      22.472  13.032  19.741  0.00  0.00    +0.002 A 
ATOM     33  C15 UNL     1      22.991  13.569  18.547  0.00  0.00    +0.010 A 
ATOM     34  C16 UNL     1      23.867  14.658  18.576  0.00  0.00    +0.004 A 
ATOM     35  C17 UNL     1      24.258  15.220  19.798  0.00  0.00    -0.050 A 
ATOM     36  C18 UNL     1      25.165  16.416  19.823  0.00  0.00    +0.044 C 
ATOM     37  C19 UNL     1      23.742  14.695  20.992  0.00  0.00    +0.004 A 
ATOM     38  C20 UNL     1      22.865  13.606  20.965  0.00  0.00    +0.010 A 
ENDBRANCH  29  32
ENDBRANCH   9  26
TORSDOF 6
ENDMDL
MODEL 5
REMARK VINA RESULT:    -5.970      7.201     13.811
REMARK INTER + INTRA:          -8.928
REMARK INTER:                  -8.595
REMARK INTRA:                  -0.333
REMARK UNBOUND:                -0.864
REMARK  Name = /home/qwerty/github/datacon2025hack/step_04_hit_selection/docking/ligands/lig_452.pdb
REMARK  10 active torsions:
REMARK  status: ('A' for Active; 'I' for Inactive)
REMARK    1  A    between atoms: C1_1  and  O1_2
REMARK    2  A    between atoms: O1_2  and  C2_3
REMARK    3  A    between atoms: C4_5  and  C5_6
REMARK    4  A    between atoms: C9_14  and  C10_15
REMARK    5  A    between atoms: C13_18  and  C14_19
REMARK    6  A    between atoms: C17_22  and  C18_23
REMARK    7  A    between atoms: C25_33  and  O3_34
REMARK    8  A    between atoms: O3_34  and  C26_35
REMARK    9  A    between atoms: C27_36  and  O4_37
REMARK   10  A    between atoms: O4_37  and  C28_38
REMARK                            x       y       z     vdW  Elec       q    Type
REMARK                         _______ _______ _______ _____ _____    ______ ____
ROOT
ATOM      1  C5  UNL     1      19.912   7.710  23.706  0.00  0.00    +0.247 C 
ATOM      2  O2  UNL     1      19.216   8.535  24.359  0.00  0.00    -0.270 OA
ATOM      3  N1  UNL     1      20.178   6.410  24.264  0.00  0.00    -0.295 N 
ATOM      4  C6  UNL     1      19.093   5.648  24.893  0.00  0.00    +0.127 C 
ATOM      5  C7  UNL     1      19.564   5.049  26.222  0.00  0.00    +0.126 C 
ATOM      6  N2  UNL     1      20.856   4.361  26.086  0.00  0.00    -0.307 N 
ATOM      7  C8  UNL     1      21.269   3.459  27.131  0.00  0.00    +0.161 A 
ATOM      8  N3  UNL     1      20.597   3.317  28.294  0.00  0.00    -0.223 NA
ATOM      9  C9  UNL     1      21.153   2.375  29.106  0.00  0.00    +0.100 A 
ATOM     10  C21 UNL     1      22.289   1.754  28.579  0.00  0.00    +0.078 A 
ATOM     11  S1  UNL     1      22.586   2.413  27.061  0.00  0.00    -0.060 S 
ATOM     12  C22 UNL     1      21.622   4.464  24.835  0.00  0.00    +0.126 C 
ATOM     13  C23 UNL     1      21.553   5.889  24.272  0.00  0.00    +0.127 C 
ENDROOT
BRANCH   1  16
ATOM     14  C2  UNL     1      21.780   7.584  20.399  0.00  0.00    +0.166 A 
ATOM     15  C3  UNL     1      21.254   7.220  21.656  0.00  0.00    +0.062 A 
ATOM     16  C4  UNL     1      20.440   8.100  22.380  0.00  0.00    +0.044 A 
ATOM     17  C24 UNL     1      20.161   9.365  21.850  0.00  0.00    +0.062 A 
ATOM     18  C25 UNL     1      20.643   9.737  20.593  0.00  0.00    +0.166 A 
ATOM     19  C27 UNL     1      21.482   8.867  19.866  0.00  0.00    +0.204 A 
BRANCH  14  21
ATOM     20  C1  UNL     1      22.130   5.699  18.776  0.00  0.00    +0.277 C 
ATOM     21  O1  UNL     1      22.597   6.698  19.679  0.00  0.00    -0.491 OA
ENDBRANCH  14  21
BRANCH  18  22
ATOM     22  O3  UNL     1      20.297  11.004  20.108  0.00  0.00    -0.491 OA
ATOM     23  C26 UNL     1      18.998  11.322  19.621  0.00  0.00    +0.277 C 
ENDBRANCH  18  22
BRANCH  19  24
ATOM     24  O4  UNL     1      22.006   9.341  18.649  0.00  0.00    -0.488 OA
ATOM     25  C28 UNL     1      23.268   9.969  18.451  0.00  0.00    +0.277 C 
ENDBRANCH  19  24
ENDBRANCH   1  16
BRANCH   9  26
ATOM     26  C10 UNL     1      20.536   2.043  30.410  0.00  0.00    +0.112 A 
ATOM     27  C11 UNL     1      20.552   0.748  30.949  0.00  0.00    +0.034 A 
ATOM     28  C12 UNL     1      19.919   0.503  32.165  0.00  0.00    +0.032 A 
ATOM     29  C13 UNL     1      19.277   1.555  32.835  0.00  0.00    +0.093 A 
ATOM     30  N4  UNL     1      19.297   2.793  32.268  0.00  0.00    -0.149 NA
ATOM     31  N5  UNL     1      19.905   3.027  31.104  0.00  0.00    -0.147 NA
BRANCH  29  32
ATOM     32  C14 UNL     1      18.551   1.350  34.116  0.00  0.00    +0.002 A 
ATOM     33  C15 UNL     1      18.852   2.162  35.227  0.00  0.00    +0.010 A 
ATOM     34  C16 UNL     1      18.178   1.990  36.439  0.00  0.00    +0.004 A 
ATOM     35  C17 UNL     1      17.203   0.993  36.573  0.00  0.00    -0.050 A 
ATOM     36  C18 UNL     1      16.451   0.840  37.863  0.00  0.00    +0.044 C 
ATOM     37  C19 UNL     1      16.893   0.183  35.471  0.00  0.00    +0.004 A 
ATOM     38  C20 UNL     1      17.567   0.353  34.256  0.00  0.00    +0.010 A 
ENDBRANCH  29  32
ENDBRANCH   9  26
TORSDOF 6
ENDMDL
MODEL 6
REMARK VINA RESULT:    -5.969      3.651      5.123
REMARK INTER + INTRA:          -8.926
REMARK INTER:                  -8.007
REMARK INTRA:                  -0.919
REMARK UNBOUND:                -0.864
REMARK  Name = /home/qwerty/github/datacon2025hack/step_04_hit_selection/docking/ligands/lig_452.pdb
REMARK  10 active torsions:
REMARK  status: ('A' for Active; 'I' for Inactive)
REMARK    1  A    between atoms: C1_1  and  O1_2
REMARK    2  A    between atoms: O1_2  and  C2_3
REMARK    3  A    between atoms: C4_5  and  C5_6
REMARK    4  A    between atoms: C9_14  and  C10_15
REMARK    5  A    between atoms: C13_18  and  C14_19
REMARK    6  A    between atoms: C17_22  and  C18_23
REMARK    7  A    between atoms: C25_33  and  O3_34
REMARK    8  A    between atoms: O3_34  and  C26_35
REMARK    9  A    between atoms: C27_36  and  O4_37
REMARK   10  A    between atoms: O4_37  and  C28_38
REMARK                            x       y       z     vdW  Elec       q    Type
REMARK                         _______ _______ _______ _____ _____    ______ ____
ROOT
ATOM      1  C5  UNL     1      12.067   5.562  24.578  0.00  0.00    +0.247 C 
ATOM      2  O2  UNL     1      11.738   6.677  25.068  0.00  0.00    -0.270 OA
ATOM      3  N1  UNL     1      13.240   5.470  23.750  0.00  0.00    -0.295 N 
ATOM      4  C6  UNL     1      14.482   6.135  24.163  0.00  0.00    +0.127 C 
ATOM      5  C7  UNL     1      15.106   6.880  22.980  0.00  0.00    +0.126 C 
ATOM      6  N2  UNL     1      15.184   6.036  21.779  0.00  0.00    -0.307 N 
ATOM      7  C8  UNL     1      16.044   6.450  20.700  0.00  0.00    +0.161 A 
ATOM      8  N3  UNL     1      16.676   7.644  20.674  0.00  0.00    -0.223 NA
ATOM      9  C9  UNL     1      17.468   7.791  19.576  0.00  0.00    +0.100 A 
ATOM     10  C21 UNL     1      17.466   6.694  18.710  0.00  0.00    +0.078 A 
ATOM     11  S1  UNL     1      16.445   5.524  19.353  0.00  0.00    -0.060 S 
ATOM     12  C22 UNL     1      14.530   4.719  21.757  0.00  0.00    +0.126 C 
ATOM     13  C23 UNL     1      13.165   4.778  22.454  0.00  0.00    +0.127 C 
ENDROOT
BRANCH   1  16
ATOM     14  C2  UNL     1      11.019   2.106  25.763  0.00  0.00    +0.166 A 
ATOM     15  C3  UNL     1      11.794   3.254  25.498  0.00  0.00    +0.062 A 
ATOM     16  C4  UNL     1      11.235   4.372  24.867  0.00  0.00    +0.044 A 
ATOM     17  C24 UNL     1       9.890   4.338  24.480  0.00  0.00    +0.062 A 
ATOM     18  C25 UNL     1       9.093   3.225  24.760  0.00  0.00    +0.166 A 
ATOM     19  C27 UNL     1       9.651   2.086  25.376  0.00  0.00    +0.204 A 
BRANCH  14  21
ATOM     20  C1  UNL     1      12.842   0.972  27.066  0.00  0.00    +0.277 C 
ATOM     21  O1  UNL     1      11.585   0.988  26.395  0.00  0.00    -0.491 OA
ENDBRANCH  14  21
BRANCH  18  22
ATOM     22  O3  UNL     1       7.748   3.271  24.377  0.00  0.00    -0.491 OA
ATOM     23  C26 UNL     1       7.282   4.024  23.262  0.00  0.00    +0.277 C 
ENDBRANCH  18  22
BRANCH  19  24
ATOM     24  O4  UNL     1       8.815   0.967  25.545  0.00  0.00    -0.488 OA
ATOM     25  C28 UNL     1       8.064   0.631  26.707  0.00  0.00    +0.277 C 
ENDBRANCH  19  24
ENDBRANCH   1  16
BRANCH   9  26
ATOM     26  C10 UNL     1      18.279   9.015  19.388  0.00  0.00    +0.112 A 
ATOM     27  C11 UNL     1      19.617   8.982  18.967  0.00  0.00    +0.034 A 
ATOM     28  C12 UNL     1      20.327  10.174  18.847  0.00  0.00    +0.032 A 
ATOM     29  C13 UNL     1      19.695  11.390  19.146  0.00  0.00    +0.093 A 
ATOM     30  N4  UNL     1      18.394  11.363  19.545  0.00  0.00    -0.149 NA
ATOM     31  N5  UNL     1      17.713  10.222  19.659  0.00  0.00    -0.147 NA
BRANCH  29  32
ATOM     32  C14 UNL     1      20.410  12.691  19.075  0.00  0.00    +0.002 A 
ATOM     33  C15 UNL     1      21.691  12.753  18.492  0.00  0.00    +0.010 A 
ATOM     34  C16 UNL     1      22.379  13.967  18.409  0.00  0.00    +0.004 A 
ATOM     35  C17 UNL     1      21.811  15.140  18.924  0.00  0.00    -0.050 A 
ATOM     36  C18 UNL     1      22.534  16.449  18.794  0.00  0.00    +0.044 C 
ATOM     37  C19 UNL     1      20.534  15.088  19.502  0.00  0.00    +0.004 A 
ATOM     38  C20 UNL     1      19.843  13.874  19.585  0.00  0.00    +0.010 A 
ENDBRANCH  29  32
ENDBRANCH   9  26
TORSDOF 6
ENDMDL
MODEL 7
REMARK VINA RESULT:    -5.951      9.830     13.675
REMARK INTER + INTRA:          -8.902
REMARK INTER:                  -8.009
REMARK INTRA:                  -0.893
REMARK UNBOUND:                -0.864
REMARK  Name = /home/qwerty/github/datacon2025hack/step_04_hit_selection/docking/ligands/lig_452.pdb
REMARK  10 active torsions:
REMARK  status: ('A' for Active; 'I' for Inactive)
REMARK    1  A    between atoms: C1_1  and  O1_2
REMARK    2  A    between atoms: O1_2  and  C2_3
REMARK    3  A    between atoms: C4_5  and  C5_6
REMARK    4  A    between atoms: C9_14  and  C10_15
REMARK    5  A    between atoms: C13_18  and  C14_19
REMARK    6  A    between atoms: C17_22  and  C18_23
REMARK    7  A    between atoms: C25_33  and  O3_34
REMARK    8  A    between atoms: O3_34  and  C26_35
REMARK    9  A    between atoms: C27_36  and  O4_37
REMARK   10  A    between atoms: O4_37  and  C28_38
REMARK                            x       y       z     vdW  Elec       q    Type
REMARK                         _______ _______ _______ _____ _____    ______ ____
ROOT
ATOM      1  C5  UNL     1      12.691   9.637  27.083  0.00  0.00    +0.247 C 
ATOM      2  O2  UNL     1      12.965   9.334  25.890  0.00  0.00    -0.270 OA
ATOM      3  N1  UNL     1      13.465   9.066  28.154  0.00  0.00    -0.295 N 
ATOM      4  C6  UNL     1      14.929   9.014  28.053  0.00  0.00    +0.127 C 
ATOM      5  C7  UNL     1      15.444   7.638  28.482  0.00  0.00    +0.126 C 
ATOM      6  N2  UNL     1      14.860   7.207  29.760  0.00  0.00    -0.307 N 
ATOM      7  C8  UNL     1      15.483   6.120  30.472  0.00  0.00    +0.161 A 
ATOM      8  N3  UNL     1      16.495   5.385  29.960  0.00  0.00    -0.223 NA
ATOM      9  C9  UNL     1      16.950   4.445  30.834  0.00  0.00    +0.100 A 
ATOM     10  C21 UNL     1      16.289   4.431  32.066  0.00  0.00    +0.078 A 
ATOM     11  S1  UNL     1      15.113   5.632  32.040  0.00  0.00    -0.060 S 
ATOM     12  C22 UNL     1      13.769   7.981  30.374  0.00  0.00    +0.126 C 
ATOM     13  C23 UNL     1      12.779   8.463  29.307  0.00  0.00    +0.127 C 
ENDROOT
BRANCH   1  16
ATOM     14  C2  UNL     1      10.790  12.775  28.073  0.00  0.00    +0.166 A 
ATOM     15  C3  UNL     1      11.840  11.877  27.793  0.00  0.00    +0.062 A 
ATOM     16  C4  UNL     1      11.578  10.573  27.354  0.00  0.00    +0.044 A 
ATOM     17  C24 UNL     1      10.250  10.156  27.208  0.00  0.00    +0.062 A 
ATOM     18  C25 UNL     1       9.192  11.036  27.448  0.00  0.00    +0.166 A 
ATOM     19  C27 UNL     1       9.445  12.344  27.911  0.00  0.00    +0.204 A 
BRANCH  14  21
ATOM     20  C1  UNL     1      12.000  14.971  27.919  0.00  0.00    +0.277 C 
ATOM     21  O1  UNL     1      11.060  14.080  28.513  0.00  0.00    -0.491 OA
ENDBRANCH  14  21
BRANCH  18  22
ATOM     22  O3  UNL     1       7.890  10.564  27.249  0.00  0.00    -0.491 OA
ATOM     23  C26 UNL     1       7.599   9.227  26.856  0.00  0.00    +0.277 C 
ENDBRANCH  18  22
BRANCH  19  24
ATOM     24  O4  UNL     1       8.332  13.147  28.220  0.00  0.00    -0.488 OA
ATOM     25  C28 UNL     1       7.712  14.108  27.372  0.00  0.00    +0.277 C 
ENDBRANCH  19  24
ENDBRANCH   1  16
BRANCH   9  26
ATOM     26  C10 UNL     1      18.086   3.566  30.475  0.00  0.00    +0.112 A 
ATOM     27  C11 UNL     1      17.913   2.244  30.039  0.00  0.00    +0.034 A 
ATOM     28  C12 UNL     1      19.032   1.465  29.752  0.00  0.00    +0.032 A 
ATOM     29  C13 UNL     1      20.314   2.015  29.900  0.00  0.00    +0.093 A 
ATOM     30  N4  UNL     1      20.422   3.305  30.322  0.00  0.00    -0.149 NA
ATOM     31  N5  UNL     1      19.350   4.051  30.594  0.00  0.00    -0.147 NA
BRANCH  29  32
ATOM     32  C14 UNL     1      21.547   1.224  29.648  0.00  0.00    +0.002 A 
ATOM     33  C15 UNL     1      22.808   1.791  29.914  0.00  0.00    +0.010 A 
ATOM     34  C16 UNL     1      23.980   1.063  29.690  0.00  0.00    +0.004 A 
ATOM     35  C17 UNL     1      23.917  -0.239  29.176  0.00  0.00    -0.050 A 
ATOM     36  C18 UNL     1      25.175  -1.033  28.977  0.00  0.00    +0.044 C 
ATOM     37  C19 UNL     1      22.666  -0.814  28.912  0.00  0.00    +0.004 A 
ATOM     38  C20 UNL     1      21.492  -0.087  29.136  0.00  0.00    +0.010 A 
ENDBRANCH  29  32
ENDBRANCH   9  26
TORSDOF 6
ENDMDL
MODEL 8
REMARK VINA RESULT:    -5.934     10.640     13.541
REMARK INTER + INTRA:          -8.879
REMARK INTER:                  -8.231
REMARK INTRA:                  -0.648
REMARK UNBOUND:                -0.864
REMARK  Name = /home/qwerty/github/datacon2025hack/step_04_hit_selection/docking/ligands/lig_452.pdb
REMARK  10 active torsions:
REMARK  status: ('A' for Active; 'I' for Inactive)
REMARK    1  A    between atoms: C1_1  and  O1_2
REMARK    2  A    between atoms: O1_2  and  C2_3
REMARK    3  A    between atoms: C4_5  and  C5_6
REMARK    4  A    between atoms: C9_14  and  C10_15
REMARK    5  A    between atoms: C13_18  and  C14_19
REMARK    6  A    between atoms: C17_22  and  C18_23
REMARK    7  A    between atoms: C25_33  and  O3_34
REMARK    8  A    between atoms: O3_34  and  C26_35
REMARK    9  A    between atoms: C27_36  and  O4_37
REMARK   10  A    between atoms: O4_37  and  C28_38
REMARK                            x       y       z     vdW  Elec       q    Type
REMARK                         _______ _______ _______ _____ _____    ______ ____
ROOT
ATOM      1  C5  UNL     1      10.478   2.220  33.174  0.00  0.00    +0.247 C 
ATOM      2  O2  UNL     1      10.998   3.342  33.425  0.00  0.00    -0.270 OA
ATOM      3  N1  UNL     1      10.114   1.896  31.820  0.00  0.00    -0.295 N 
ATOM      4  C6  UNL     1      11.042   2.189  30.722  0.00  0.00    +0.127 C 
ATOM      5  C7  UNL     1      10.296   2.838  29.553  0.00  0.00    +0.126 C 
ATOM      6  N2  UNL     1       9.077   2.096  29.199  0.00  0.00    -0.307 N 
ATOM      7  C8  UNL     1       8.455   2.358  27.927  0.00  0.00    +0.161 A 
ATOM      8  N3  UNL     1       8.852   3.349  27.099  0.00  0.00    -0.223 NA
ATOM      9  C9  UNL     1       8.144   3.373  25.936  0.00  0.00    +0.100 A 
ATOM     10  C21 UNL     1       7.163   2.382  25.835  0.00  0.00    +0.078 A 
ATOM     11  S1  UNL     1       7.202   1.465  27.244  0.00  0.00    -0.060 S 
ATOM     12  C22 UNL     1       8.608   0.994  30.054  0.00  0.00    +0.126 C 
ATOM     13  C23 UNL     1       8.779   1.347  31.536  0.00  0.00    +0.127 C 
ENDROOT
BRANCH   1  16
ATOM     14  C2  UNL     1       9.932  -1.032  35.063  0.00  0.00    +0.166 A 
ATOM     15  C3  UNL     1      10.165  -0.110  34.022  0.00  0.00    +0.062 A 
ATOM     16  C4  UNL     1      10.253   1.264  34.281  0.00  0.00    +0.044 A 
ATOM     17  C24 UNL     1      10.090   1.723  35.592  0.00  0.00    +0.062 A 
ATOM     18  C25 UNL     1       9.891   0.828  36.646  0.00  0.00    +0.166 A 
ATOM     19  C27 UNL     1       9.779  -0.555  36.393  0.00  0.00    +0.204 A 
BRANCH  14  21
ATOM     20  C1  UNL     1       8.676  -3.084  34.340  0.00  0.00    +0.277 C 
ATOM     21  O1  UNL     1       9.844  -2.407  34.796  0.00  0.00    -0.491 OA
ENDBRANCH  14  21
BRANCH  18  22
ATOM     22  O3  UNL     1       9.771   1.353  37.938  0.00  0.00    -0.491 OA
ATOM     23  C26 UNL     1       9.397   2.701  38.197  0.00  0.00    +0.277 C 
ENDBRANCH  18  22
BRANCH  19  24
ATOM     24  O4  UNL     1       9.488  -1.391  37.487  0.00  0.00    -0.488 OA
ATOM     25  C28 UNL     1       8.200  -1.825  37.910  0.00  0.00    +0.277 C 
ENDBRANCH  19  24
ENDBRANCH   1  16
BRANCH   9  26
ATOM     26  C10 UNL     1       8.460   4.361  24.879  0.00  0.00    +0.112 A 
ATOM     27  C11 UNL     1       8.807   3.988  23.572  0.00  0.00    +0.034 A 
ATOM     28  C12 UNL     1       9.126   4.973  22.641  0.00  0.00    +0.032 A 
ATOM     29  C13 UNL     1       9.094   6.323  23.022  0.00  0.00    +0.093 A 
ATOM     30  N4  UNL     1       8.745   6.627  24.303  0.00  0.00    -0.149 NA
ATOM     31  N5  UNL     1       8.438   5.683  25.194  0.00  0.00    -0.147 NA
BRANCH  29  32
ATOM     32  C14 UNL     1       9.461   7.418  22.086  0.00  0.00    +0.002 A 
ATOM     33  C15 UNL     1       8.844   8.678  22.207  0.00  0.00    +0.010 A 
ATOM     34  C16 UNL     1       9.179   9.723  21.342  0.00  0.00    +0.004 A 
ATOM     35  C17 UNL     1      10.122   9.526  20.325  0.00  0.00    -0.050 A 
ATOM     36  C18 UNL     1      10.511  10.662  19.425  0.00  0.00    +0.044 C 
ATOM     37  C19 UNL     1      10.746   8.276  20.199  0.00  0.00    +0.004 A 
ATOM     38  C20 UNL     1      10.412   7.228  21.065  0.00  0.00    +0.010 A 
ENDBRANCH  29  32
ENDBRANCH   9  26
TORSDOF 6
ENDMDL
MODEL 9
REMARK VINA RESULT:    -5.921      5.361      8.561
REMARK INTER + INTRA:          -8.861
REMARK INTER:                  -7.947
REMARK INTRA:                  -0.915
REMARK UNBOUND:                -0.864
REMARK  Name = /home/qwerty/github/datacon2025hack/step_04_hit_selection/docking/ligands/lig_452.pdb
REMARK  10 active torsions:
REMARK  status: ('A' for Active; 'I' for Inactive)
REMARK    1  A    between atoms: C1_1  and  O1_2
REMARK    2  A    between atoms: O1_2  and  C2_3
REMARK    3  A    between atoms: C4_5  and  C5_6
REMARK    4  A    between atoms: C9_14  and  C10_15
REMARK    5  A    between atoms: C13_18  and  C14_19
REMARK    6  A    between atoms: C17_22  and  C18_23
REMARK    7  A    between atoms: C25_33  and  O3_34
REMARK    8  A    between atoms: O3_34  and  C26_35
REMARK    9  A    between atoms: C27_36  and  O4_37
REMARK   10  A    between atoms: O4_37  and  C28_38
REMARK                            x       y       z     vdW  Elec       q    Type
REMARK                         _______ _______ _______ _____ _____    ______ ____
ROOT
ATOM      1  C5  UNL     1      10.907   2.301  28.495  0.00  0.00    +0.247 C 
ATOM      2  O2  UNL     1      10.815   3.553  28.610  0.00  0.00    -0.270 OA
ATOM      3  N1  UNL     1      12.050   1.733  27.829  0.00  0.00    -0.295 N 
ATOM      4  C6  UNL     1      13.397   2.233  28.130  0.00  0.00    +0.127 C 
ATOM      5  C7  UNL     1      14.188   2.448  26.837  0.00  0.00    +0.126 C 
ATOM      6  N2  UNL     1      14.106   1.283  25.944  0.00  0.00    -0.307 N 
ATOM      7  C8  UNL     1      15.055   1.173  24.865  0.00  0.00    +0.161 A 
ATOM      8  N3  UNL     1      15.928   2.153  24.546  0.00  0.00    -0.223 NA
ATOM      9  C9  UNL     1      16.753   1.803  23.521  0.00  0.00    +0.100 A 
ATOM     10  C21 UNL     1      16.533   0.519  23.014  0.00  0.00    +0.078 A 
ATOM     11  S1  UNL     1      15.274  -0.177  23.884  0.00  0.00    -0.060 S 
ATOM     12  C22 UNL     1      13.187   0.176  26.253  0.00  0.00    +0.126 C 
ATOM     13  C23 UNL     1      11.854   0.712  26.788  0.00  0.00    +0.127 C 
ENDROOT
BRANCH   1  16
ATOM     14  C2  UNL     1       7.487   0.760  29.103  0.00  0.00    +0.166 A 
ATOM     15  C3  UNL     1       8.523   1.558  28.574  0.00  0.00    +0.062 A 
ATOM     16  C4  UNL     1       9.835   1.443  29.048  0.00  0.00    +0.044 A 
ATOM     17  C24 UNL     1      10.115   0.532  30.073  0.00  0.00    +0.062 A 
ATOM     18  C25 UNL     1       9.113  -0.292  30.591  0.00  0.00    +0.166 A 
ATOM     19  C27 UNL     1       7.784  -0.169  30.137  0.00  0.00    +0.204 A 
BRANCH  14  21
ATOM     20  C1  UNL     1       5.507  -0.070  27.799  0.00  0.00    +0.277 C 
ATOM     21  O1  UNL     1       6.173   0.882  28.625  0.00  0.00    -0.491 OA
ENDBRANCH  14  21
BRANCH  18  22
ATOM     22  O3  UNL     1       9.469  -1.205  31.591  0.00  0.00    -0.491 OA
ATOM     23  C26 UNL     1       9.825  -0.812  32.912  0.00  0.00    +0.277 C 
ENDBRANCH  18  22
BRANCH  19  24
ATOM     24  O4  UNL     1       6.809  -0.965  30.766  0.00  0.00    -0.488 OA
ATOM     25  C28 UNL     1       5.958  -0.582  31.841  0.00  0.00    +0.277 C 
ENDBRANCH  19  24
ENDBRANCH   1  16
BRANCH   9  26
ATOM     26  C10 UNL     1      17.810   2.728  23.052  0.00  0.00    +0.112 A 
ATOM     27  C11 UNL     1      17.621   3.616  21.983  0.00  0.00    +0.034 A 
ATOM     28  C12 UNL     1      18.673   4.432  21.575  0.00  0.00    +0.032 A 
ATOM     29  C13 UNL     1      19.906   4.355  22.240  0.00  0.00    +0.093 A 
ATOM     30  N4  UNL     1      20.032   3.478  23.274  0.00  0.00    -0.149 NA
ATOM     31  N5  UNL     1      19.023   2.699  23.665  0.00  0.00    -0.147 NA
BRANCH  29  32
ATOM     32  C14 UNL     1      21.079   5.170  21.827  0.00  0.00    +0.002 A 
ATOM     33  C15 UNL     1      21.424   5.258  20.464  0.00  0.00    +0.010 A 
ATOM     34  C16 UNL     1      22.518   6.024  20.054  0.00  0.00    +0.004 A 
ATOM     35  C17 UNL     1      23.303   6.701  20.996  0.00  0.00    -0.050 A 
ATOM     36  C18 UNL     1      24.452   7.557  20.548  0.00  0.00    +0.044 C 
ATOM     37  C19 UNL     1      22.965   6.623  22.355  0.00  0.00    +0.004 A 
ATOM     38  C20 UNL     1      21.869   5.857  22.768  0.00  0.00    +0.010 A 
ENDBRANCH  29  32
ENDBRANCH   9  26
TORSDOF 6
ENDMDL
