REMARK  Name = /home/qwerty/github/datacon2025hack/step_04_hit_selection/docking/ligands/lig_789.pdb
REMARK  9 active torsions:
REMARK  status: ('A' for Active; 'I' for Inactive)
REMARK    1  A    between atoms: C1_1  and  C2_2
REMARK    2  A    between atoms: C2_2  and  C3_3
REMARK    3  A    between atoms: C2_2  and  C4_4
REMARK    4  A    between atoms: C6_7  and  C7_8
REMARK    5  A    between atoms: C7_8  and  N2_9
REMARK    6  A    between atoms: N2_9  and  C8_10
REMARK    7  A    between atoms: C8_10  and  C9_11
REMARK    8  A    between atoms: C9_11  and  N3_12
REMARK    9  A    between atoms: C10_13  and  C11_15
REMARK                            x       y       z     vdW  Elec       q    Type
REMARK                         _______ _______ _______ _____ _____    ______ ____
ROOT
ATOM      1  C8  UNL     1      -1.664   1.423  -0.342  0.00  0.00    +0.035 C 
ATOM      2  C13 UNL     1      -1.534   2.674  -1.272  0.00  0.00    +0.024 C 
ATOM      3  C14 UNL     1      -2.823   3.517  -1.337  0.00  0.00    +0.002 C 
ATOM      4  C15 UNL     1      -3.524   3.673   0.028  0.00  0.00    +0.000 C 
ATOM      5  C16 UNL     1      -2.612   3.308   1.203  0.00  0.00    +0.002 C 
ATOM      6  C17 UNL     1      -2.125   1.851   1.101  0.00  0.00    +0.024 C 
ENDROOT
BRANCH   1   7
ATOM      7  N2  UNL     1      -0.381   0.669  -0.279  0.00  0.00    -0.301 NA
ATOM      8  H11 UNL     1      -0.455  -0.042   0.488  0.00  0.00    +0.123 HD
BRANCH   7   9
ATOM      9  C7  UNL     1       0.827   1.476  -0.036  0.00  0.00    +0.178 C 
BRANCH   9  13
ATOM     10  C4  UNL     1       3.494  -0.860   0.081  0.00  0.00    +0.128 A 
ATOM     11  C5  UNL     1       3.466  -0.450   1.398  0.00  0.00    +0.156 A 
ATOM     12  N1  UNL     1       2.495   0.471   1.546  0.00  0.00    -0.220 NA
ATOM     13  C6  UNL     1       1.978   0.582   0.304  0.00  0.00    +0.210 A 
ATOM     14  O3  UNL     1       2.564  -0.207  -0.568  0.00  0.00    -0.443 OA
BRANCH  10  16
ATOM     15  C1  UNL     1       4.140  -3.269   0.064  0.00  0.00    +0.015 C 
ATOM     16  C2  UNL     1       4.402  -1.886  -0.538  0.00  0.00    +0.051 C 
ATOM     17  C3  UNL     1       5.871  -1.483  -0.373  0.00  0.00    +0.015 C 
ENDBRANCH  10  16
ENDBRANCH   9  13
ENDBRANCH   7   9
ENDBRANCH   1   7
BRANCH   1  18
ATOM     18  C9  UNL     1      -2.728   0.472  -0.979  0.00  0.00    +0.126 C 
BRANCH  18  19
ATOM     19  N3  UNL     1      -2.790  -0.828  -0.304  0.00  0.00    -0.308 N 
ATOM     20  C10 UNL     1      -2.022  -1.964  -0.731  0.00  0.00    +0.267 C 
ATOM     21  O1  UNL     1      -1.302  -1.891  -1.764  0.00  0.00    -0.268 OA
ATOM     22  H14 UNL     1      -3.420  -0.924   0.524  0.00  0.00    +0.149 HD
BRANCH  20  23
ATOM     23  C11 UNL     1      -2.056  -3.216   0.037  0.00  0.00    +0.188 A 
ATOM     24  C12 UNL     1      -1.362  -4.372  -0.231  0.00  0.00    +0.192 A 
ATOM     25  N4  UNL     1      -1.683  -5.256   0.729  0.00  0.00    -0.057 NA
ATOM     26  O2  UNL     1      -2.521  -4.641   1.515  0.00  0.00    -0.242 OA
ATOM     27  N5  UNL     1      -2.781  -3.418   1.151  0.00  0.00    -0.044 NA
ENDBRANCH  20  23
ENDBRANCH  18  19
ENDBRANCH   1  18
TORSDOF 7
