REMARK  Name = /home/qwerty/github/datacon2025hack/step_04_hit_selection/docking/ligands/lig_428.pdb
REMARK  4 active torsions:
REMARK  status: ('A' for Active; 'I' for Inactive)
REMARK    1  A    between atoms: N1_3  and  C2_4
REMARK    2  A    between atoms: N2_8  and  C6_9
REMARK    3  A    between atoms: C6_9  and  C7_10
REMARK    4  A    between atoms: C17_21  and  C18_22
REMARK                            x       y       z     vdW  Elec       q    Type
REMARK                         _______ _______ _______ _____ _____    ______ ____
ROOT
ATOM      1  O1  UNL     1      -0.945   1.613   0.032  0.00  0.00    -0.253 OA
ATOM      2  C1  UNL     1      -1.299   0.403  -0.013  0.00  0.00    +0.302 C 
ATOM      3  N1  UNL     1      -0.417  -0.617   0.482  0.00  0.00    -0.295 N 
ATOM      4  N3  UNL     1      -2.600   0.062  -0.525  0.00  0.00    -0.285 N 
ATOM      5  C14 UNL     1      -2.815  -1.172  -1.292  0.00  0.00    +0.109 C 
ATOM      6  C15 UNL     1      -4.042  -1.931  -0.763  0.00  0.00    +0.020 C 
ATOM      7  C16 UNL     1      -5.199  -1.006  -0.322  0.00  0.00    +0.013 C 
ATOM      8  C17 UNL     1      -5.041   0.432  -0.852  0.00  0.00    +0.055 C 
ATOM      9  C21 UNL     1      -3.701   1.026  -0.375  0.00  0.00    +0.119 C 
ATOM     10  H1  UNL     1      -0.809  -1.567   0.666  0.00  0.00    +0.151 HD
ENDROOT
BRANCH   3  11
ATOM     11  C2  UNL     1       0.997  -0.349   0.773  0.00  0.00    +0.088 C 
ATOM     12  C3  UNL     1       1.603  -1.470   1.653  0.00  0.00    +0.025 C 
ATOM     13  C4  UNL     1       2.408  -2.465   0.821  0.00  0.00    +0.017 C 
ATOM     14  C5  UNL     1       3.559  -1.758   0.077  0.00  0.00    +0.085 C 
ATOM     15  N2  UNL     1       3.221  -0.392  -0.407  0.00  0.00    -0.296 NA
ATOM     16  C13 UNL     1       1.768  -0.171  -0.559  0.00  0.00    +0.107 C 
BRANCH  15  17
ATOM     17  C6  UNL     1       3.874   0.680   0.375  0.00  0.00    +0.119 C 
BRANCH  17  18
ATOM     18  C7  UNL     1       5.321   0.802  -0.022  0.00  0.00    -0.033 A 
ATOM     19  C8  UNL     1       5.660   1.249  -1.310  0.00  0.00    +0.005 A 
ATOM     20  C9  UNL     1       7.001   1.352  -1.690  0.00  0.00    +0.000 A 
ATOM     21  C10 UNL     1       8.013   1.008  -0.790  0.00  0.00    +0.000 A 
ATOM     22  C11 UNL     1       7.684   0.560   0.493  0.00  0.00    +0.000 A 
ATOM     23  C12 UNL     1       6.344   0.456   0.877  0.00  0.00    +0.005 A 
ENDBRANCH  17  18
ENDBRANCH  15  17
ENDBRANCH   3  11
BRANCH   8  24
ATOM     24  C18 UNL     1      -6.197   1.300  -0.426  0.00  0.00    +0.041 A 
ATOM     25  C19 UNL     1      -6.613   1.553   0.867  0.00  0.00    +0.044 A 
ATOM     26  C20 UNL     1      -7.683   2.413   0.720  0.00  0.00    +0.134 A 
ATOM     27  N4  UNL     1      -7.890   2.661  -0.589  0.00  0.00    -0.182 NA
ATOM     28  N5  UNL     1      -6.984   1.984  -1.276  0.00  0.00    -0.281 N 
ATOM     29  H27 UNL     1      -6.910   1.996  -2.318  0.00  0.00    +0.189 HD
ENDBRANCH   8  24
TORSDOF 4
