REMARK  Name = /home/qwerty/github/datacon2025hack/step_04_hit_selection/docking/ligands/lig_212.pdb
REMARK  5 active torsions:
REMARK  status: ('A' for Active; 'I' for Inactive)
REMARK    1  A    between atoms: C2_2  and  C3_3
REMARK    2  A    between atoms: C2_2  and  C4_4
REMARK    3  A    between atoms: C4_4  and  N1_5
REMARK    4  A    between atoms: C5_6  and  C6_7
REMARK    5  A    between atoms: C8_9  and  C9_10
REMARK                            x       y       z     vdW  Elec       q    Type
REMARK                         _______ _______ _______ _____ _____    ______ ____
ROOT
ATOM      1  N1  UNL     1      -0.499  -0.275  -0.088  0.00  0.00    -0.319 N 
ATOM      2  C5  UNL     1       0.663  -0.986  -0.006  0.00  0.00    +0.144 A 
ATOM      3  N5  UNL     1       0.477  -2.291   0.297  0.00  0.00    -0.227 NA
ATOM      4  C13 UNL     1      -0.854  -2.392   0.429  0.00  0.00    +0.090 A 
ATOM      5  C14 UNL     1      -1.558  -3.555   0.711  0.00  0.00    +0.032 A 
ATOM      6  C15 UNL     1      -2.953  -3.486   0.768  0.00  0.00    +0.030 A 
ATOM      7  C16 UNL     1      -3.619  -2.263   0.558  0.00  0.00    +0.073 A 
ATOM      8  N6  UNL     1      -4.976  -2.228   0.636  0.00  0.00    -0.255 NA
ATOM      9  C17 UNL     1      -5.677  -1.079   0.467  0.00  0.00    +0.111 A 
ATOM     10  C18 UNL     1      -5.007   0.117   0.219  0.00  0.00    +0.020 A 
ATOM     11  C19 UNL     1      -3.614   0.126   0.131  0.00  0.00    +0.013 A 
ATOM     12  C20 UNL     1      -2.884  -1.070   0.278  0.00  0.00    +0.026 A 
ATOM     13  C21 UNL     1      -1.468  -1.183   0.204  0.00  0.00    +0.079 A 
ENDROOT
BRANCH   2  14
ATOM     14  C6  UNL     1       2.006  -0.455  -0.310  0.00  0.00    +0.048 A 
ATOM     15  C7  UNL     1       2.836  -1.088  -1.261  0.00  0.00    +0.034 A 
ATOM     16  C8  UNL     1       4.141  -0.591  -1.543  0.00  0.00    +0.015 A 
ATOM     17  C9  UNL     1       5.006  -1.307  -2.536  0.00  0.00    +0.063 C 
ATOM     18  N2  UNL     1       4.636   0.495  -0.865  0.00  0.00    -0.342 N 
ATOM     19  C10 UNL     1       3.848   1.102   0.052  0.00  0.00    +0.159 A 
ATOM     20  N3  UNL     1       4.174   2.117   0.861  0.00  0.00    -0.216 NA
ATOM     21  C11 UNL     1       3.057   2.256   1.629  0.00  0.00    +0.224 A 
ATOM     22  N4  UNL     1       2.054   1.374   1.360  0.00  0.00    -0.232 NA
ATOM     23  C12 UNL     1       2.545   0.646   0.348  0.00  0.00    +0.118 A 
ATOM     24  H12 UNL     1       5.606   0.845  -1.036  0.00  0.00    +0.167 HD
ENDBRANCH   2  14
BRANCH   1  25
ATOM     25  C4  UNL     1      -0.625   1.101  -0.597  0.00  0.00    +0.154 C 
BRANCH  25  27
ATOM     26  C1  UNL     1      -1.032   1.817   1.785  0.00  0.00    +0.009 C 
ATOM     27  C2  UNL     1      -0.817   2.139   0.496  0.00  0.00    -0.060 C 
ATOM     28  C3  UNL     1      -0.796   3.593   0.111  0.00  0.00    +0.040 C 
ENDBRANCH  25  27
ENDBRANCH   1  25
TORSDOF 3
