MODEL 1
REMARK VINA RESULT:    -8.507      0.000      0.000
REMARK INTER + INTRA:         -11.884
REMARK INTER:                 -10.745
REMARK INTRA:                  -1.139
REMARK UNBOUND:                -1.139
REMARK  Name = /home/qwerty/github/datacon2025hack/step_04_hit_selection/docking/ligands/lig_629.pdb
REMARK  7 active torsions:
REMARK  status: ('A' for Active; 'I' for Inactive)
REMARK    1  A    between atoms: C1_1  and  N1_2
REMARK    2  A    between atoms: N1_2  and  C2_3
REMARK    3  A    between atoms: N1_2  and  C3_4
REMARK    4  A    between atoms: C6_7  and  C7_8
REMARK    5  A    between atoms: C11_14  and  C12_15
REMARK    6  A    between atoms: C16_21  and  C17_22
REMARK    7  A    between atoms: C20_26  and  N7_27
REMARK                            x       y       z     vdW  Elec       q    Type
REMARK                         _______ _______ _______ _____ _____    ______ ____
ROOT
ATOM      1  C7  UNL     1      15.887  -0.646  23.473  0.00  0.00    +0.009 A 
ATOM      2  C8  UNL     1      15.422  -1.965  23.673  0.00  0.00    +0.120 A 
ATOM      3  N2  UNL     1      16.180  -2.878  24.357  0.00  0.00    -0.261 NA
ATOM      4  C9  UNL     1      17.408  -2.567  24.864  0.00  0.00    +0.137 A 
ATOM      5  C10 UNL     1      17.893  -1.279  24.666  0.00  0.00    +0.066 A 
ATOM      6  N3  UNL     1      19.075  -0.781  25.061  0.00  0.00    -0.352 N 
ATOM      7  C11 UNL     1      19.097   0.496  24.613  0.00  0.00    +0.068 A 
ATOM      8  C24 UNL     1      17.916   0.809  23.947  0.00  0.00    +0.038 A 
ATOM      9  C25 UNL     1      17.155  -0.344  23.992  0.00  0.00    +0.011 A 
ATOM     10  H11 UNL     1      19.795  -1.273  25.634  0.00  0.00    +0.166 HD
ENDROOT
BRANCH   7  11
ATOM     11  C12 UNL     1      20.197   1.448  24.845  0.00  0.00    +0.116 A 
ATOM     12  N4  UNL     1      20.859   2.078  23.843  0.00  0.00    -0.171 NA
ATOM     13  N5  UNL     1      21.775   2.874  24.382  0.00  0.00    -0.276 N 
ATOM     14  C13 UNL     1      21.713   2.751  25.717  0.00  0.00    +0.066 A 
ATOM     15  C14 UNL     1      22.510   3.371  26.672  0.00  0.00    +0.028 A 
ATOM     16  C15 UNL     1      22.288   3.045  28.022  0.00  0.00    +0.010 A 
ATOM     17  C16 UNL     1      21.293   2.098  28.389  0.00  0.00    -0.016 A 
ATOM     18  C22 UNL     1      20.509   1.486  27.380  0.00  0.00    +0.020 A 
ATOM     19  C23 UNL     1      20.735   1.858  26.055  0.00  0.00    +0.029 A 
ATOM     20  H12 UNL     1      22.432   3.474  23.838  0.00  0.00    +0.189 HD
BRANCH  17  21
ATOM     21  C17 UNL     1      21.083   1.743  29.816  0.00  0.00    +0.002 A 
ATOM     22  C18 UNL     1      20.221   0.694  30.180  0.00  0.00    +0.119 A 
ATOM     23  N6  UNL     1      20.034   0.380  31.489  0.00  0.00    -0.261 NA
ATOM     24  C19 UNL     1      20.664   1.056  32.485  0.00  0.00    +0.133 A 
ATOM     25  C20 UNL     1      21.533   2.109  32.179  0.00  0.00    +0.043 A 
ATOM     26  C21 UNL     1      21.739   2.450  30.838  0.00  0.00    +0.034 A 
BRANCH  25  27
ATOM     27  N7  UNL     1      22.202   2.823  33.222  0.00  0.00    -0.357 N 
ATOM     28  H17 UNL     1      23.170   3.190  33.082  0.00  0.00    +0.142 HD
ATOM     29  H18 UNL     1      21.736   2.990  34.141  0.00  0.00    +0.142 HD
ENDBRANCH  25  27
ENDBRANCH  17  21
ENDBRANCH   7  11
BRANCH   1  33
ATOM     30  C3  UNL     1      13.473   2.235  21.357  0.00  0.00    +0.029 A 
ATOM     31  C4  UNL     1      13.385   2.108  22.759  0.00  0.00    +0.024 A 
ATOM     32  C5  UNL     1      14.167   1.175  23.444  0.00  0.00    +0.010 A 
ATOM     33  C6  UNL     1      15.064   0.350  22.750  0.00  0.00    -0.016 A 
ATOM     34  C26 UNL     1      15.151   0.460  21.355  0.00  0.00    +0.010 A 
ATOM     35  C27 UNL     1      14.369   1.392  20.667  0.00  0.00    +0.024 A 
BRANCH  30  37
ATOM     36  C1  UNL     1      11.242   3.376  20.971  0.00  0.00    +0.129 C 
ATOM     37  N1  UNL     1      12.662   3.205  20.644  0.00  0.00    -0.336 N 
ATOM     38  C2  UNL     1      13.249   4.031  19.582  0.00  0.00    +0.129 C 
ENDBRANCH  30  37
ENDBRANCH   1  33
TORSDOF 5
ENDMDL
MODEL 2
REMARK VINA RESULT:    -8.294      5.298     12.273
REMARK INTER + INTRA:         -11.615
REMARK INTER:                 -10.486
REMARK INTRA:                  -1.128
REMARK UNBOUND:                -1.139
REMARK  Name = /home/qwerty/github/datacon2025hack/step_04_hit_selection/docking/ligands/lig_629.pdb
REMARK  7 active torsions:
REMARK  status: ('A' for Active; 'I' for Inactive)
REMARK    1  A    between atoms: C1_1  and  N1_2
REMARK    2  A    between atoms: N1_2  and  C2_3
REMARK    3  A    between atoms: N1_2  and  C3_4
REMARK    4  A    between atoms: C6_7  and  C7_8
REMARK    5  A    between atoms: C11_14  and  C12_15
REMARK    6  A    between atoms: C16_21  and  C17_22
REMARK    7  A    between atoms: C20_26  and  N7_27
REMARK                            x       y       z     vdW  Elec       q    Type
REMARK                         _______ _______ _______ _____ _____    ______ ____
ROOT
ATOM      1  C7  UNL     1      22.948   7.813  34.081  0.00  0.00    +0.009 A 
ATOM      2  C8  UNL     1      24.141   8.497  33.756  0.00  0.00    +0.120 A 
ATOM      3  N2  UNL     1      25.138   7.871  33.055  0.00  0.00    -0.261 NA
ATOM      4  C9  UNL     1      25.034   6.572  32.651  0.00  0.00    +0.137 A 
ATOM      5  C10 UNL     1      23.876   5.874  32.974  0.00  0.00    +0.066 A 
ATOM      6  N3  UNL     1      23.587   4.594  32.691  0.00  0.00    -0.352 N 
ATOM      7  C11 UNL     1      22.367   4.370  33.232  0.00  0.00    +0.068 A 
ATOM      8  C24 UNL     1      21.876   5.521  33.844  0.00  0.00    +0.038 A 
ATOM      9  C25 UNL     1      22.861   6.476  33.667  0.00  0.00    +0.011 A 
ATOM     10  H11 UNL     1      24.171   3.936  32.130  0.00  0.00    +0.166 HD
ENDROOT
BRANCH   7  11
ATOM     11  C12 UNL     1      21.628   3.100  33.140  0.00  0.00    +0.116 A 
ATOM     12  N4  UNL     1      21.228   2.392  34.226  0.00  0.00    -0.171 NA
ATOM     13  N5  UNL     1      20.580   1.312  33.806  0.00  0.00    -0.276 N 
ATOM     14  C13 UNL     1      20.569   1.317  32.464  0.00  0.00    +0.066 A 
ATOM     15  C14 UNL     1      20.032   0.363  31.608  0.00  0.00    +0.028 A 
ATOM     16  C15 UNL     1      20.188   0.562  30.224  0.00  0.00    +0.010 A 
ATOM     17  C16 UNL     1      20.889   1.694  29.726  0.00  0.00    -0.016 A 
ATOM     18  C22 UNL     1      21.425   2.637  30.636  0.00  0.00    +0.020 A 
ATOM     19  C23 UNL     1      21.223   2.424  32.000  0.00  0.00    +0.029 A 
ATOM     20  H12 UNL     1      20.168   0.587  34.432  0.00  0.00    +0.189 HD
BRANCH  17  21
ATOM     21  C17 UNL     1      21.069   1.882  28.263  0.00  0.00    +0.002 A 
ATOM     22  C18 UNL     1      20.233   1.227  27.342  0.00  0.00    +0.119 A 
ATOM     23  N6  UNL     1      20.410   1.405  26.006  0.00  0.00    -0.261 NA
ATOM     24  C19 UNL     1      21.385   2.211  25.513  0.00  0.00    +0.133 A 
ATOM     25  C20 UNL     1      22.245   2.888  26.385  0.00  0.00    +0.043 A 
ATOM     26  C21 UNL     1      22.083   2.718  27.765  0.00  0.00    +0.034 A 
BRANCH  25  27
ATOM     27  N7  UNL     1      23.273   3.741  25.873  0.00  0.00    -0.357 N 
ATOM     28  H17 UNL     1      23.159   4.779  25.885  0.00  0.00    +0.142 HD
ATOM     29  H18 UNL     1      24.153   3.341  25.480  0.00  0.00    +0.142 HD
ENDBRANCH  25  27
ENDBRANCH  17  21
ENDBRANCH   7  11
BRANCH   1  33
ATOM     30  C3  UNL     1      19.760   9.774  36.225  0.00  0.00    +0.029 A 
ATOM     31  C4  UNL     1      20.605   8.850  36.873  0.00  0.00    +0.024 A 
ATOM     32  C5  UNL     1      21.638   8.215  36.178  0.00  0.00    +0.010 A 
ATOM     33  C6  UNL     1      21.860   8.491  34.821  0.00  0.00    -0.016 A 
ATOM     34  C26 UNL     1      21.017   9.400  34.165  0.00  0.00    +0.010 A 
ATOM     35  C27 UNL     1      19.984  10.036  34.857  0.00  0.00    +0.024 A 
BRANCH  30  37
ATOM     36  C1  UNL     1      18.103   9.823  38.144  0.00  0.00    +0.129 C 
ATOM     37  N1  UNL     1      18.687  10.436  36.945  0.00  0.00    -0.336 N 
ATOM     38  C2  UNL     1      18.168  11.730  36.486  0.00  0.00    +0.129 C 
ENDBRANCH  30  37
ENDBRANCH   1  33
TORSDOF 5
ENDMDL
MODEL 3
REMARK VINA RESULT:    -8.168      2.969      8.308
REMARK INTER + INTRA:         -11.455
REMARK INTER:                 -10.248
REMARK INTRA:                  -1.207
REMARK UNBOUND:                -1.139
REMARK  Name = /home/qwerty/github/datacon2025hack/step_04_hit_selection/docking/ligands/lig_629.pdb
REMARK  7 active torsions:
REMARK  status: ('A' for Active; 'I' for Inactive)
REMARK    1  A    between atoms: C1_1  and  N1_2
REMARK    2  A    between atoms: N1_2  and  C2_3
REMARK    3  A    between atoms: N1_2  and  C3_4
REMARK    4  A    between atoms: C6_7  and  C7_8
REMARK    5  A    between atoms: C11_14  and  C12_15
REMARK    6  A    between atoms: C16_21  and  C17_22
REMARK    7  A    between atoms: C20_26  and  N7_27
REMARK                            x       y       z     vdW  Elec       q    Type
REMARK                         _______ _______ _______ _____ _____    ______ ____
ROOT
ATOM      1  C7  UNL     1      20.456   1.587  26.237  0.00  0.00    +0.009 A 
ATOM      2  C8  UNL     1      21.403   1.326  27.253  0.00  0.00    +0.120 A 
ATOM      3  N2  UNL     1      22.534   2.090  27.369  0.00  0.00    -0.261 NA
ATOM      4  C9  UNL     1      22.804   3.120  26.515  0.00  0.00    +0.137 A 
ATOM      5  C10 UNL     1      21.894   3.385  25.497  0.00  0.00    +0.066 A 
ATOM      6  N3  UNL     1      21.982   4.330  24.549  0.00  0.00    -0.352 N 
ATOM      7  C11 UNL     1      20.878   4.175  23.780  0.00  0.00    +0.068 A 
ATOM      8  C24 UNL     1      20.082   3.137  24.258  0.00  0.00    +0.038 A 
ATOM      9  C25 UNL     1      20.752   2.643  25.362  0.00  0.00    +0.011 A 
ATOM     10  H11 UNL     1      22.727   5.055  24.463  0.00  0.00    +0.166 HD
ENDROOT
BRANCH   7  11
ATOM     11  C12 UNL     1      20.532   5.023  22.627  0.00  0.00    +0.116 A 
ATOM     12  N4  UNL     1      21.286   6.076  22.226  0.00  0.00    -0.171 NA
ATOM     13  N5  UNL     1      20.714   6.618  21.157  0.00  0.00    -0.276 N 
ATOM     14  C13 UNL     1      19.597   5.928  20.877  0.00  0.00    +0.066 A 
ATOM     15  C14 UNL     1      18.673   6.167  19.866  0.00  0.00    +0.028 A 
ATOM     16  C15 UNL     1      17.544   5.332  19.800  0.00  0.00    +0.010 A 
ATOM     17  C16 UNL     1      17.351   4.291  20.748  0.00  0.00    -0.016 A 
ATOM     18  C22 UNL     1      18.316   4.088  21.765  0.00  0.00    +0.020 A 
ATOM     19  C23 UNL     1      19.439   4.915  21.780  0.00  0.00    +0.029 A 
ATOM     20  H12 UNL     1      21.081   7.449  20.645  0.00  0.00    +0.189 HD
BRANCH  17  21
ATOM     21  C17 UNL     1      16.142   3.429  20.683  0.00  0.00    +0.002 A 
ATOM     22  C18 UNL     1      14.973   3.772  21.384  0.00  0.00    +0.119 A 
ATOM     23  N6  UNL     1      13.875   2.973  21.319  0.00  0.00    -0.261 NA
ATOM     24  C19 UNL     1      13.861   1.830  20.586  0.00  0.00    +0.133 A 
ATOM     25  C20 UNL     1      14.998   1.442  19.869  0.00  0.00    +0.043 A 
ATOM     26  C21 UNL     1      16.141   2.248  19.922  0.00  0.00    +0.034 A 
BRANCH  25  27
ATOM     27  N7  UNL     1      14.991   0.241  19.093  0.00  0.00    -0.357 N 
ATOM     28  H17 UNL     1      15.877  -0.142  18.694  0.00  0.00    +0.142 HD
ATOM     29  H18 UNL     1      14.101  -0.273  18.911  0.00  0.00    +0.142 HD
ENDBRANCH  25  27
ENDBRANCH  17  21
ENDBRANCH   7  11
BRANCH   1  33
ATOM     30  C3  UNL     1      16.876  -0.796  25.906  0.00  0.00    +0.029 A 
ATOM     31  C4  UNL     1      16.966   0.246  26.852  0.00  0.00    +0.024 A 
ATOM     32  C5  UNL     1      18.126   1.018  26.959  0.00  0.00    +0.010 A 
ATOM     33  C6  UNL     1      19.223   0.777  26.120  0.00  0.00    -0.016 A 
ATOM     34  C26 UNL     1      19.148  -0.264  25.183  0.00  0.00    +0.010 A 
ATOM     35  C27 UNL     1      17.989  -1.038  25.075  0.00  0.00    +0.024 A 
BRANCH  30  37
ATOM     36  C1  UNL     1      15.579  -2.670  24.794  0.00  0.00    +0.129 C 
ATOM     37  N1  UNL     1      15.671  -1.598  25.793  0.00  0.00    -0.336 N 
ATOM     38  C2  UNL     1      14.525  -1.351  26.675  0.00  0.00    +0.129 C 
ENDBRANCH  30  37
ENDBRANCH   1  33
TORSDOF 5
ENDMDL
MODEL 4
REMARK VINA RESULT:    -7.943      8.858     13.132
REMARK INTER + INTRA:         -11.172
REMARK INTER:                  -9.995
REMARK INTRA:                  -1.177
REMARK UNBOUND:                -1.139
REMARK  Name = /home/qwerty/github/datacon2025hack/step_04_hit_selection/docking/ligands/lig_629.pdb
REMARK  7 active torsions:
REMARK  status: ('A' for Active; 'I' for Inactive)
REMARK    1  A    between atoms: C1_1  and  N1_2
REMARK    2  A    between atoms: N1_2  and  C2_3
REMARK    3  A    between atoms: N1_2  and  C3_4
REMARK    4  A    between atoms: C6_7  and  C7_8
REMARK    5  A    between atoms: C11_14  and  C12_15
REMARK    6  A    between atoms: C16_21  and  C17_22
REMARK    7  A    between atoms: C20_26  and  N7_27
REMARK                            x       y       z     vdW  Elec       q    Type
REMARK                         _______ _______ _______ _____ _____    ______ ____
ROOT
ATOM      1  C7  UNL     1       9.491   7.493  21.969  0.00  0.00    +0.009 A 
ATOM      2  C8  UNL     1       9.654   8.148  20.727  0.00  0.00    +0.120 A 
ATOM      3  N2  UNL     1       9.347   9.476  20.591  0.00  0.00    -0.261 NA
ATOM      4  C9  UNL     1       8.867  10.220  21.629  0.00  0.00    +0.137 A 
ATOM      5  C10 UNL     1       8.683   9.593  22.857  0.00  0.00    +0.066 A 
ATOM      6  N3  UNL     1       8.207  10.134  23.988  0.00  0.00    -0.352 N 
ATOM      7  C11 UNL     1       8.190   9.127  24.893  0.00  0.00    +0.068 A 
ATOM      8  C24 UNL     1       8.676   7.949  24.332  0.00  0.00    +0.038 A 
ATOM      9  C25 UNL     1       8.988   8.268  23.024  0.00  0.00    +0.011 A 
ATOM     10  H11 UNL     1       7.951  11.135  24.137  0.00  0.00    +0.166 HD
ENDROOT
BRANCH   7  11
ATOM     11  C12 UNL     1       7.769   9.267  26.297  0.00  0.00    +0.116 A 
ATOM     12  N4  UNL     1       6.747   8.562  26.841  0.00  0.00    -0.171 NA
ATOM     13  N5  UNL     1       6.633   8.906  28.118  0.00  0.00    -0.276 N 
ATOM     14  C13 UNL     1       7.566   9.831  28.394  0.00  0.00    +0.066 A 
ATOM     15  C14 UNL     1       7.786  10.493  29.596  0.00  0.00    +0.028 A 
ATOM     16  C15 UNL     1       8.800  11.467  29.631  0.00  0.00    +0.010 A 
ATOM     17  C16 UNL     1       9.558  11.772  28.467  0.00  0.00    -0.016 A 
ATOM     18  C22 UNL     1       9.294  11.075  27.263  0.00  0.00    +0.020 A 
ATOM     19  C23 UNL     1       8.303  10.094  27.274  0.00  0.00    +0.029 A 
ATOM     20  H12 UNL     1       5.921   8.519  28.775  0.00  0.00    +0.189 HD
BRANCH  17  21
ATOM     21  C17 UNL     1      10.611  12.820  28.509  0.00  0.00    +0.002 A 
ATOM     22  C18 UNL     1      10.843  13.564  29.678  0.00  0.00    +0.119 A 
ATOM     23  N6  UNL     1      11.806  14.522  29.703  0.00  0.00    -0.261 NA
ATOM     24  C19 UNL     1      12.574  14.795  28.616  0.00  0.00    +0.133 A 
ATOM     25  C20 UNL     1      12.386  14.084  27.426  0.00  0.00    +0.043 A 
ATOM     26  C21 UNL     1      11.398  13.094  27.377  0.00  0.00    +0.034 A 
BRANCH  25  27
ATOM     27  N7  UNL     1      13.192  14.363  26.279  0.00  0.00    -0.357 N 
ATOM     28  H17 UNL     1      13.531  15.332  26.087  0.00  0.00    +0.142 HD
ATOM     29  H18 UNL     1      13.456  13.603  25.613  0.00  0.00    +0.142 HD
ENDBRANCH  25  27
ENDBRANCH  17  21
ENDBRANCH   7  11
BRANCH   1  33
ATOM     30  C3  UNL     1      10.506   3.328  22.453  0.00  0.00    +0.029 A 
ATOM     31  C4  UNL     1       9.192   3.719  22.119  0.00  0.00    +0.024 A 
ATOM     32  C5  UNL     1       8.863   5.068  21.962  0.00  0.00    +0.010 A 
ATOM     33  C6  UNL     1       9.838   6.062  22.126  0.00  0.00    -0.016 A 
ATOM     34  C26 UNL     1      11.144   5.686  22.469  0.00  0.00    +0.010 A 
ATOM     35  C27 UNL     1      11.476   4.338  22.627  0.00  0.00    +0.024 A 
BRANCH  30  37
ATOM     36  C1  UNL     1      12.237   1.476  22.460  0.00  0.00    +0.129 C 
ATOM     37  N1  UNL     1      10.849   1.927  22.615  0.00  0.00    -0.336 N 
ATOM     38  C2  UNL     1       9.814   0.938  22.936  0.00  0.00    +0.129 C 
ENDBRANCH  30  37
ENDBRANCH   1  33
TORSDOF 5
ENDMDL
MODEL 5
REMARK VINA RESULT:    -7.813      7.944     11.602
REMARK INTER + INTRA:         -11.007
REMARK INTER:                  -9.811
REMARK INTRA:                  -1.197
REMARK UNBOUND:                -1.139
REMARK  Name = /home/qwerty/github/datacon2025hack/step_04_hit_selection/docking/ligands/lig_629.pdb
REMARK  7 active torsions:
REMARK  status: ('A' for Active; 'I' for Inactive)
REMARK    1  A    between atoms: C1_1  and  N1_2
REMARK    2  A    between atoms: N1_2  and  C2_3
REMARK    3  A    between atoms: N1_2  and  C3_4
REMARK    4  A    between atoms: C6_7  and  C7_8
REMARK    5  A    between atoms: C11_14  and  C12_15
REMARK    6  A    between atoms: C16_21  and  C17_22
REMARK    7  A    between atoms: C20_26  and  N7_27
REMARK                            x       y       z     vdW  Elec       q    Type
REMARK                         _______ _______ _______ _____ _____    ______ ____
ROOT
ATOM      1  C7  UNL     1      21.635   2.925  31.637  0.00  0.00    +0.009 A 
ATOM      2  C8  UNL     1      22.136   2.130  30.582  0.00  0.00    +0.120 A 
ATOM      3  N2  UNL     1      21.649   0.869  30.363  0.00  0.00    -0.261 NA
ATOM      4  C9  UNL     1      20.676   0.321  31.148  0.00  0.00    +0.137 A 
ATOM      5  C10 UNL     1      20.179   1.078  32.203  0.00  0.00    +0.066 A 
ATOM      6  N3  UNL     1      19.245   0.720  33.097  0.00  0.00    -0.352 N 
ATOM      7  C11 UNL     1      19.122   1.776  33.935  0.00  0.00    +0.068 A 
ATOM      8  C24 UNL     1      19.972   2.812  33.556  0.00  0.00    +0.038 A 
ATOM      9  C25 UNL     1      20.642   2.344  32.440  0.00  0.00    +0.011 A 
ATOM     10  H11 UNL     1      18.702  -0.171  33.103  0.00  0.00    +0.166 HD
ENDROOT
BRANCH   7  11
ATOM     11  C12 UNL     1      18.179   1.847  35.064  0.00  0.00    +0.116 A 
ATOM     12  N4  UNL     1      17.393   0.809  35.442  0.00  0.00    -0.171 NA
ATOM     13  N5  UNL     1      16.675   1.189  36.492  0.00  0.00    -0.276 N 
ATOM     14  C13 UNL     1      16.986   2.462  36.783  0.00  0.00    +0.066 A 
ATOM     15  C14 UNL     1      16.451   3.268  37.781  0.00  0.00    +0.028 A 
ATOM     16  C15 UNL     1      16.903   4.597  37.861  0.00  0.00    +0.010 A 
ATOM     17  C16 UNL     1      17.862   5.098  36.939  0.00  0.00    -0.016 A 
ATOM     18  C22 UNL     1      18.375   4.241  35.935  0.00  0.00    +0.020 A 
ATOM     19  C23 UNL     1      17.928   2.920  35.905  0.00  0.00    +0.029 A 
ATOM     20  H12 UNL     1      15.980   0.586  36.984  0.00  0.00    +0.189 HD
BRANCH  17  21
ATOM     21  C17 UNL     1      18.316   6.511  37.018  0.00  0.00    +0.002 A 
ATOM     22  C18 UNL     1      17.447   7.567  36.694  0.00  0.00    +0.119 A 
ATOM     23  N6  UNL     1      17.874   8.855  36.766  0.00  0.00    -0.261 NA
ATOM     24  C19 UNL     1      19.138   9.170  37.152  0.00  0.00    +0.133 A 
ATOM     25  C20 UNL     1      20.044   8.158  37.487  0.00  0.00    +0.043 A 
ATOM     26  C21 UNL     1      19.626   6.824  37.417  0.00  0.00    +0.034 A 
BRANCH  25  27
ATOM     27  N7  UNL     1      21.375   8.482  37.896  0.00  0.00    -0.357 N 
ATOM     28  H17 UNL     1      21.980   9.097  37.307  0.00  0.00    +0.142 HD
ATOM     29  H18 UNL     1      21.765   8.110  38.790  0.00  0.00    +0.142 HD
ENDBRANCH  25  27
ENDBRANCH  17  21
ENDBRANCH   7  11
BRANCH   1  33
ATOM     30  C3  UNL     1      23.145   6.911  32.295  0.00  0.00    +0.029 A 
ATOM     31  C4  UNL     1      22.214   6.651  31.268  0.00  0.00    +0.024 A 
ATOM     32  C5  UNL     1      21.724   5.359  31.055  0.00  0.00    +0.010 A 
ATOM     33  C6  UNL     1      22.145   4.295  31.866  0.00  0.00    -0.016 A 
ATOM     34  C26 UNL     1      23.079   4.541  32.882  0.00  0.00    +0.010 A 
ATOM     35  C27 UNL     1      23.571   5.832  33.097  0.00  0.00    +0.024 A 
BRANCH  30  37
ATOM     36  C1  UNL     1      25.093   8.489  32.674  0.00  0.00    +0.129 C 
ATOM     37  N1  UNL     1      23.654   8.253  32.518  0.00  0.00    -0.336 N 
ATOM     38  C2  UNL     1      22.735   9.396  32.591  0.00  0.00    +0.129 C 
ENDBRANCH  30  37
ENDBRANCH   1  33
TORSDOF 5
ENDMDL
MODEL 6
REMARK VINA RESULT:    -7.807      9.502     13.646
REMARK INTER + INTRA:         -10.999
REMARK INTER:                  -9.786
REMARK INTRA:                  -1.214
REMARK UNBOUND:                -1.139
REMARK  Name = /home/qwerty/github/datacon2025hack/step_04_hit_selection/docking/ligands/lig_629.pdb
REMARK  7 active torsions:
REMARK  status: ('A' for Active; 'I' for Inactive)
REMARK    1  A    between atoms: C1_1  and  N1_2
REMARK    2  A    between atoms: N1_2  and  C2_3
REMARK    3  A    between atoms: N1_2  and  C3_4
REMARK    4  A    between atoms: C6_7  and  C7_8
REMARK    5  A    between atoms: C11_14  and  C12_15
REMARK    6  A    between atoms: C16_21  and  C17_22
REMARK    7  A    between atoms: C20_26  and  N7_27
REMARK                            x       y       z     vdW  Elec       q    Type
REMARK                         _______ _______ _______ _____ _____    ______ ____
ROOT
ATOM      1  C7  UNL     1       9.880   9.600  21.819  0.00  0.00    +0.009 A 
ATOM      2  C8  UNL     1       9.482  10.271  20.641  0.00  0.00    +0.120 A 
ATOM      3  N2  UNL     1       8.360  11.058  20.630  0.00  0.00    -0.261 NA
ATOM      4  C9  UNL     1       7.577  11.221  21.736  0.00  0.00    +0.137 A 
ATOM      5  C10 UNL     1       7.941  10.557  22.902  0.00  0.00    +0.066 A 
ATOM      6  N3  UNL     1       7.302  10.568  24.082  0.00  0.00    -0.352 N 
ATOM      7  C11 UNL     1       8.022   9.754  24.890  0.00  0.00    +0.068 A 
ATOM      8  C24 UNL     1       9.130   9.243  24.221  0.00  0.00    +0.038 A 
ATOM      9  C25 UNL     1       9.061   9.771  22.945  0.00  0.00    +0.011 A 
ATOM     10  H11 UNL     1       6.456  11.128  24.324  0.00  0.00    +0.166 HD
ENDROOT
BRANCH   7  11
ATOM     11  C12 UNL     1       7.711   9.488  26.305  0.00  0.00    +0.116 A 
ATOM     12  N4  UNL     1       6.818   8.549  26.706  0.00  0.00    -0.171 NA
ATOM     13  N5  UNL     1       6.779   8.549  28.033  0.00  0.00    -0.276 N 
ATOM     14  C13 UNL     1       7.630   9.484  28.484  0.00  0.00    +0.066 A 
ATOM     15  C14 UNL     1       7.881   9.848  29.802  0.00  0.00    +0.028 A 
ATOM     16  C15 UNL     1       8.786  10.901  30.029  0.00  0.00    +0.010 A 
ATOM     17  C16 UNL     1       9.406  11.576  28.942  0.00  0.00    -0.016 A 
ATOM     18  C22 UNL     1       9.115  11.173  27.616  0.00  0.00    +0.020 A 
ATOM     19  C23 UNL     1       8.237  10.105  27.430  0.00  0.00    +0.029 A 
ATOM     20  H12 UNL     1       6.170   7.926  28.607  0.00  0.00    +0.189 HD
BRANCH  17  21
ATOM     21  C17 UNL     1      10.343  12.702  29.192  0.00  0.00    +0.002 A 
ATOM     22  C18 UNL     1      10.860  12.938  30.477  0.00  0.00    +0.119 A 
ATOM     23  N6  UNL     1      11.713  13.974  30.694  0.00  0.00    -0.261 NA
ATOM     24  C19 UNL     1      12.097  14.809  29.693  0.00  0.00    +0.133 A 
ATOM     25  C20 UNL     1      11.613  14.618  28.395  0.00  0.00    +0.043 A 
ATOM     26  C21 UNL     1      10.731  13.559  28.148  0.00  0.00    +0.034 A 
BRANCH  25  27
ATOM     27  N7  UNL     1      12.014  15.491  27.335  0.00  0.00    -0.357 N 
ATOM     28  H17 UNL     1      11.713  15.310  26.351  0.00  0.00    +0.142 HD
ATOM     29  H18 UNL     1      12.614  16.323  27.527  0.00  0.00    +0.142 HD
ENDBRANCH  25  27
ENDBRANCH  17  21
ENDBRANCH   7  11
BRANCH   1  33
ATOM     30  C3  UNL     1      13.437   7.161  21.911  0.00  0.00    +0.029 A 
ATOM     31  C4  UNL     1      12.251   6.688  21.312  0.00  0.00    +0.024 A 
ATOM     32  C5  UNL     1      11.099   7.478  21.282  0.00  0.00    +0.010 A 
ATOM     33  C6  UNL     1      11.102   8.764  21.841  0.00  0.00    -0.016 A 
ATOM     34  C26 UNL     1      12.273   9.239  22.449  0.00  0.00    +0.010 A 
ATOM     35  C27 UNL     1      13.426   8.451  22.481  0.00  0.00    +0.024 A 
BRANCH  30  37
ATOM     36  C1  UNL     1      14.840   5.281  20.949  0.00  0.00    +0.129 C 
ATOM     37  N1  UNL     1      14.636   6.342  21.942  0.00  0.00    -0.336 N 
ATOM     38  C2  UNL     1      15.663   6.562  22.967  0.00  0.00    +0.129 C 
ENDBRANCH  30  37
ENDBRANCH   1  33
TORSDOF 5
ENDMDL
MODEL 7
REMARK VINA RESULT:    -7.789     10.070     13.907
REMARK INTER + INTRA:         -10.976
REMARK INTER:                  -9.779
REMARK INTRA:                  -1.197
REMARK UNBOUND:                -1.139
REMARK  Name = /home/qwerty/github/datacon2025hack/step_04_hit_selection/docking/ligands/lig_629.pdb
REMARK  7 active torsions:
REMARK  status: ('A' for Active; 'I' for Inactive)
REMARK    1  A    between atoms: C1_1  and  N1_2
REMARK    2  A    between atoms: N1_2  and  C2_3
REMARK    3  A    between atoms: N1_2  and  C3_4
REMARK    4  A    between atoms: C6_7  and  C7_8
REMARK    5  A    between atoms: C11_14  and  C12_15
REMARK    6  A    between atoms: C16_21  and  C17_22
REMARK    7  A    between atoms: C20_26  and  N7_27
REMARK                            x       y       z     vdW  Elec       q    Type
REMARK                         _______ _______ _______ _____ _____    ______ ____
ROOT
ATOM      1  C7  UNL     1       8.245  10.458  26.871  0.00  0.00    +0.009 A 
ATOM      2  C8  UNL     1       8.341  11.761  27.409  0.00  0.00    +0.120 A 
ATOM      3  N2  UNL     1       8.093  11.991  28.736  0.00  0.00    -0.261 NA
ATOM      4  C9  UNL     1       7.736  10.989  29.591  0.00  0.00    +0.137 A 
ATOM      5  C10 UNL     1       7.620   9.700  29.081  0.00  0.00    +0.066 A 
ATOM      6  N3  UNL     1       7.264   8.589  29.743  0.00  0.00    -0.352 N 
ATOM      7  C11 UNL     1       7.269   7.600  28.818  0.00  0.00    +0.068 A 
ATOM      8  C24 UNL     1       7.647   8.089  27.570  0.00  0.00    +0.038 A 
ATOM      9  C25 UNL     1       7.869   9.441  27.761  0.00  0.00    +0.011 A 
ATOM     10  H11 UNL     1       7.073   8.510  30.765  0.00  0.00    +0.166 HD
ENDROOT
BRANCH   7  11
ATOM     11  C12 UNL     1       6.970   6.186  29.099  0.00  0.00    +0.116 A 
ATOM     12  N4  UNL     1       6.458   5.754  30.278  0.00  0.00    -0.171 NA
ATOM     13  N5  UNL     1       6.292   4.439  30.207  0.00  0.00    -0.276 N 
ATOM     14  C13 UNL     1       6.702   4.024  28.998  0.00  0.00    +0.066 A 
ATOM     15  C14 UNL     1       6.740   2.724  28.506  0.00  0.00    +0.028 A 
ATOM     16  C15 UNL     1       7.263   2.527  27.216  0.00  0.00    +0.010 A 
ATOM     17  C16 UNL     1       7.750   3.623  26.452  0.00  0.00    -0.016 A 
ATOM     18  C22 UNL     1       7.697   4.929  26.997  0.00  0.00    +0.020 A 
ATOM     19  C23 UNL     1       7.143   5.091  28.267  0.00  0.00    +0.029 A 
ATOM     20  H12 UNL     1       5.917   3.846  30.979  0.00  0.00    +0.189 HD
BRANCH  17  21
ATOM     21  C17 UNL     1       8.322   3.401  25.099  0.00  0.00    +0.002 A 
ATOM     22  C18 UNL     1       9.536   2.712  24.932  0.00  0.00    +0.119 A 
ATOM     23  N6  UNL     1      10.050   2.518  23.689  0.00  0.00    -0.261 NA
ATOM     24  C19 UNL     1       9.423   2.974  22.574  0.00  0.00    +0.133 A 
ATOM     25  C20 UNL     1       8.212   3.666  22.682  0.00  0.00    +0.043 A 
ATOM     26  C21 UNL     1       7.664   3.878  23.953  0.00  0.00    +0.034 A 
BRANCH  25  27
ATOM     27  N7  UNL     1       7.543   4.146  21.513  0.00  0.00    -0.357 N 
ATOM     28  H17 UNL     1       8.058   4.702  20.794  0.00  0.00    +0.142 HD
ATOM     29  H18 UNL     1       6.530   3.949  21.358  0.00  0.00    +0.142 HD
ENDBRANCH  25  27
ENDBRANCH  17  21
ENDBRANCH   7  11
BRANCH   1  33
ATOM     30  C3  UNL     1       9.070   9.737  22.699  0.00  0.00    +0.029 A 
ATOM     31  C4  UNL     1      10.119   9.852  23.635  0.00  0.00    +0.024 A 
ATOM     32  C5  UNL     1       9.852  10.085  24.986  0.00  0.00    +0.010 A 
ATOM     33  C6  UNL     1       8.531  10.202  25.441  0.00  0.00    -0.016 A 
ATOM     34  C26 UNL     1       7.481  10.100  24.518  0.00  0.00    +0.010 A 
ATOM     35  C27 UNL     1       7.745   9.867  23.166  0.00  0.00    +0.024 A 
BRANCH  30  37
ATOM     36  C1  UNL     1       9.533  10.613  20.365  0.00  0.00    +0.129 C 
ATOM     37  N1  UNL     1       9.346   9.493  21.295  0.00  0.00    -0.336 N 
ATOM     38  C2  UNL     1       9.443   8.121  20.781  0.00  0.00    +0.129 C 
ENDBRANCH  30  37
ENDBRANCH   1  33
TORSDOF 5
ENDMDL
MODEL 8
REMARK VINA RESULT:    -7.677     12.845     14.870
REMARK INTER + INTRA:         -10.836
REMARK INTER:                  -9.693
REMARK INTRA:                  -1.142
REMARK UNBOUND:                -1.139
REMARK  Name = /home/qwerty/github/datacon2025hack/step_04_hit_selection/docking/ligands/lig_629.pdb
REMARK  7 active torsions:
REMARK  status: ('A' for Active; 'I' for Inactive)
REMARK    1  A    between atoms: C1_1  and  N1_2
REMARK    2  A    between atoms: N1_2  and  C2_3
REMARK    3  A    between atoms: N1_2  and  C3_4
REMARK    4  A    between atoms: C6_7  and  C7_8
REMARK    5  A    between atoms: C11_14  and  C12_15
REMARK    6  A    between atoms: C16_21  and  C17_22
REMARK    7  A    between atoms: C20_26  and  N7_27
REMARK                            x       y       z     vdW  Elec       q    Type
REMARK                         _______ _______ _______ _____ _____    ______ ____
ROOT
ATOM      1  C7  UNL     1      10.553  12.602  28.724  0.00  0.00    +0.009 A 
ATOM      2  C8  UNL     1      10.830  13.205  27.476  0.00  0.00    +0.120 A 
ATOM      3  N2  UNL     1      11.572  14.354  27.404  0.00  0.00    -0.261 NA
ATOM      4  C9  UNL     1      12.065  14.971  28.517  0.00  0.00    +0.137 A 
ATOM      5  C10 UNL     1      11.792  14.404  29.757  0.00  0.00    +0.066 A 
ATOM      6  N3  UNL     1      12.162  14.860  30.963  0.00  0.00    -0.352 N 
ATOM      7  C11 UNL     1      11.638  13.988  31.857  0.00  0.00    +0.068 A 
ATOM      8  C24 UNL     1      10.948  12.967  31.208  0.00  0.00    +0.038 A 
ATOM      9  C25 UNL     1      11.059  13.252  29.859  0.00  0.00    +0.011 A 
ATOM     10  H11 UNL     1      12.767  15.688  31.154  0.00  0.00    +0.166 HD
ENDROOT
BRANCH   7  11
ATOM     11  C12 UNL     1      11.818  14.071  33.316  0.00  0.00    +0.116 A 
ATOM     12  N4  UNL     1      10.808  14.355  34.174  0.00  0.00    -0.171 NA
ATOM     13  N5  UNL     1      11.292  14.341  35.411  0.00  0.00    -0.276 N 
ATOM     14  C13 UNL     1      12.603  14.059  35.350  0.00  0.00    +0.066 A 
ATOM     15  C14 UNL     1      13.511  13.977  36.400  0.00  0.00    +0.028 A 
ATOM     16  C15 UNL     1      14.856  13.716  36.084  0.00  0.00    +0.010 A 
ATOM     17  C16 UNL     1      15.270  13.560  34.733  0.00  0.00    -0.016 A 
ATOM     18  C22 UNL     1      14.311  13.657  33.696  0.00  0.00    +0.020 A 
ATOM     19  C23 UNL     1      12.980  13.886  34.049  0.00  0.00    +0.029 A 
ATOM     20  H12 UNL     1      10.732  14.533  36.269  0.00  0.00    +0.189 HD
BRANCH  17  21
ATOM     21  C17 UNL     1      16.698  13.307  34.408  0.00  0.00    +0.002 A 
ATOM     22  C18 UNL     1      17.134  13.240  33.074  0.00  0.00    +0.119 A 
ATOM     23  N6  UNL     1      18.442  13.005  32.790  0.00  0.00    -0.261 NA
ATOM     24  C19 UNL     1      19.368  12.830  33.767  0.00  0.00    +0.133 A 
ATOM     25  C20 UNL     1      18.989  12.887  35.113  0.00  0.00    +0.043 A 
ATOM     26  C21 UNL     1      17.646  13.126  35.429  0.00  0.00    +0.034 A 
BRANCH  25  27
ATOM     27  N7  UNL     1      19.958  12.706  36.148  0.00  0.00    -0.357 N 
ATOM     28  H17 UNL     1      20.372  11.765  36.334  0.00  0.00    +0.142 HD
ATOM     29  H18 UNL     1      20.268  13.511  36.736  0.00  0.00    +0.142 HD
ENDBRANCH  25  27
ENDBRANCH  17  21
ENDBRANCH   7  11
BRANCH   1  33
ATOM     30  C3  UNL     1       8.251   8.961  28.941  0.00  0.00    +0.029 A 
ATOM     31  C4  UNL     1       9.611   8.935  28.571  0.00  0.00    +0.024 A 
ATOM     32  C5  UNL     1      10.357  10.115  28.501  0.00  0.00    +0.010 A 
ATOM     33  C6  UNL     1       9.768  11.350  28.806  0.00  0.00    -0.016 A 
ATOM     34  C26 UNL     1       8.412  11.388  29.164  0.00  0.00    +0.010 A 
ATOM     35  C27 UNL     1       7.664  10.210  29.235  0.00  0.00    +0.024 A 
BRANCH  30  37
ATOM     36  C1  UNL     1       7.203   6.950  27.807  0.00  0.00    +0.129 C 
ATOM     37  N1  UNL     1       7.475   7.736  29.016  0.00  0.00    -0.336 N 
ATOM     38  C2  UNL     1       6.949   7.264  30.303  0.00  0.00    +0.129 C 
ENDBRANCH  30  37
ENDBRANCH   1  33
TORSDOF 5
ENDMDL
MODEL 9
REMARK VINA RESULT:    -7.656     12.167     13.903
REMARK INTER + INTRA:         -10.808
REMARK INTER:                  -9.850
REMARK INTRA:                  -0.958
REMARK UNBOUND:                -1.139
REMARK  Name = /home/qwerty/github/datacon2025hack/step_04_hit_selection/docking/ligands/lig_629.pdb
REMARK  7 active torsions:
REMARK  status: ('A' for Active; 'I' for Inactive)
REMARK    1  A    between atoms: C1_1  and  N1_2
REMARK    2  A    between atoms: N1_2  and  C2_3
REMARK    3  A    between atoms: N1_2  and  C3_4
REMARK    4  A    between atoms: C6_7  and  C7_8
REMARK    5  A    between atoms: C11_14  and  C12_15
REMARK    6  A    between atoms: C16_21  and  C17_22
REMARK    7  A    between atoms: C20_26  and  N7_27
REMARK                            x       y       z     vdW  Elec       q    Type
REMARK                         _______ _______ _______ _____ _____    ______ ____
ROOT
ATOM      1  C7  UNL     1       8.117   9.678  26.654  0.00  0.00    +0.009 A 
ATOM      2  C8  UNL     1       7.144   8.781  27.149  0.00  0.00    +0.120 A 
ATOM      3  N2  UNL     1       6.764   8.817  28.464  0.00  0.00    -0.261 NA
ATOM      4  C9  UNL     1       7.305   9.701  29.352  0.00  0.00    +0.137 A 
ATOM      5  C10 UNL     1       8.276  10.584  28.891  0.00  0.00    +0.066 A 
ATOM      6  N3  UNL     1       8.942  11.509  29.599  0.00  0.00    -0.352 N 
ATOM      7  C11 UNL     1       9.793  12.091  28.722  0.00  0.00    +0.068 A 
ATOM      8  C24 UNL     1       9.650  11.541  27.451  0.00  0.00    +0.038 A 
ATOM      9  C25 UNL     1       8.670  10.575  27.580  0.00  0.00    +0.011 A 
ATOM     10  H11 UNL     1       8.790  11.749  30.602  0.00  0.00    +0.166 HD
ENDROOT
BRANCH   7  11
ATOM     11  C12 UNL     1      10.709  13.197  29.050  0.00  0.00    +0.116 A 
ATOM     12  N4  UNL     1      11.172  14.078  28.129  0.00  0.00    -0.171 NA
ATOM     13  N5  UNL     1      11.958  14.953  28.745  0.00  0.00    -0.276 N 
ATOM     14  C13 UNL     1      12.011  14.634  30.048  0.00  0.00    +0.066 A 
ATOM     15  C14 UNL     1      12.741  15.258  31.053  0.00  0.00    +0.028 A 
ATOM     16  C15 UNL     1      12.677  14.709  32.346  0.00  0.00    +0.010 A 
ATOM     17  C16 UNL     1      11.903  13.545  32.605  0.00  0.00    -0.016 A 
ATOM     18  C22 UNL     1      11.180  12.940  31.549  0.00  0.00    +0.020 A 
ATOM     19  C23 UNL     1      11.242  13.530  30.286  0.00  0.00    +0.029 A 
ATOM     20  H12 UNL     1      12.453  15.740  28.272  0.00  0.00    +0.189 HD
BRANCH  17  21
ATOM     21  C17 UNL     1      11.861  12.959  33.970  0.00  0.00    +0.002 A 
ATOM     22  C18 UNL     1      12.250  13.712  35.091  0.00  0.00    +0.119 A 
ATOM     23  N6  UNL     1      12.211  13.164  36.334  0.00  0.00    -0.261 NA
ATOM     24  C19 UNL     1      11.798  11.887  36.542  0.00  0.00    +0.133 A 
ATOM     25  C20 UNL     1      11.399  11.093  35.462  0.00  0.00    +0.043 A 
ATOM     26  C21 UNL     1      11.433  11.636  34.172  0.00  0.00    +0.034 A 
BRANCH  25  27
ATOM     27  N7  UNL     1      10.960   9.748  35.672  0.00  0.00    -0.357 N 
ATOM     28  H17 UNL     1      11.545   9.074  36.215  0.00  0.00    +0.142 HD
ATOM     29  H18 UNL     1      10.048   9.417  35.288  0.00  0.00    +0.142 HD
ENDBRANCH  25  27
ENDBRANCH  17  21
ENDBRANCH   7  11
BRANCH   1  33
ATOM     30  C3  UNL     1       9.283   9.585  22.502  0.00  0.00    +0.029 A 
ATOM     31  C4  UNL     1       8.029  10.102  22.890  0.00  0.00    +0.024 A 
ATOM     32  C5  UNL     1       7.652  10.132  24.235  0.00  0.00    +0.010 A 
ATOM     33  C6  UNL     1       8.518   9.655  25.229  0.00  0.00    -0.016 A 
ATOM     34  C26 UNL     1       9.762   9.129  24.853  0.00  0.00    +0.010 A 
ATOM     35  C27 UNL     1      10.142   9.097  23.508  0.00  0.00    +0.024 A 
BRANCH  30  37
ATOM     36  C1  UNL     1       9.502  10.736  20.253  0.00  0.00    +0.129 C 
ATOM     37  N1  UNL     1       9.677   9.554  21.105  0.00  0.00    -0.336 N 
ATOM     38  C2  UNL     1      10.257   8.339  20.521  0.00  0.00    +0.129 C 
ENDBRANCH  30  37
ENDBRANCH   1  33
TORSDOF 5
ENDMDL
