REMARK  Name = /home/qwerty/github/datacon2025hack/step_04_hit_selection/docking/ligands/lig_106.pdb
REMARK  8 active torsions:
REMARK  status: ('A' for Active; 'I' for Inactive)
REMARK    1  A    between atoms: C1_1  and  C2_2
REMARK    2  A    between atoms: C2_2  and  C3_3
REMARK    3  A    between atoms: C2_2  and  N1_4
REMARK    4  A    between atoms: C6_8  and  C7_9
REMARK    5  A    between atoms: C11_15  and  C12_16
REMARK    6  A    between atoms: C12_16  and  N4_17
REMARK    7  A    between atoms: N4_17  and  C13_18
REMARK    8  A    between atoms: C14_19  and  C15_21
REMARK                            x       y       z     vdW  Elec       q    Type
REMARK                         _______ _______ _______ _____ _____    ______ ____
ROOT
ATOM      1  C7  UNL     1      -1.750  -0.178  -0.189  0.00  0.00    +0.265 C 
ATOM      2  O1  UNL     1      -1.778  -1.072   0.699  0.00  0.00    -0.268 OA
ATOM      3  N3  UNL     1      -0.694  -0.181  -1.167  0.00  0.00    -0.292 N 
ATOM      4  C8  UNL     1      -0.868   0.332  -2.518  0.00  0.00    +0.108 C 
ATOM      5  C9  UNL     1       0.174  -0.379  -3.366  0.00  0.00    +0.021 C 
ATOM      6  C10 UNL     1       1.229  -0.875  -2.384  0.00  0.00    +0.025 C 
ATOM      7  C11 UNL     1       0.511  -0.992  -1.034  0.00  0.00    +0.094 C 
ENDROOT
BRANCH   1  12
ATOM      8  N1  UNL     1      -4.089   0.714   0.148  0.00  0.00    -0.257 N 
ATOM      9  N2  UNL     1      -4.693   1.894   0.119  0.00  0.00    -0.179 NA
ATOM     10  C4  UNL     1      -3.787   2.816  -0.257  0.00  0.00    +0.135 A 
ATOM     11  C5  UNL     1      -2.565   2.209  -0.462  0.00  0.00    +0.054 A 
ATOM     12  C6  UNL     1      -2.788   0.874  -0.191  0.00  0.00    +0.124 A 
BRANCH   8  14
ATOM     13  C1  UNL     1      -4.861  -0.612   2.065  0.00  0.00    +0.032 C 
ATOM     14  C2  UNL     1      -4.767  -0.529   0.540  0.00  0.00    +0.102 C 
ATOM     15  C3  UNL     1      -6.159  -0.609  -0.097  0.00  0.00    +0.032 C 
ENDBRANCH   8  14
ENDBRANCH   1  12
BRANCH   7  16
ATOM     16  C12 UNL     1       1.382  -0.491   0.135  0.00  0.00    +0.130 C 
BRANCH  16  17
ATOM     17  N4  UNL     1       2.603  -1.302   0.269  0.00  0.00    -0.303 N 
ATOM     18  C13 UNL     1       2.495  -2.677   0.763  0.00  0.00    +0.132 C 
ATOM     19  C14 UNL     1       3.895  -0.820  -0.160  0.00  0.00    +0.218 C 
ATOM     20  O2  UNL     1       4.762  -1.650  -0.551  0.00  0.00    -0.275 OA
BRANCH  19  21
ATOM     21  C15 UNL     1       4.218   0.659  -0.191  0.00  0.00    +0.075 C 
ATOM     22  C16 UNL     1       3.999   1.358   1.152  0.00  0.00    +0.013 C 
ATOM     23  C17 UNL     1       5.477   1.711   1.217  0.00  0.00    +0.001 C 
ATOM     24  C18 UNL     1       5.709   1.002  -0.109  0.00  0.00    +0.013 C 
ENDBRANCH  19  21
ENDBRANCH  16  17
ENDBRANCH   7  16
TORSDOF 5
