MODEL 1
REMARK VINA RESULT:    -6.031      0.000      0.000
REMARK INTER + INTRA:          -8.045
REMARK INTER:                  -7.442
REMARK INTRA:                  -0.603
REMARK UNBOUND:                -0.603
REMARK  Name = /home/qwerty/github/datacon2025hack/step_04_hit_selection/docking/ligands/lig_241.pdb
REMARK  5 active torsions:
REMARK  status: ('A' for Active; 'I' for Inactive)
REMARK    1  A    between atoms: C1_1  and  C2_2
REMARK    2  A    between atoms: C2_2  and  N1_3
REMARK    3  A    between atoms: C2_2  and  C13_19
REMARK    4  A    between atoms: C3_4  and  C4_6
REMARK    5  A    between atoms: N2_8  and  C5_9
REMARK                            x       y       z     vdW  Elec       q    Type
REMARK                         _______ _______ _______ _____ _____    ______ ____
ROOT
ATOM      1  C4  UNL     1      19.463   0.581  31.972  0.00  0.00    +0.299 C 
ATOM      2  O2  UNL     1      19.148  -0.597  32.291  0.00  0.00    -0.265 OA
ATOM      3  N2  UNL     1      18.622   1.681  32.357  0.00  0.00    -0.302 N 
ATOM      4  H6  UNL     1      18.856   2.638  32.009  0.00  0.00    +0.150 HD
ENDROOT
BRANCH   3   5
ATOM      5  C5  UNL     1      17.334   1.491  33.034  0.00  0.00    +0.102 C 
ATOM      6  C6  UNL     1      16.342   2.601  32.620  0.00  0.00    +0.120 C 
ATOM      7  C7  UNL     1      15.869   3.141  33.911  0.00  0.00    +0.218 C 
ATOM      8  O3  UNL     1      14.960   4.005  34.020  0.00  0.00    -0.276 OA
ATOM      9  N3  UNL     1      16.534   2.578  35.022  0.00  0.00    -0.297 N 
ATOM     10  C8  UNL     1      16.122   2.733  36.417  0.00  0.00    +0.108 C 
ATOM     11  C9  UNL     1      17.019   1.886  37.328  0.00  0.00    +0.019 C 
ATOM     12  C10 UNL     1      17.134   0.424  36.841  0.00  0.00    +0.003 C 
ATOM     13  C11 UNL     1      17.217   0.260  35.303  0.00  0.00    +0.024 C 
ATOM     14  C12 UNL     1      17.501   1.588  34.579  0.00  0.00    +0.097 C 
ENDBRANCH   3   5
BRANCH   1  16
ATOM     15  N1  UNL     1      21.034  -0.006  30.076  0.00  0.00    -0.301 N 
ATOM     16  C3  UNL     1      20.702   0.820  31.204  0.00  0.00    +0.299 C 
ATOM     17  O1  UNL     1      21.469   1.763  31.542  0.00  0.00    -0.265 OA
ATOM     18  H5  UNL     1      20.370  -0.765  29.801  0.00  0.00    +0.150 HD
BRANCH  15  20
ATOM     19  C1  UNL     1      22.842  -1.186  28.887  0.00  0.00    +0.033 C 
ATOM     20  C2  UNL     1      22.275   0.174  29.314  0.00  0.00    +0.102 C 
BRANCH  20  21
ATOM     21  C13 UNL     1      22.038   1.063  28.107  0.00  0.00    -0.009 A 
ATOM     22  C14 UNL     1      22.824   2.210  27.902  0.00  0.00    +0.008 A 
ATOM     23  C15 UNL     1      22.602   3.023  26.791  0.00  0.00    +0.020 A 
ATOM     24  C16 UNL     1      21.592   2.688  25.888  0.00  0.00    +0.111 A 
ATOM     25  N4  UNL     1      20.834   1.581  26.097  0.00  0.00    -0.263 NA
ATOM     26  C17 UNL     1      21.030   0.769  27.171  0.00  0.00    +0.116 A 
ENDBRANCH  20  21
ENDBRANCH  15  20
ENDBRANCH   1  16
TORSDOF 4
ENDMDL
MODEL 2
REMARK VINA RESULT:    -6.023      4.703      5.900
REMARK INTER + INTRA:          -8.035
REMARK INTER:                  -7.462
REMARK INTRA:                  -0.573
REMARK UNBOUND:                -0.603
REMARK  Name = /home/qwerty/github/datacon2025hack/step_04_hit_selection/docking/ligands/lig_241.pdb
REMARK  5 active torsions:
REMARK  status: ('A' for Active; 'I' for Inactive)
REMARK    1  A    between atoms: C1_1  and  C2_2
REMARK    2  A    between atoms: C2_2  and  N1_3
REMARK    3  A    between atoms: C2_2  and  C13_19
REMARK    4  A    between atoms: C3_4  and  C4_6
REMARK    5  A    between atoms: N2_8  and  C5_9
REMARK                            x       y       z     vdW  Elec       q    Type
REMARK                         _______ _______ _______ _____ _____    ______ ____
ROOT
ATOM      1  C4  UNL     1      20.612   4.049  31.056  0.00  0.00    +0.299 C 
ATOM      2  O2  UNL     1      19.536   4.705  31.102  0.00  0.00    -0.265 OA
ATOM      3  N2  UNL     1      21.819   4.608  31.600  0.00  0.00    -0.302 N 
ATOM      4  H6  UNL     1      22.715   4.085  31.475  0.00  0.00    +0.150 HD
ENDROOT
BRANCH   3   5
ATOM      5  C5  UNL     1      21.889   5.974  32.131  0.00  0.00    +0.102 C 
ATOM      6  C6  UNL     1      23.091   6.727  31.518  0.00  0.00    +0.120 C 
ATOM      7  C7  UNL     1      23.814   7.242  32.698  0.00  0.00    +0.218 C 
ATOM      8  O3  UNL     1      24.811   8.008  32.632  0.00  0.00    -0.276 OA
ATOM      9  N3  UNL     1      23.265   6.797  33.921  0.00  0.00    -0.297 N 
ATOM     10  C8  UNL     1      23.610   7.325  35.240  0.00  0.00    +0.108 C 
ATOM     11  C9  UNL     1      22.728   6.676  36.314  0.00  0.00    +0.019 C 
ATOM     12  C10 UNL     1      21.227   6.745  35.957  0.00  0.00    +0.003 C 
ATOM     13  C11 UNL     1      20.908   6.526  34.457  0.00  0.00    +0.024 C 
ATOM     14  C12 UNL     1      22.104   5.959  33.673  0.00  0.00    +0.097 C 
ENDBRANCH   3   5
BRANCH   1  16
ATOM     15  N1  UNL     1      21.124   2.511  29.112  0.00  0.00    -0.301 N 
ATOM     16  C3  UNL     1      20.619   2.706  30.444  0.00  0.00    +0.299 C 
ATOM     17  O1  UNL     1      20.183   1.722  31.101  0.00  0.00    -0.265 OA
ATOM     18  H5  UNL     1      21.504   3.338  28.598  0.00  0.00    +0.150 HD
BRANCH  15  20
ATOM     19  C1  UNL     1      20.866   1.359  26.950  0.00  0.00    +0.033 C 
ATOM     20  C2  UNL     1      21.111   1.199  28.455  0.00  0.00    +0.102 C 
BRANCH  20  21
ATOM     21  C13 UNL     1      22.409   0.457  28.715  0.00  0.00    -0.009 A 
ATOM     22  C14 UNL     1      23.582   1.163  29.028  0.00  0.00    +0.008 A 
ATOM     23  C15 UNL     1      24.773   0.475  29.268  0.00  0.00    +0.020 A 
ATOM     24  C16 UNL     1      24.785  -0.918  29.191  0.00  0.00    +0.111 A 
ATOM     25  N4  UNL     1      23.647  -1.592  28.883  0.00  0.00    -0.263 NA
ATOM     26  C17 UNL     1      22.473  -0.947  28.647  0.00  0.00    +0.116 A 
ENDBRANCH  20  21
ENDBRANCH  15  20
ENDBRANCH   1  16
TORSDOF 4
ENDMDL
MODEL 3
REMARK VINA RESULT:    -5.795     13.302     15.903
REMARK INTER + INTRA:          -7.754
REMARK INTER:                  -7.245
REMARK INTRA:                  -0.508
REMARK UNBOUND:                -0.603
REMARK  Name = /home/qwerty/github/datacon2025hack/step_04_hit_selection/docking/ligands/lig_241.pdb
REMARK  5 active torsions:
REMARK  status: ('A' for Active; 'I' for Inactive)
REMARK    1  A    between atoms: C1_1  and  C2_2
REMARK    2  A    between atoms: C2_2  and  N1_3
REMARK    3  A    between atoms: C2_2  and  C13_19
REMARK    4  A    between atoms: C3_4  and  C4_6
REMARK    5  A    between atoms: N2_8  and  C5_9
REMARK                            x       y       z     vdW  Elec       q    Type
REMARK                         _______ _______ _______ _____ _____    ______ ____
ROOT
ATOM      1  C4  UNL     1      12.165  14.387  28.718  0.00  0.00    +0.299 C 
ATOM      2  O2  UNL     1      11.982  15.228  27.796  0.00  0.00    -0.265 OA
ATOM      3  N2  UNL     1      13.494  13.937  29.027  0.00  0.00    -0.302 N 
ATOM      4  H6  UNL     1      13.614  13.177  29.735  0.00  0.00    +0.150 HD
ENDROOT
BRANCH   3   5
ATOM      5  C5  UNL     1      14.667  14.338  28.243  0.00  0.00    +0.102 C 
ATOM      6  C6  UNL     1      15.216  13.135  27.443  0.00  0.00    +0.120 C 
ATOM      7  C7  UNL     1      16.647  13.103  27.807  0.00  0.00    +0.218 C 
ATOM      8  O3  UNL     1      17.486  12.323  27.285  0.00  0.00    -0.276 OA
ATOM      9  N3  UNL     1      16.987  14.049  28.798  0.00  0.00    -0.297 N 
ATOM     10  C8  UNL     1      18.351  14.413  29.182  0.00  0.00    +0.108 C 
ATOM     11  C9  UNL     1      18.323  15.553  30.207  0.00  0.00    +0.019 C 
ATOM     12  C10 UNL     1      17.439  16.733  29.744  0.00  0.00    +0.003 C 
ATOM     13  C11 UNL     1      16.139  16.319  29.011  0.00  0.00    +0.024 C 
ATOM     14  C12 UNL     1      15.817  14.823  29.176  0.00  0.00    +0.097 C 
ENDBRANCH   3   5
BRANCH   1  16
ATOM     15  N1  UNL     1       9.877  13.306  28.792  0.00  0.00    -0.301 N 
ATOM     16  C3  UNL     1      11.006  13.876  29.476  0.00  0.00    +0.299 C 
ATOM     17  O1  UNL     1      11.013  13.935  30.736  0.00  0.00    -0.265 OA
ATOM     18  H5  UNL     1       9.906  13.245  27.748  0.00  0.00    +0.150 HD
BRANCH  15  20
ATOM     19  C1  UNL     1       7.587  13.889  29.491  0.00  0.00    +0.033 C 
ATOM     20  C2  UNL     1       8.690  12.824  29.507  0.00  0.00    +0.102 C 
BRANCH  20  21
ATOM     21  C13 UNL     1       8.194  11.523  28.905  0.00  0.00    -0.009 A 
ATOM     22  C14 UNL     1       7.524  10.579  29.702  0.00  0.00    +0.008 A 
ATOM     23  C15 UNL     1       7.069   9.385  29.142  0.00  0.00    +0.020 A 
ATOM     24  C16 UNL     1       7.287   9.137  27.787  0.00  0.00    +0.111 A 
ATOM     25  N4  UNL     1       7.941  10.052  27.025  0.00  0.00    -0.263 NA
ATOM     26  C17 UNL     1       8.394  11.225  27.544  0.00  0.00    +0.116 A 
ENDBRANCH  20  21
ENDBRANCH  15  20
ENDBRANCH   1  16
TORSDOF 4
ENDMDL
MODEL 4
REMARK VINA RESULT:    -5.793     14.299     15.283
REMARK INTER + INTRA:          -7.751
REMARK INTER:                  -7.147
REMARK INTRA:                  -0.604
REMARK UNBOUND:                -0.603
REMARK  Name = /home/qwerty/github/datacon2025hack/step_04_hit_selection/docking/ligands/lig_241.pdb
REMARK  5 active torsions:
REMARK  status: ('A' for Active; 'I' for Inactive)
REMARK    1  A    between atoms: C1_1  and  C2_2
REMARK    2  A    between atoms: C2_2  and  N1_3
REMARK    3  A    between atoms: C2_2  and  C13_19
REMARK    4  A    between atoms: C3_4  and  C4_6
REMARK    5  A    between atoms: N2_8  and  C5_9
REMARK                            x       y       z     vdW  Elec       q    Type
REMARK                         _______ _______ _______ _____ _____    ______ ____
ROOT
ATOM      1  C4  UNL     1       9.750  10.014  24.528  0.00  0.00    +0.299 C 
ATOM      2  O2  UNL     1      10.886  10.492  24.794  0.00  0.00    -0.265 OA
ATOM      3  N2  UNL     1       8.803   9.780  25.584  0.00  0.00    -0.302 N 
ATOM      4  H6  UNL     1       7.902   9.304  25.353  0.00  0.00    +0.150 HD
ENDROOT
BRANCH   3   5
ATOM      5  C5  UNL     1       9.132   9.980  26.999  0.00  0.00    +0.102 C 
ATOM      6  C6  UNL     1       8.294   9.030  27.885  0.00  0.00    +0.120 C 
ATOM      7  C7  UNL     1       7.678   9.936  28.876  0.00  0.00    +0.218 C 
ATOM      8  O3  UNL     1       6.991   9.543  29.854  0.00  0.00    -0.276 OA
ATOM      9  N3  UNL     1       7.948  11.299  28.622  0.00  0.00    -0.297 N 
ATOM     10  C8  UNL     1       7.680  12.397  29.550  0.00  0.00    +0.108 C 
ATOM     11  C9  UNL     1       8.211  13.715  28.973  0.00  0.00    +0.019 C 
ATOM     12  C10 UNL     1       9.679  13.600  28.506  0.00  0.00    +0.003 C 
ATOM     13  C11 UNL     1      10.037  12.256  27.823  0.00  0.00    +0.024 C 
ATOM     14  C12 UNL     1       8.793  11.433  27.447  0.00  0.00    +0.097 C 
ENDBRANCH   3   5
BRANCH   1  16
ATOM     15  N1  UNL     1      10.095   8.666  22.414  0.00  0.00    -0.301 N 
ATOM     16  C3  UNL     1       9.400   9.702  23.128  0.00  0.00    +0.299 C 
ATOM     17  O1  UNL     1       8.480  10.350  22.559  0.00  0.00    -0.265 OA
ATOM     18  H5  UNL     1      10.837   8.126  22.916  0.00  0.00    +0.150 HD
BRANCH  15  20
ATOM     19  C1  UNL     1      11.105   8.284  20.199  0.00  0.00    +0.033 C 
ATOM     20  C2  UNL     1       9.805   8.354  21.010  0.00  0.00    +0.102 C 
BRANCH  20  21
ATOM     21  C13 UNL     1       9.028   7.055  20.899  0.00  0.00    -0.009 A 
ATOM     22  C14 UNL     1       7.634   7.043  21.078  0.00  0.00    +0.008 A 
ATOM     23  C15 UNL     1       6.925   5.846  20.975  0.00  0.00    +0.020 A 
ATOM     24  C16 UNL     1       7.612   4.664  20.694  0.00  0.00    +0.111 A 
ATOM     25  N4  UNL     1       8.960   4.685  20.528  0.00  0.00    -0.263 NA
ATOM     26  C17 UNL     1       9.676   5.838  20.622  0.00  0.00    +0.116 A 
ENDBRANCH  20  21
ENDBRANCH  15  20
ENDBRANCH   1  16
TORSDOF 4
ENDMDL
MODEL 5
REMARK VINA RESULT:    -5.680      5.387      8.793
REMARK INTER + INTRA:          -7.612
REMARK INTER:                  -6.994
REMARK INTRA:                  -0.617
REMARK UNBOUND:                -0.603
REMARK  Name = /home/qwerty/github/datacon2025hack/step_04_hit_selection/docking/ligands/lig_241.pdb
REMARK  5 active torsions:
REMARK  status: ('A' for Active; 'I' for Inactive)
REMARK    1  A    between atoms: C1_1  and  C2_2
REMARK    2  A    between atoms: C2_2  and  N1_3
REMARK    3  A    between atoms: C2_2  and  C13_19
REMARK    4  A    between atoms: C3_4  and  C4_6
REMARK    5  A    between atoms: N2_8  and  C5_9
REMARK                            x       y       z     vdW  Elec       q    Type
REMARK                         _______ _______ _______ _____ _____    ______ ____
ROOT
ATOM      1  C4  UNL     1      21.784   5.671  31.444  0.00  0.00    +0.299 C 
ATOM      2  O2  UNL     1      21.449   6.052  30.290  0.00  0.00    -0.265 OA
ATOM      3  N2  UNL     1      21.532   4.317  31.855  0.00  0.00    -0.302 N 
ATOM      4  H6  UNL     1      21.739   4.047  32.843  0.00  0.00    +0.150 HD
ENDROOT
BRANCH   3   5
ATOM      5  C5  UNL     1      20.802   3.359  31.019  0.00  0.00    +0.102 C 
ATOM      6  C6  UNL     1      19.981   2.392  31.901  0.00  0.00    +0.120 C 
ATOM      7  C7  UNL     1      20.390   1.056  31.422  0.00  0.00    +0.218 C 
ATOM      8  O3  UNL     1      19.871  -0.021  31.817  0.00  0.00    -0.276 OA
ATOM      9  N3  UNL     1      21.423   1.106  30.460  0.00  0.00    -0.297 N 
ATOM     10  C8  UNL     1      21.863  -0.021  29.639  0.00  0.00    +0.108 C 
ATOM     11  C9  UNL     1      22.923   0.444  28.633  0.00  0.00    +0.019 C 
ATOM     12  C10 UNL     1      22.471   1.690  27.840  0.00  0.00    +0.003 C 
ATOM     13  C11 UNL     1      21.682   2.734  28.671  0.00  0.00    +0.024 C 
ATOM     14  C12 UNL     1      21.786   2.486  30.186  0.00  0.00    +0.097 C 
ENDBRANCH   3   5
BRANCH   1  16
ATOM     15  N1  UNL     1      21.653   7.426  33.263  0.00  0.00    -0.301 N 
ATOM     16  C3  UNL     1      22.437   6.623  32.364  0.00  0.00    +0.299 C 
ATOM     17  O1  UNL     1      23.694   6.726  32.363  0.00  0.00    -0.265 OA
ATOM     18  H5  UNL     1      20.614   7.305  33.263  0.00  0.00    +0.150 HD
BRANCH  15  20
ATOM     19  C1  UNL     1      21.523   9.752  34.065  0.00  0.00    +0.033 C 
ATOM     20  C2  UNL     1      22.262   8.413  34.163  0.00  0.00    +0.102 C 
BRANCH  20  21
ATOM     21  C13 UNL     1      22.267   7.901  35.592  0.00  0.00    -0.009 A 
ATOM     22  C14 UNL     1      23.312   7.082  36.051  0.00  0.00    +0.008 A 
ATOM     23  C15 UNL     1      23.312   6.615  37.366  0.00  0.00    +0.020 A 
ATOM     24  C16 UNL     1      22.265   6.969  38.218  0.00  0.00    +0.111 A 
ATOM     25  N4  UNL     1      21.256   7.757  37.764  0.00  0.00    -0.263 NA
ATOM     26  C17 UNL     1      21.232   8.227  36.488  0.00  0.00    +0.116 A 
ENDBRANCH  20  21
ENDBRANCH  15  20
ENDBRANCH   1  16
TORSDOF 4
ENDMDL
MODEL 6
REMARK VINA RESULT:    -5.655      8.712     11.400
REMARK INTER + INTRA:          -7.580
REMARK INTER:                  -7.091
REMARK INTRA:                  -0.489
REMARK UNBOUND:                -0.603
REMARK  Name = /home/qwerty/github/datacon2025hack/step_04_hit_selection/docking/ligands/lig_241.pdb
REMARK  5 active torsions:
REMARK  status: ('A' for Active; 'I' for Inactive)
REMARK    1  A    between atoms: C1_1  and  C2_2
REMARK    2  A    between atoms: C2_2  and  N1_3
REMARK    3  A    between atoms: C2_2  and  C13_19
REMARK    4  A    between atoms: C3_4  and  C4_6
REMARK    5  A    between atoms: N2_8  and  C5_9
REMARK                            x       y       z     vdW  Elec       q    Type
REMARK                         _______ _______ _______ _____ _____    ______ ____
ROOT
ATOM      1  C4  UNL     1      17.428  10.605  36.108  0.00  0.00    +0.299 C 
ATOM      2  O2  UNL     1      17.904  10.747  34.949  0.00  0.00    -0.265 OA
ATOM      3  N2  UNL     1      16.230  11.302  36.484  0.00  0.00    -0.302 N 
ATOM      4  H6  UNL     1      15.902  11.238  37.474  0.00  0.00    +0.150 HD
ENDROOT
BRANCH   3   5
ATOM      5  C5  UNL     1      15.569  12.271  35.603  0.00  0.00    +0.102 C 
ATOM      6  C6  UNL     1      15.918  13.714  36.033  0.00  0.00    +0.120 C 
ATOM      7  C7  UNL     1      14.598  14.362  36.168  0.00  0.00    +0.218 C 
ATOM      8  O3  UNL     1      14.439  15.588  36.408  0.00  0.00    -0.276 OA
ATOM      9  N3  UNL     1      13.521  13.467  35.989  0.00  0.00    -0.297 N 
ATOM     10  C8  UNL     1      12.121  13.856  35.827  0.00  0.00    +0.108 C 
ATOM     11  C9  UNL     1      11.260  12.620  35.543  0.00  0.00    +0.019 C 
ATOM     12  C10 UNL     1      11.833  11.760  34.395  0.00  0.00    +0.003 C 
ATOM     13  C11 UNL     1      13.379  11.647  34.381  0.00  0.00    +0.024 C 
ATOM     14  C12 UNL     1      14.020  12.135  35.692  0.00  0.00    +0.097 C 
ENDBRANCH   3   5
BRANCH   1  16
ATOM     15  N1  UNL     1      18.813   8.547  36.614  0.00  0.00    -0.301 N 
ATOM     16  C3  UNL     1      18.109   9.715  37.069  0.00  0.00    +0.299 C 
ATOM     17  O1  UNL     1      18.075   9.988  38.300  0.00  0.00    -0.265 OA
ATOM     18  H5  UNL     1      18.848   8.356  35.586  0.00  0.00    +0.150 HD
BRANCH  15  20
ATOM     19  C1  UNL     1      18.574   6.396  37.792  0.00  0.00    +0.033 C 
ATOM     20  C2  UNL     1      19.467   7.617  37.541  0.00  0.00    +0.102 C 
BRANCH  20  21
ATOM     21  C13 UNL     1      20.823   7.194  37.007  0.00  0.00    -0.009 A 
ATOM     22  C14 UNL     1      21.908   7.014  37.881  0.00  0.00    +0.008 A 
ATOM     23  C15 UNL     1      23.153   6.624  37.385  0.00  0.00    +0.020 A 
ATOM     24  C16 UNL     1      23.308   6.417  36.014  0.00  0.00    +0.111 A 
ATOM     25  N4  UNL     1      22.255   6.598  35.175  0.00  0.00    -0.263 NA
ATOM     26  C17 UNL     1      21.031   6.976  35.632  0.00  0.00    +0.116 A 
ENDBRANCH  20  21
ENDBRANCH  15  20
ENDBRANCH   1  16
TORSDOF 4
ENDMDL
MODEL 7
REMARK VINA RESULT:    -5.638     11.735     13.733
REMARK INTER + INTRA:          -7.560
REMARK INTER:                  -7.146
REMARK INTRA:                  -0.414
REMARK UNBOUND:                -0.603
REMARK  Name = /home/qwerty/github/datacon2025hack/step_04_hit_selection/docking/ligands/lig_241.pdb
REMARK  5 active torsions:
REMARK  status: ('A' for Active; 'I' for Inactive)
REMARK    1  A    between atoms: C1_1  and  C2_2
REMARK    2  A    between atoms: C2_2  and  N1_3
REMARK    3  A    between atoms: C2_2  and  C13_19
REMARK    4  A    between atoms: C3_4  and  C4_6
REMARK    5  A    between atoms: N2_8  and  C5_9
REMARK                            x       y       z     vdW  Elec       q    Type
REMARK                         _______ _______ _______ _____ _____    ______ ____
ROOT
ATOM      1  C4  UNL     1      11.859   4.175  21.206  0.00  0.00    +0.299 C 
ATOM      2  O2  UNL     1      12.072   4.268  22.445  0.00  0.00    -0.265 OA
ATOM      3  N2  UNL     1      10.590   4.571  20.662  0.00  0.00    -0.302 N 
ATOM      4  H6  UNL     1      10.405   4.404  19.647  0.00  0.00    +0.150 HD
ENDROOT
BRANCH   3   5
ATOM      5  C5  UNL     1       9.467   4.997  21.504  0.00  0.00    +0.102 C 
ATOM      6  C6  UNL     1       8.124   4.718  20.791  0.00  0.00    +0.120 C 
ATOM      7  C7  UNL     1       7.428   6.019  20.844  0.00  0.00    +0.218 C 
ATOM      8  O3  UNL     1       6.244   6.198  20.458  0.00  0.00    -0.276 OA
ATOM      9  N3  UNL     1       8.225   7.050  21.388  0.00  0.00    -0.297 N 
ATOM     10  C8  UNL     1       7.737   8.370  21.785  0.00  0.00    +0.108 C 
ATOM     11  C9  UNL     1       8.868   9.176  22.436  0.00  0.00    +0.019 C 
ATOM     12  C10 UNL     1       9.583   8.383  23.552  0.00  0.00    +0.003 C 
ATOM     13  C11 UNL     1       9.780   6.876  23.250  0.00  0.00    +0.024 C 
ATOM     14  C12 UNL     1       9.526   6.530  21.773  0.00  0.00    +0.097 C 
ENDBRANCH   3   5
BRANCH   1  16
ATOM     15  N1  UNL     1      13.945   2.789  20.837  0.00  0.00    -0.301 N 
ATOM     16  C3  UNL     1      12.924   3.660  20.322  0.00  0.00    +0.299 C 
ATOM     17  O1  UNL     1      12.931   3.984  19.103  0.00  0.00    -0.265 OA
ATOM     18  H5  UNL     1      13.904   2.514  21.845  0.00  0.00    +0.150 HD
BRANCH  15  20
ATOM     19  C1  UNL     1      16.074   3.397  19.754  0.00  0.00    +0.033 C 
ATOM     20  C2  UNL     1      15.043   2.289  20.001  0.00  0.00    +0.102 C 
BRANCH  20  21
ATOM     21  C13 UNL     1      15.694   1.077  20.640  0.00  0.00    -0.009 A 
ATOM     22  C14 UNL     1      16.191   0.032  19.842  0.00  0.00    +0.008 A 
ATOM     23  C15 UNL     1      16.790  -1.079  20.436  0.00  0.00    +0.020 A 
ATOM     24  C16 UNL     1      16.888  -1.144  21.826  0.00  0.00    +0.111 A 
ATOM     25  N4  UNL     1      16.400  -0.132  22.589  0.00  0.00    -0.263 NA
ATOM     26  C17 UNL     1      15.813   0.964  22.037  0.00  0.00    +0.116 A 
ENDBRANCH  20  21
ENDBRANCH  15  20
ENDBRANCH   1  16
TORSDOF 4
ENDMDL
MODEL 8
REMARK VINA RESULT:    -5.618      6.225      9.738
REMARK INTER + INTRA:          -7.536
REMARK INTER:                  -6.887
REMARK INTRA:                  -0.648
REMARK UNBOUND:                -0.603
REMARK  Name = /home/qwerty/github/datacon2025hack/step_04_hit_selection/docking/ligands/lig_241.pdb
REMARK  5 active torsions:
REMARK  status: ('A' for Active; 'I' for Inactive)
REMARK    1  A    between atoms: C1_1  and  C2_2
REMARK    2  A    between atoms: C2_2  and  N1_3
REMARK    3  A    between atoms: C2_2  and  C13_19
REMARK    4  A    between atoms: C3_4  and  C4_6
REMARK    5  A    between atoms: N2_8  and  C5_9
REMARK                            x       y       z     vdW  Elec       q    Type
REMARK                         _______ _______ _______ _____ _____    ______ ____
ROOT
ATOM      1  C4  UNL     1      16.978   0.233  25.629  0.00  0.00    +0.299 C 
ATOM      2  O2  UNL     1      15.900  -0.251  26.070  0.00  0.00    -0.265 OA
ATOM      3  N2  UNL     1      17.269   0.179  24.223  0.00  0.00    -0.302 N 
ATOM      4  H6  UNL     1      18.204   0.509  23.892  0.00  0.00    +0.150 HD
ENDROOT
BRANCH   3   5
ATOM      5  C5  UNL     1      16.403  -0.513  23.262  0.00  0.00    +0.102 C 
ATOM      6  C6  UNL     1      17.256  -1.248  22.204  0.00  0.00    +0.120 C 
ATOM      7  C7  UNL     1      16.703  -0.770  20.921  0.00  0.00    +0.218 C 
ATOM      8  O3  UNL     1      17.056  -1.211  19.796  0.00  0.00    -0.276 OA
ATOM      9  N3  UNL     1      15.720   0.232  21.082  0.00  0.00    -0.297 N 
ATOM     10  C8  UNL     1      14.834   0.719  20.026  0.00  0.00    +0.108 C 
ATOM     11  C9  UNL     1      13.828   1.721  20.603  0.00  0.00    +0.019 C 
ATOM     12  C10 UNL     1      13.108   1.172  21.855  0.00  0.00    +0.003 C 
ATOM     13  C11 UNL     1      14.008   0.343  22.806  0.00  0.00    +0.024 C 
ATOM     14  C12 UNL     1      15.506   0.502  22.494  0.00  0.00    +0.097 C 
ENDBRANCH   3   5
BRANCH   1  16
ATOM     15  N1  UNL     1      19.296   1.087  26.178  0.00  0.00    -0.301 N 
ATOM     16  C3  UNL     1      17.932   0.857  26.568  0.00  0.00    +0.299 C 
ATOM     17  O1  UNL     1      17.541   1.194  27.718  0.00  0.00    -0.265 OA
ATOM     18  H5  UNL     1      19.590   0.823  25.210  0.00  0.00    +0.150 HD
BRANCH  15  20
ATOM     19  C1  UNL     1      21.334   0.619  27.483  0.00  0.00    +0.033 C 
ATOM     20  C2  UNL     1      20.284   1.668  27.095  0.00  0.00    +0.102 C 
BRANCH  20  21
ATOM     21  C13 UNL     1      20.941   2.886  26.473  0.00  0.00    -0.009 A 
ATOM     22  C14 UNL     1      22.316   2.883  26.183  0.00  0.00    +0.008 A 
ATOM     23  C15 UNL     1      22.915   4.006  25.611  0.00  0.00    +0.020 A 
ATOM     24  C16 UNL     1      22.136   5.129  25.332  0.00  0.00    +0.111 A 
ATOM     25  N4  UNL     1      20.809   5.125  25.620  0.00  0.00    -0.263 NA
ATOM     26  C17 UNL     1      20.199   4.044  26.177  0.00  0.00    +0.116 A 
ENDBRANCH  20  21
ENDBRANCH  15  20
ENDBRANCH   1  16
TORSDOF 4
ENDMDL
MODEL 9
REMARK VINA RESULT:    -5.600      5.478      8.589
REMARK INTER + INTRA:          -7.513
REMARK INTER:                  -6.924
REMARK INTRA:                  -0.589
REMARK UNBOUND:                -0.603
REMARK  Name = /home/qwerty/github/datacon2025hack/step_04_hit_selection/docking/ligands/lig_241.pdb
REMARK  5 active torsions:
REMARK  status: ('A' for Active; 'I' for Inactive)
REMARK    1  A    between atoms: C1_1  and  C2_2
REMARK    2  A    between atoms: C2_2  and  N1_3
REMARK    3  A    between atoms: C2_2  and  C13_19
REMARK    4  A    between atoms: C3_4  and  C4_6
REMARK    5  A    between atoms: N2_8  and  C5_9
REMARK                            x       y       z     vdW  Elec       q    Type
REMARK                         _______ _______ _______ _____ _____    ______ ____
ROOT
ATOM      1  C4  UNL     1      17.676   0.590  26.488  0.00  0.00    +0.299 C 
ATOM      2  O2  UNL     1      17.306   0.816  27.672  0.00  0.00    -0.265 OA
ATOM      3  N2  UNL     1      18.907   1.148  26.001  0.00  0.00    -0.302 N 
ATOM      4  H6  UNL     1      19.152   1.019  24.993  0.00  0.00    +0.150 HD
ENDROOT
BRANCH   3   5
ATOM      5  C5  UNL     1      19.727   2.069  26.795  0.00  0.00    +0.102 C 
ATOM      6  C6  UNL     1      20.544   2.997  25.868  0.00  0.00    +0.120 C 
ATOM      7  C7  UNL     1      21.929   2.841  26.357  0.00  0.00    +0.218 C 
ATOM      8  O3  UNL     1      22.904   3.514  25.930  0.00  0.00    -0.276 OA
ATOM      9  N3  UNL     1      22.052   1.862  27.367  0.00  0.00    -0.297 N 
ATOM     10  C8  UNL     1      23.236   1.658  28.201  0.00  0.00    +0.108 C 
ATOM     11  C9  UNL     1      22.955   0.584  29.259  0.00  0.00    +0.019 C 
ATOM     12  C10 UNL     1      21.649   0.858  30.038  0.00  0.00    +0.003 C 
ATOM     13  C11 UNL     1      20.489   1.419  29.178  0.00  0.00    +0.024 C 
ATOM     14  C12 UNL     1      20.753   1.286  27.668  0.00  0.00    +0.097 C 
ENDBRANCH   3   5
BRANCH   1  16
ATOM     15  N1  UNL     1      15.781   0.329  24.831  0.00  0.00    -0.301 N 
ATOM     16  C3  UNL     1      16.838  -0.253  25.612  0.00  0.00    +0.299 C 
ATOM     17  O1  UNL     1      17.059  -1.493  25.548  0.00  0.00    -0.265 OA
ATOM     18  H5  UNL     1      15.634   1.363  24.882  0.00  0.00    +0.150 HD
BRANCH  15  20
ATOM     19  C1  UNL     1      13.447  -0.367  24.454  0.00  0.00    +0.033 C 
ATOM     20  C2  UNL     1      14.901  -0.480  23.980  0.00  0.00    +0.102 C 
BRANCH  20  21
ATOM     21  C13 UNL     1      15.029  -0.063  22.527  0.00  0.00    -0.009 A 
ATOM     22  C14 UNL     1      16.163  -0.425  21.780  0.00  0.00    +0.008 A 
ATOM     23  C15 UNL     1      16.275  -0.039  20.443  0.00  0.00    +0.020 A 
ATOM     24  C16 UNL     1      15.254   0.710  19.859  0.00  0.00    +0.111 A 
ATOM     25  N4  UNL     1      14.164   1.060  20.590  0.00  0.00    -0.263 NA
ATOM     26  C17 UNL     1      14.027   0.696  21.894  0.00  0.00    +0.116 A 
ENDBRANCH  20  21
ENDBRANCH  15  20
ENDBRANCH   1  16
TORSDOF 4
ENDMDL
