MODEL 1
REMARK VINA RESULT:    -7.821      0.000      0.000
REMARK INTER + INTRA:          -9.526
REMARK INTER:                  -9.192
REMARK INTRA:                  -0.334
REMARK UNBOUND:                -0.334
REMARK  Name = /home/qwerty/github/datacon2025hack/step_04_hit_selection/docking/ligands/lig_503.pdb
REMARK  3 active torsions:
REMARK  status: ('A' for Active; 'I' for Inactive)
REMARK    1  A    between atoms: N1_3  and  C2_4
REMARK    2  A    between atoms: N2_11  and  C8_12
REMARK    3  A    between atoms: N5_22  and  C16_23
REMARK                            x       y       z     vdW  Elec       q    Type
REMARK                         _______ _______ _______ _____ _____    ______ ____
ROOT
ATOM      1  C8  UNL     1      18.235  10.026  37.397  0.00  0.00    +0.037 A 
ATOM      2  C9  UNL     1      18.136   8.856  38.173  0.00  0.00    +0.025 A 
ATOM      3  C10 UNL     1      18.954   7.753  37.909  0.00  0.00    +0.032 A 
ATOM      4  C11 UNL     1      19.869   7.798  36.855  0.00  0.00    +0.090 A 
ATOM      5  N3  UNL     1      20.675   6.729  36.588  0.00  0.00    -0.247 NA
ATOM      6  C12 UNL     1      21.544   6.805  35.549  0.00  0.00    +0.083 A 
ATOM      7  C13 UNL     1      21.628   7.921  34.779  0.00  0.00    +0.144 A 
ATOM      8  N4  UNL     1      20.851   9.008  35.017  0.00  0.00    -0.229 NA
ATOM      9  C14 UNL     1      19.961   8.968  36.050  0.00  0.00    +0.093 A 
ATOM     10  C15 UNL     1      19.140  10.066  36.322  0.00  0.00    +0.053 A 
ATOM     11  N5  UNL     1      22.609   7.799  33.767  0.00  0.00    -0.310 N 
ATOM     12  C22 UNL     1      23.258   6.491  33.936  0.00  0.00    +0.113 C 
ATOM     13  C23 UNL     1      22.521   5.780  35.105  0.00  0.00    +0.078 C 
ENDROOT
BRANCH   1  17
ATOM     14  O1  UNL     1      15.554  10.412  36.389  0.00  0.00    -0.252 OA
ATOM     15  C1  UNL     1      16.101  11.351  37.028  0.00  0.00    +0.308 C 
ATOM     16  N1  UNL     1      15.444  12.622  37.151  0.00  0.00    -0.269 N 
ATOM     17  N2  UNL     1      17.385  11.160  37.639  0.00  0.00    -0.269 N 
ATOM     18  H1  UNL     1      16.025  13.439  37.447  0.00  0.00    +0.156 HD
ATOM     19  H6  UNL     1      17.676  11.846  38.373  0.00  0.00    +0.156 HD
BRANCH  16  20
ATOM     20  C2  UNL     1      14.079  12.867  36.770  0.00  0.00    +0.035 A 
ATOM     21  C3  UNL     1      13.726  13.965  35.963  0.00  0.00    +0.026 A 
ATOM     22  C4  UNL     1      12.394  14.164  35.587  0.00  0.00    +0.040 A 
ATOM     23  C5  UNL     1      11.406  13.266  36.000  0.00  0.00    +0.124 A 
ATOM     24  F1  UNL     1      10.116  13.462  35.632  0.00  0.00    -0.205 F 
ATOM     25  C6  UNL     1      11.751  12.161  36.782  0.00  0.00    +0.040 A 
ATOM     26  C7  UNL     1      13.082  11.958  37.159  0.00  0.00    +0.026 A 
ENDBRANCH  16  20
ENDBRANCH   1  17
BRANCH  11  27
ATOM     27  C16 UNL     1      23.114   8.918  32.963  0.00  0.00    +0.075 C 
ATOM     28  C17 UNL     1      24.623   8.756  32.711  0.00  0.00    +0.022 C 
ATOM     29  C18 UNL     1      25.164   9.916  31.864  0.00  0.00    +0.002 C 
ATOM     30  C19 UNL     1      24.395  10.040  30.542  0.00  0.00    +0.000 C 
ATOM     31  C20 UNL     1      22.889  10.196  30.791  0.00  0.00    +0.002 C 
ATOM     32  C21 UNL     1      22.348   9.033  31.631  0.00  0.00    +0.022 C 
ENDBRANCH  11  27
TORSDOF 3
ENDMDL
MODEL 2
REMARK VINA RESULT:    -7.500     15.077     16.557
REMARK INTER + INTRA:          -9.149
REMARK INTER:                  -8.691
REMARK INTRA:                  -0.458
REMARK UNBOUND:                -0.334
REMARK  Name = /home/qwerty/github/datacon2025hack/step_04_hit_selection/docking/ligands/lig_503.pdb
REMARK  3 active torsions:
REMARK  status: ('A' for Active; 'I' for Inactive)
REMARK    1  A    between atoms: N1_3  and  C2_4
REMARK    2  A    between atoms: N2_11  and  C8_12
REMARK    3  A    between atoms: N5_22  and  C16_23
REMARK                            x       y       z     vdW  Elec       q    Type
REMARK                         _______ _______ _______ _____ _____    ______ ____
ROOT
ATOM      1  C8  UNL     1      12.986   3.944  20.154  0.00  0.00    +0.037 A 
ATOM      2  C9  UNL     1      14.169   4.181  19.428  0.00  0.00    +0.025 A 
ATOM      3  C10 UNL     1      15.366   3.553  19.789  0.00  0.00    +0.032 A 
ATOM      4  C11 UNL     1      15.399   2.694  20.890  0.00  0.00    +0.090 A 
ATOM      5  N3  UNL     1      16.560   2.073  21.252  0.00  0.00    -0.247 NA
ATOM      6  C12 UNL     1      16.557   1.254  22.333  0.00  0.00    +0.083 A 
ATOM      7  C13 UNL     1      15.425   1.040  23.054  0.00  0.00    +0.144 A 
ATOM      8  N4  UNL     1      14.250   1.631  22.722  0.00  0.00    -0.229 NA
ATOM      9  C14 UNL     1      14.214   2.465  21.643  0.00  0.00    +0.093 A 
ATOM     10  C15 UNL     1      13.022   3.097  21.274  0.00  0.00    +0.053 A 
ATOM     11  N5  UNL     1      15.636   0.139  24.124  0.00  0.00    -0.310 N 
ATOM     12  C22 UNL     1      17.034  -0.313  24.053  0.00  0.00    +0.113 C 
ATOM     13  C23 UNL     1      17.690   0.466  22.879  0.00  0.00    +0.078 C 
ENDROOT
BRANCH   1  17
ATOM     14  O1  UNL     1      12.000   6.431  21.247  0.00  0.00    -0.252 OA
ATOM     15  C1  UNL     1      11.259   5.780  20.461  0.00  0.00    +0.308 C 
ATOM     16  N1  UNL     1       9.914   6.213  20.207  0.00  0.00    -0.269 N 
ATOM     17  N2  UNL     1      11.753   4.600  19.810  0.00  0.00    -0.269 N 
ATOM     18  H1  UNL     1       9.258   5.524  19.775  0.00  0.00    +0.156 HD
ATOM     19  H6  UNL     1      11.225   4.251  18.978  0.00  0.00    +0.156 HD
BRANCH  16  20
ATOM     20  C2  UNL     1       9.381   7.481  20.627  0.00  0.00    +0.035 A 
ATOM     21  C3  UNL     1       8.265   7.563  21.481  0.00  0.00    +0.026 A 
ATOM     22  C4  UNL     1       7.783   8.809  21.894  0.00  0.00    +0.040 A 
ATOM     23  C5  UNL     1       8.414   9.982  21.470  0.00  0.00    +0.124 A 
ATOM     24  F1  UNL     1       7.945  11.188  21.873  0.00  0.00    -0.205 F 
ATOM     25  C6  UNL     1       9.536   9.908  20.640  0.00  0.00    +0.040 A 
ATOM     26  C7  UNL     1      10.021   8.664  20.226  0.00  0.00    +0.026 A 
ENDBRANCH  16  20
ENDBRANCH   1  17
BRANCH  11  27
ATOM     27  C16 UNL     1      14.563  -0.489  24.902  0.00  0.00    +0.075 C 
ATOM     28  C17 UNL     1      14.847  -1.990  25.089  0.00  0.00    +0.022 C 
ATOM     29  C18 UNL     1      13.735  -2.660  25.908  0.00  0.00    +0.002 C 
ATOM     30  C19 UNL     1      13.550  -1.962  27.262  0.00  0.00    +0.000 C 
ATOM     31  C20 UNL     1      13.272  -0.464  27.078  0.00  0.00    +0.002 C 
ATOM     32  C21 UNL     1      14.386   0.206  26.265  0.00  0.00    +0.022 C 
ENDBRANCH  11  27
TORSDOF 3
ENDMDL
MODEL 3
REMARK VINA RESULT:    -7.459     12.977     15.905
REMARK INTER + INTRA:          -9.101
REMARK INTER:                  -8.492
REMARK INTRA:                  -0.609
REMARK UNBOUND:                -0.334
REMARK  Name = /home/qwerty/github/datacon2025hack/step_04_hit_selection/docking/ligands/lig_503.pdb
REMARK  3 active torsions:
REMARK  status: ('A' for Active; 'I' for Inactive)
REMARK    1  A    between atoms: N1_3  and  C2_4
REMARK    2  A    between atoms: N2_11  and  C8_12
REMARK    3  A    between atoms: N5_22  and  C16_23
REMARK                            x       y       z     vdW  Elec       q    Type
REMARK                         _______ _______ _______ _____ _____    ______ ____
ROOT
ATOM      1  C8  UNL     1      19.403   5.161  21.477  0.00  0.00    +0.037 A 
ATOM      2  C9  UNL     1      18.081   4.853  21.103  0.00  0.00    +0.025 A 
ATOM      3  C10 UNL     1      17.241   5.839  20.574  0.00  0.00    +0.032 A 
ATOM      4  C11 UNL     1      17.706   7.148  20.428  0.00  0.00    +0.090 A 
ATOM      5  N3  UNL     1      16.896   8.118  19.910  0.00  0.00    -0.247 NA
ATOM      6  C12 UNL     1      17.378   9.381  19.792  0.00  0.00    +0.083 A 
ATOM      7  C13 UNL     1      18.644   9.692  20.175  0.00  0.00    +0.144 A 
ATOM      8  N4  UNL     1      19.483   8.755  20.685  0.00  0.00    -0.229 NA
ATOM      9  C14 UNL     1      19.033   7.474  20.823  0.00  0.00    +0.093 A 
ATOM     10  C15 UNL     1      19.865   6.482  21.351  0.00  0.00    +0.053 A 
ATOM     11  N5  UNL     1      18.951  11.054  19.949  0.00  0.00    -0.310 N 
ATOM     12  C22 UNL     1      17.780  11.671  19.308  0.00  0.00    +0.113 C 
ATOM     13  C23 UNL     1      16.685  10.569  19.237  0.00  0.00    +0.078 C 
ENDROOT
BRANCH   1  17
ATOM     14  O1  UNL     1      19.515   4.360  24.251  0.00  0.00    -0.252 OA
ATOM     15  C1  UNL     1      20.362   3.881  23.449  0.00  0.00    +0.308 C 
ATOM     16  N1  UNL     1      21.424   3.044  23.930  0.00  0.00    -0.269 N 
ATOM     17  N2  UNL     1      20.272   4.166  22.045  0.00  0.00    -0.269 N 
ATOM     18  H1  UNL     1      22.241   2.888  23.297  0.00  0.00    +0.156 HD
ATOM     19  H6  UNL     1      20.806   3.549  21.392  0.00  0.00    +0.156 HD
BRANCH  16  20
ATOM     20  C2  UNL     1      21.497   2.518  25.267  0.00  0.00    +0.035 A 
ATOM     21  C3  UNL     1      20.647   1.481  25.696  0.00  0.00    +0.026 A 
ATOM     22  C4  UNL     1      20.756   0.972  26.994  0.00  0.00    +0.040 A 
ATOM     23  C5  UNL     1      21.720   1.480  27.869  0.00  0.00    +0.124 A 
ATOM     24  F1  UNL     1      21.824   0.983  29.126  0.00  0.00    -0.205 F 
ATOM     25  C6  UNL     1      22.582   2.494  27.443  0.00  0.00    +0.040 A 
ATOM     26  C7  UNL     1      22.477   3.004  26.146  0.00  0.00    +0.026 A 
ENDBRANCH  16  20
ENDBRANCH   1  17
BRANCH  11  27
ATOM     27  C16 UNL     1      20.303  11.620  20.005  0.00  0.00    +0.075 C 
ATOM     28  C17 UNL     1      20.522  12.600  18.839  0.00  0.00    +0.022 C 
ATOM     29  C18 UNL     1      21.931  13.205  18.889  0.00  0.00    +0.002 C 
ATOM     30  C19 UNL     1      22.190  13.889  20.238  0.00  0.00    +0.000 C 
ATOM     31  C20 UNL     1      21.968  12.915  21.403  0.00  0.00    +0.002 C 
ATOM     32  C21 UNL     1      20.557  12.315  21.356  0.00  0.00    +0.022 C 
ENDBRANCH  11  27
TORSDOF 3
ENDMDL
MODEL 4
REMARK VINA RESULT:    -7.397     15.674     17.666
REMARK INTER + INTRA:          -9.029
REMARK INTER:                  -8.399
REMARK INTRA:                  -0.630
REMARK UNBOUND:                -0.334
REMARK  Name = /home/qwerty/github/datacon2025hack/step_04_hit_selection/docking/ligands/lig_503.pdb
REMARK  3 active torsions:
REMARK  status: ('A' for Active; 'I' for Inactive)
REMARK    1  A    between atoms: N1_3  and  C2_4
REMARK    2  A    between atoms: N2_11  and  C8_12
REMARK    3  A    between atoms: N5_22  and  C16_23
REMARK                            x       y       z     vdW  Elec       q    Type
REMARK                         _______ _______ _______ _____ _____    ______ ____
ROOT
ATOM      1  C8  UNL     1      15.752   5.084  19.869  0.00  0.00    +0.037 A 
ATOM      2  C9  UNL     1      16.581   3.963  20.057  0.00  0.00    +0.025 A 
ATOM      3  C10 UNL     1      16.165   2.894  20.858  0.00  0.00    +0.032 A 
ATOM      4  C11 UNL     1      14.922   2.940  21.493  0.00  0.00    +0.090 A 
ATOM      5  N3  UNL     1      14.503   1.902  22.275  0.00  0.00    -0.247 NA
ATOM      6  C12 UNL     1      13.293   1.985  22.884  0.00  0.00    +0.083 A 
ATOM      7  C13 UNL     1      12.498   3.076  22.727  0.00  0.00    +0.144 A 
ATOM      8  N4  UNL     1      12.874   4.124  21.952  0.00  0.00    -0.229 NA
ATOM      9  C14 UNL     1      14.085   4.079  21.326  0.00  0.00    +0.093 A 
ATOM     10  C15 UNL     1      14.510   5.142  20.524  0.00  0.00    +0.053 A 
ATOM     11  N5  UNL     1      11.277   2.951  23.430  0.00  0.00    -0.310 N 
ATOM     12  C22 UNL     1      11.263   1.623  24.061  0.00  0.00    +0.113 C 
ATOM     13  C23 UNL     1      12.638   0.971  23.746  0.00  0.00    +0.078 C 
ENDROOT
BRANCH   1  17
ATOM     14  O1  UNL     1      17.333   7.334  20.759  0.00  0.00    -0.252 OA
ATOM     15  C1  UNL     1      16.870   7.347  19.586  0.00  0.00    +0.308 C 
ATOM     16  N1  UNL     1      17.033   8.506  18.755  0.00  0.00    -0.269 N 
ATOM     17  N2  UNL     1      16.175   6.202  19.069  0.00  0.00    -0.269 N 
ATOM     18  H1  UNL     1      16.421   8.585  17.911  0.00  0.00    +0.156 HD
ATOM     19  H6  UNL     1      16.050   6.142  18.033  0.00  0.00    +0.156 HD
BRANCH  16  20
ATOM     20  C2  UNL     1      17.884   9.619  19.079  0.00  0.00    +0.035 A 
ATOM     21  C3  UNL     1      19.283   9.537  18.951  0.00  0.00    +0.026 A 
ATOM     22  C4  UNL     1      20.085  10.643  19.249  0.00  0.00    +0.040 A 
ATOM     23  C5  UNL     1      19.500  11.843  19.663  0.00  0.00    +0.124 A 
ATOM     24  F1  UNL     1      20.280  12.914  19.950  0.00  0.00    -0.205 F 
ATOM     25  C6  UNL     1      18.110  11.940  19.771  0.00  0.00    +0.040 A 
ATOM     26  C7  UNL     1      17.306  10.837  19.473  0.00  0.00    +0.026 A 
ENDBRANCH  16  20
ENDBRANCH   1  17
BRANCH  11  27
ATOM     27  C16 UNL     1      10.117   3.829  23.239  0.00  0.00    +0.075 C 
ATOM     28  C17 UNL     1       9.360   3.444  21.956  0.00  0.00    +0.022 C 
ATOM     29  C18 UNL     1       8.140   4.350  21.747  0.00  0.00    +0.002 C 
ATOM     30  C19 UNL     1       7.210   4.313  22.966  0.00  0.00    +0.000 C 
ATOM     31  C20 UNL     1       7.963   4.691  24.249  0.00  0.00    +0.002 C 
ATOM     32  C21 UNL     1       9.179   3.781  24.460  0.00  0.00    +0.022 C 
ENDBRANCH  11  27
TORSDOF 3
ENDMDL
MODEL 5
REMARK VINA RESULT:    -7.386     14.864     18.362
REMARK INTER + INTRA:          -9.015
REMARK INTER:                  -8.421
REMARK INTRA:                  -0.594
REMARK UNBOUND:                -0.334
REMARK  Name = /home/qwerty/github/datacon2025hack/step_04_hit_selection/docking/ligands/lig_503.pdb
REMARK  3 active torsions:
REMARK  status: ('A' for Active; 'I' for Inactive)
REMARK    1  A    between atoms: N1_3  and  C2_4
REMARK    2  A    between atoms: N2_11  and  C8_12
REMARK    3  A    between atoms: N5_22  and  C16_23
REMARK                            x       y       z     vdW  Elec       q    Type
REMARK                         _______ _______ _______ _____ _____    ______ ____
ROOT
ATOM      1  C8  UNL     1      10.462   4.738  21.245  0.00  0.00    +0.037 A 
ATOM      2  C9  UNL     1      10.419   5.751  20.269  0.00  0.00    +0.025 A 
ATOM      3  C10 UNL     1       9.941   7.027  20.585  0.00  0.00    +0.032 A 
ATOM      4  C11 UNL     1       9.485   7.302  21.876  0.00  0.00    +0.090 A 
ATOM      5  N3  UNL     1       9.019   8.544  22.199  0.00  0.00    -0.247 NA
ATOM      6  C12 UNL     1       8.575   8.772  23.460  0.00  0.00    +0.083 A 
ATOM      7  C13 UNL     1       8.589   7.792  24.401  0.00  0.00    +0.144 A 
ATOM      8  N4  UNL     1       9.052   6.547  24.124  0.00  0.00    -0.229 NA
ATOM      9  C14 UNL     1       9.504   6.278  22.865  0.00  0.00    +0.093 A 
ATOM     10  C15 UNL     1       9.984   5.006  22.539  0.00  0.00    +0.053 A 
ATOM     11  N5  UNL     1       8.103   8.244  25.650  0.00  0.00    -0.310 N 
ATOM     12  C22 UNL     1       7.793   9.675  25.513  0.00  0.00    +0.113 C 
ATOM     13  C23 UNL     1       8.058  10.042  24.026  0.00  0.00    +0.078 C 
ENDROOT
BRANCH   1  17
ATOM     14  O1  UNL     1      13.057   3.632  21.874  0.00  0.00    -0.252 OA
ATOM     15  C1  UNL     1      12.263   2.950  21.171  0.00  0.00    +0.308 C 
ATOM     16  N1  UNL     1      12.687   1.700  20.605  0.00  0.00    -0.269 N 
ATOM     17  N2  UNL     1      10.927   3.414  20.930  0.00  0.00    -0.269 N 
ATOM     18  H1  UNL     1      12.112   1.302  19.828  0.00  0.00    +0.156 HD
ATOM     19  H6  UNL     1      10.228   2.716  20.587  0.00  0.00    +0.156 HD
BRANCH  16  20
ATOM     20  C2  UNL     1      13.915   1.034  20.946  0.00  0.00    +0.035 A 
ATOM     21  C3  UNL     1      14.059   0.332  22.158  0.00  0.00    +0.026 A 
ATOM     22  C4  UNL     1      15.256  -0.328  22.453  0.00  0.00    +0.040 A 
ATOM     23  C5  UNL     1      16.313  -0.307  21.538  0.00  0.00    +0.124 A 
ATOM     24  F1  UNL     1      17.471  -0.949  21.827  0.00  0.00    -0.205 F 
ATOM     25  C6  UNL     1      16.170   0.368  20.323  0.00  0.00    +0.040 A 
ATOM     26  C7  UNL     1      14.975   1.028  20.025  0.00  0.00    +0.026 A 
ENDBRANCH  16  20
ENDBRANCH   1  17
BRANCH  11  27
ATOM     27  C16 UNL     1       8.247   7.509  26.911  0.00  0.00    +0.075 C 
ATOM     28  C17 UNL     1       8.403   8.489  28.087  0.00  0.00    +0.022 C 
ATOM     29  C18 UNL     1       8.548   7.733  29.414  0.00  0.00    +0.002 C 
ATOM     30  C19 UNL     1       7.363   6.785  29.642  0.00  0.00    +0.000 C 
ATOM     31  C20 UNL     1       7.201   5.810  28.468  0.00  0.00    +0.002 C 
ATOM     32  C21 UNL     1       7.051   6.566  27.143  0.00  0.00    +0.022 C 
ENDBRANCH  11  27
TORSDOF 3
ENDMDL
MODEL 6
REMARK VINA RESULT:    -7.360     14.079     15.324
REMARK INTER + INTRA:          -8.985
REMARK INTER:                  -8.364
REMARK INTRA:                  -0.621
REMARK UNBOUND:                -0.334
REMARK  Name = /home/qwerty/github/datacon2025hack/step_04_hit_selection/docking/ligands/lig_503.pdb
REMARK  3 active torsions:
REMARK  status: ('A' for Active; 'I' for Inactive)
REMARK    1  A    between atoms: N1_3  and  C2_4
REMARK    2  A    between atoms: N2_11  and  C8_12
REMARK    3  A    between atoms: N5_22  and  C16_23
REMARK                            x       y       z     vdW  Elec       q    Type
REMARK                         _______ _______ _______ _____ _____    ______ ____
ROOT
ATOM      1  C8  UNL     1      13.736   1.613  21.635  0.00  0.00    +0.037 A 
ATOM      2  C9  UNL     1      13.522   0.334  22.183  0.00  0.00    +0.025 A 
ATOM      3  C10 UNL     1      14.497  -0.273  22.980  0.00  0.00    +0.032 A 
ATOM      4  C11 UNL     1      15.705   0.383  23.226  0.00  0.00    +0.090 A 
ATOM      5  N3  UNL     1      16.665  -0.199  24.004  0.00  0.00    -0.247 NA
ATOM      6  C12 UNL     1      17.831   0.463  24.214  0.00  0.00    +0.083 A 
ATOM      7  C13 UNL     1      18.055   1.687  23.668  0.00  0.00    +0.144 A 
ATOM      8  N4  UNL     1      17.124   2.302  22.896  0.00  0.00    -0.229 NA
ATOM      9  C14 UNL     1      15.940   1.666  22.659  0.00  0.00    +0.093 A 
ATOM     10  C15 UNL     1      14.959   2.266  21.864  0.00  0.00    +0.053 A 
ATOM     11  N5  UNL     1      19.320   2.208  24.026  0.00  0.00    -0.310 N 
ATOM     12  C22 UNL     1      19.954   1.243  24.938  0.00  0.00    +0.113 C 
ATOM     13  C23 UNL     1      18.985   0.032  25.040  0.00  0.00    +0.078 C 
ENDROOT
BRANCH   1  17
ATOM     14  O1  UNL     1      11.861   3.669  22.419  0.00  0.00    -0.252 OA
ATOM     15  C1  UNL     1      11.774   3.182  21.260  0.00  0.00    +0.308 C 
ATOM     16  N1  UNL     1      10.696   3.564  20.392  0.00  0.00    -0.269 N 
ATOM     17  N2  UNL     1      12.753   2.242  20.793  0.00  0.00    -0.269 N 
ATOM     18  H1  UNL     1      10.506   2.958  19.562  0.00  0.00    +0.156 HD
ATOM     19  H6  UNL     1      12.808   2.074  19.763  0.00  0.00    +0.156 HD
BRANCH  16  20
ATOM     20  C2  UNL     1       9.786   4.644  20.662  0.00  0.00    +0.035 A 
ATOM     21  C3  UNL     1      10.096   5.973  20.313  0.00  0.00    +0.026 A 
ATOM     22  C4  UNL     1       9.182   7.000  20.564  0.00  0.00    +0.040 A 
ATOM     23  C5  UNL     1       7.946   6.712  21.152  0.00  0.00    +0.124 A 
ATOM     24  F1  UNL     1       7.061   7.710  21.393  0.00  0.00    -0.205 F 
ATOM     25  C6  UNL     1       7.621   5.393  21.480  0.00  0.00    +0.040 A 
ATOM     26  C7  UNL     1       8.533   4.363  21.229  0.00  0.00    +0.026 A 
ENDBRANCH  16  20
ENDBRANCH   1  17
BRANCH  11  27
ATOM     27  C16 UNL     1      19.733   3.600  23.820  0.00  0.00    +0.075 C 
ATOM     28  C17 UNL     1      20.661   4.058  24.958  0.00  0.00    +0.022 C 
ATOM     29  C18 UNL     1      21.106   5.511  24.751  0.00  0.00    +0.002 C 
ATOM     30  C19 UNL     1      21.781   5.693  23.385  0.00  0.00    +0.000 C 
ATOM     31  C20 UNL     1      20.860   5.232  22.248  0.00  0.00    +0.002 C 
ATOM     32  C21 UNL     1      20.420   3.778  22.452  0.00  0.00    +0.022 C 
ENDBRANCH  11  27
TORSDOF 3
ENDMDL
MODEL 7
REMARK VINA RESULT:    -7.288      4.269     10.174
REMARK INTER + INTRA:          -8.900
REMARK INTER:                  -8.455
REMARK INTRA:                  -0.444
REMARK UNBOUND:                -0.334
REMARK  Name = /home/qwerty/github/datacon2025hack/step_04_hit_selection/docking/ligands/lig_503.pdb
REMARK  3 active torsions:
REMARK  status: ('A' for Active; 'I' for Inactive)
REMARK    1  A    between atoms: N1_3  and  C2_4
REMARK    2  A    between atoms: N2_11  and  C8_12
REMARK    3  A    between atoms: N5_22  and  C16_23
REMARK                            x       y       z     vdW  Elec       q    Type
REMARK                         _______ _______ _______ _____ _____    ______ ____
ROOT
ATOM      1  C8  UNL     1      17.173  12.401  35.802  0.00  0.00    +0.037 A 
ATOM      2  C9  UNL     1      16.561  12.412  37.070  0.00  0.00    +0.025 A 
ATOM      3  C10 UNL     1      15.209  12.744  37.207  0.00  0.00    +0.032 A 
ATOM      4  C11 UNL     1      14.457  13.086  36.081  0.00  0.00    +0.090 A 
ATOM      5  N3  UNL     1      13.136  13.410  36.201  0.00  0.00    -0.247 NA
ATOM      6  C12 UNL     1      12.438  13.746  35.087  0.00  0.00    +0.083 A 
ATOM      7  C13 UNL     1      13.029  13.763  33.863  0.00  0.00    +0.144 A 
ATOM      8  N4  UNL     1      14.337  13.439  33.700  0.00  0.00    -0.229 NA
ATOM      9  C14 UNL     1      15.072  13.099  34.798  0.00  0.00    +0.093 A 
ATOM     10  C15 UNL     1      16.424  12.765  34.671  0.00  0.00    +0.053 A 
ATOM     11  N5  UNL     1      12.122  14.120  32.838  0.00  0.00    -0.310 N 
ATOM     12  C22 UNL     1      10.801  14.302  33.459  0.00  0.00    +0.113 C 
ATOM     13  C23 UNL     1      11.002  14.102  34.987  0.00  0.00    +0.078 C 
ENDROOT
BRANCH   1  17
ATOM     14  O1  UNL     1      18.368   9.774  35.943  0.00  0.00    -0.252 OA
ATOM     15  C1  UNL     1      19.124  10.776  35.832  0.00  0.00    +0.308 C 
ATOM     16  N1  UNL     1      20.550  10.618  35.887  0.00  0.00    -0.269 N 
ATOM     17  N2  UNL     1      18.568  12.086  35.647  0.00  0.00    -0.269 N 
ATOM     18  H1  UNL     1      21.125  11.475  36.058  0.00  0.00    +0.156 HD
ATOM     19  H6  UNL     1      19.205  12.835  35.291  0.00  0.00    +0.156 HD
BRANCH  16  20
ATOM     20  C2  UNL     1      21.225   9.349  35.855  0.00  0.00    +0.035 A 
ATOM     21  C3  UNL     1      21.974   8.942  34.735  0.00  0.00    +0.026 A 
ATOM     22  C4  UNL     1      22.641   7.713  34.740  0.00  0.00    +0.040 A 
ATOM     23  C5  UNL     1      22.578   6.886  35.865  0.00  0.00    +0.124 A 
ATOM     24  F1  UNL     1      23.227   5.695  35.867  0.00  0.00    -0.205 F 
ATOM     25  C6  UNL     1      21.855   7.292  36.990  0.00  0.00    +0.040 A 
ATOM     26  C7  UNL     1      21.189   8.520  36.988  0.00  0.00    +0.026 A 
ENDBRANCH  16  20
ENDBRANCH   1  17
BRANCH  11  27
ATOM     27  C16 UNL     1      12.388  13.964  31.404  0.00  0.00    +0.075 C 
ATOM     28  C17 UNL     1      11.070  13.782  30.631  0.00  0.00    +0.022 C 
ATOM     29  C18 UNL     1      11.333  13.624  29.128  0.00  0.00    +0.002 C 
ATOM     30  C19 UNL     1      12.132  14.814  28.580  0.00  0.00    +0.000 C 
ATOM     31  C20 UNL     1      13.445  15.002  29.351  0.00  0.00    +0.002 C 
ATOM     32  C21 UNL     1      13.180  15.165  30.853  0.00  0.00    +0.022 C 
ENDBRANCH  11  27
TORSDOF 3
ENDMDL
MODEL 8
REMARK VINA RESULT:    -7.250     10.967     14.782
REMARK INTER + INTRA:          -8.855
REMARK INTER:                  -8.232
REMARK INTRA:                  -0.623
REMARK UNBOUND:                -0.334
REMARK  Name = /home/qwerty/github/datacon2025hack/step_04_hit_selection/docking/ligands/lig_503.pdb
REMARK  3 active torsions:
REMARK  status: ('A' for Active; 'I' for Inactive)
REMARK    1  A    between atoms: N1_3  and  C2_4
REMARK    2  A    between atoms: N2_11  and  C8_12
REMARK    3  A    between atoms: N5_22  and  C16_23
REMARK                            x       y       z     vdW  Elec       q    Type
REMARK                         _______ _______ _______ _____ _____    ______ ____
ROOT
ATOM      1  C8  UNL     1      21.721   3.424  25.291  0.00  0.00    +0.037 A 
ATOM      2  C9  UNL     1      22.495   4.550  24.950  0.00  0.00    +0.025 A 
ATOM      3  C10 UNL     1      22.112   5.387  23.897  0.00  0.00    +0.032 A 
ATOM      4  C11 UNL     1      20.960   5.101  23.161  0.00  0.00    +0.090 A 
ATOM      5  N3  UNL     1      20.573   5.911  22.132  0.00  0.00    -0.247 NA
ATOM      6  C12 UNL     1      19.454   5.596  21.433  0.00  0.00    +0.083 A 
ATOM      7  C13 UNL     1      18.716   4.497  21.739  0.00  0.00    +0.144 A 
ATOM      8  N4  UNL     1      19.062   3.671  22.759  0.00  0.00    -0.229 NA
ATOM      9  C14 UNL     1      20.183   3.953  23.483  0.00  0.00    +0.093 A 
ATOM     10  C15 UNL     1      20.574   3.122  24.538  0.00  0.00    +0.053 A 
ATOM     11  N5  UNL     1      17.584   4.364  20.903  0.00  0.00    -0.310 N 
ATOM     12  C22 UNL     1      17.562   5.525  20.000  0.00  0.00    +0.113 C 
ATOM     13  C23 UNL     1      18.845   6.346  20.307  0.00  0.00    +0.078 C 
ENDROOT
BRANCH   1  17
ATOM     14  O1  UNL     1      20.685   3.412  27.989  0.00  0.00    -0.252 OA
ATOM     15  C1  UNL     1      21.645   2.645  27.706  0.00  0.00    +0.308 C 
ATOM     16  N1  UNL     1      22.278   1.868  28.734  0.00  0.00    -0.269 N 
ATOM     17  N2  UNL     1      22.115   2.540  26.355  0.00  0.00    -0.269 N 
ATOM     18  H1  UNL     1      23.217   1.460  28.522  0.00  0.00    +0.156 HD
ATOM     19  H6  UNL     1      22.710   1.715  26.114  0.00  0.00    +0.156 HD
BRANCH  16  20
ATOM     20  C2  UNL     1      21.768   1.727  30.071  0.00  0.00    +0.035 A 
ATOM     21  C3  UNL     1      22.104   2.640  31.088  0.00  0.00    +0.026 A 
ATOM     22  C4  UNL     1      21.573   2.494  32.373  0.00  0.00    +0.040 A 
ATOM     23  C5  UNL     1      20.692   1.445  32.653  0.00  0.00    +0.124 A 
ATOM     24  F1  UNL     1      20.178   1.306  33.899  0.00  0.00    -0.205 F 
ATOM     25  C6  UNL     1      20.335   0.547  31.643  0.00  0.00    +0.040 A 
ATOM     26  C7  UNL     1      20.863   0.691  30.357  0.00  0.00    +0.026 A 
ENDBRANCH  16  20
ENDBRANCH   1  17
BRANCH  11  27
ATOM     27  C16 UNL     1      16.468   3.447  21.158  0.00  0.00    +0.075 C 
ATOM     28  C17 UNL     1      15.124   4.173  20.967  0.00  0.00    +0.022 C 
ATOM     29  C18 UNL     1      13.947   3.224  21.224  0.00  0.00    +0.002 C 
ATOM     30  C19 UNL     1      14.034   1.982  20.327  0.00  0.00    +0.000 C 
ATOM     31  C20 UNL     1      15.374   1.259  20.511  0.00  0.00    +0.002 C 
ATOM     32  C21 UNL     1      16.550   2.207  20.248  0.00  0.00    +0.022 C 
ENDBRANCH  11  27
TORSDOF 3
ENDMDL
MODEL 9
REMARK VINA RESULT:    -7.226      9.944     13.724
REMARK INTER + INTRA:          -8.827
REMARK INTER:                  -8.190
REMARK INTRA:                  -0.637
REMARK UNBOUND:                -0.334
REMARK  Name = /home/qwerty/github/datacon2025hack/step_04_hit_selection/docking/ligands/lig_503.pdb
REMARK  3 active torsions:
REMARK  status: ('A' for Active; 'I' for Inactive)
REMARK    1  A    between atoms: N1_3  and  C2_4
REMARK    2  A    between atoms: N2_11  and  C8_12
REMARK    3  A    between atoms: N5_22  and  C16_23
REMARK                            x       y       z     vdW  Elec       q    Type
REMARK                         _______ _______ _______ _____ _____    ______ ____
ROOT
ATOM      1  C8  UNL     1      11.817  14.184  28.606  0.00  0.00    +0.037 A 
ATOM      2  C9  UNL     1      11.297  14.146  29.913  0.00  0.00    +0.025 A 
ATOM      3  C10 UNL     1      10.275  13.251  30.249  0.00  0.00    +0.032 A 
ATOM      4  C11 UNL     1       9.750  12.395  29.278  0.00  0.00    +0.090 A 
ATOM      5  N3  UNL     1       8.754  11.516  29.594  0.00  0.00    -0.247 NA
ATOM      6  C12 UNL     1       8.261  10.706  28.623  0.00  0.00    +0.083 A 
ATOM      7  C13 UNL     1       8.741  10.755  27.352  0.00  0.00    +0.144 A 
ATOM      8  N4  UNL     1       9.735  11.608  27.000  0.00  0.00    -0.229 NA
ATOM      9  C14 UNL     1      10.254  12.441  27.948  0.00  0.00    +0.093 A 
ATOM     10  C15 UNL     1      11.276  13.338  27.623  0.00  0.00    +0.053 A 
ATOM     11  N5  UNL     1       8.105   9.817  26.506  0.00  0.00    -0.310 N 
ATOM     12  C22 UNL     1       7.155   9.052  27.327  0.00  0.00    +0.113 C 
ATOM     13  C23 UNL     1       7.208   9.669  28.753  0.00  0.00    +0.078 C 
ENDROOT
BRANCH   1  17
ATOM     14  O1  UNL     1      14.664  13.818  28.951  0.00  0.00    -0.252 OA
ATOM     15  C1  UNL     1      14.244  14.929  28.528  0.00  0.00    +0.308 C 
ATOM     16  N1  UNL     1      15.155  16.021  28.332  0.00  0.00    -0.269 N 
ATOM     17  N2  UNL     1      12.851  15.114  28.238  0.00  0.00    -0.269 N 
ATOM     18  H1  UNL     1      14.748  16.979  28.242  0.00  0.00    +0.156 HD
ATOM     19  H6  UNL     1      12.587  15.934  27.645  0.00  0.00    +0.156 HD
BRANCH  16  20
ATOM     20  C2  UNL     1      16.587  15.898  28.383  0.00  0.00    +0.035 A 
ATOM     21  C3  UNL     1      17.337  15.553  27.243  0.00  0.00    +0.026 A 
ATOM     22  C4  UNL     1      18.730  15.465  27.314  0.00  0.00    +0.040 A 
ATOM     23  C5  UNL     1      19.389  15.732  28.518  0.00  0.00    +0.124 A 
ATOM     24  F1  UNL     1      20.740  15.647  28.584  0.00  0.00    -0.205 F 
ATOM     25  C6  UNL     1      18.654  16.096  29.649  0.00  0.00    +0.040 A 
ATOM     26  C7  UNL     1      17.261  16.187  29.580  0.00  0.00    +0.026 A 
ENDBRANCH  16  20
ENDBRANCH   1  17
BRANCH  11  27
ATOM     27  C16 UNL     1       8.585   9.448  25.170  0.00  0.00    +0.075 C 
ATOM     28  C17 UNL     1       8.573   7.918  25.001  0.00  0.00    +0.022 C 
ATOM     29  C18 UNL     1       9.067   7.517  23.605  0.00  0.00    +0.002 C 
ATOM     30  C19 UNL     1       8.235   8.197  22.509  0.00  0.00    +0.000 C 
ATOM     31  C20 UNL     1       8.241   9.722  22.678  0.00  0.00    +0.002 C 
ATOM     32  C21 UNL     1       7.742  10.123  24.071  0.00  0.00    +0.022 C 
ENDBRANCH  11  27
TORSDOF 3
ENDMDL
