REMARK  Name = /home/qwerty/github/datacon2025hack/step_04_hit_selection/docking/ligands/lig_561.pdb
REMARK  6 active torsions:
REMARK  status: ('A' for Active; 'I' for Inactive)
REMARK    1  A    between atoms: C1_1  and  C2_2
REMARK    2  A    between atoms: C4_4  and  C5_5
REMARK    3  A    between atoms: N1_7  and  C6_8
REMARK    4  A    between atoms: N2_13  and  C11_14
REMARK    5  A    between atoms: C11_14  and  C12_15
REMARK    6  A    between atoms: C16_22  and  C17_23
REMARK                            x       y       z     vdW  Elec       q    Type
REMARK                         _______ _______ _______ _____ _____    ______ ____
ROOT
ATOM      1  C6  UNL     1       0.474  -1.806   0.113  0.00  0.00    +0.080 C 
ATOM      2  C7  UNL     1      -0.072  -1.478  -1.277  0.00  0.00    +0.031 C 
ATOM      3  C8  UNL     1      -0.902  -1.157  -0.033  0.00  0.00    -0.007 C 
ATOM      4  C9  UNL     1      -1.082   0.342   0.287  0.00  0.00    +0.024 C 
ATOM      5  C10 UNL     1      -2.552   0.758   0.119  0.00  0.00    +0.085 C 
ATOM      6  N2  UNL     1      -3.197  -0.069  -0.920  0.00  0.00    -0.297 NA
ATOM      7  C14 UNL     1      -3.388  -1.470  -0.475  0.00  0.00    +0.085 C 
ATOM      8  C15 UNL     1      -2.121  -2.062   0.187  0.00  0.00    +0.024 C 
ENDROOT
BRANCH   1  11
ATOM      9  C5  UNL     1       2.853  -0.975  -0.085  0.00  0.00    +0.248 C 
ATOM     10  O1  UNL     1       3.087  -1.852  -0.960  0.00  0.00    -0.270 OA
ATOM     11  N1  UNL     1       1.555  -0.912   0.524  0.00  0.00    -0.308 N 
ATOM     12  H5  UNL     1       1.416  -0.328   1.377  0.00  0.00    +0.149 HD
BRANCH   9  16
ATOM     13  C1  UNL     1       5.362   2.921   1.910  0.00  0.00    +0.086 C 
ATOM     14  C2  UNL     1       5.021   1.674   1.167  0.00  0.00    +0.103 A 
ATOM     15  C3  UNL     1       3.772   1.089   1.113  0.00  0.00    +0.057 A 
ATOM     16  C4  UNL     1       3.916  -0.021   0.299  0.00  0.00    +0.077 A 
ATOM     17  C16 UNL     1       5.250  -0.031  -0.091  0.00  0.00    +0.114 A 
ATOM     18  C17 UNL     1       5.920  -1.026  -0.983  0.00  0.00    +0.087 C 
ATOM     19  O2  UNL     1       5.877   0.993   0.442  0.00  0.00    -0.464 OA
ENDBRANCH   9  16
ENDBRANCH   1  11
BRANCH   6  20
ATOM     20  C11 UNL     1      -4.437   0.533  -1.456  0.00  0.00    +0.142 C 
BRANCH  20  21
ATOM     21  C12 UNL     1      -5.508   0.739  -0.415  0.00  0.00    +0.086 A 
ATOM     22  C13 UNL     1      -5.606   1.894   0.362  0.00  0.00    +0.093 A 
ATOM     23  S1  UNL     1      -6.929   1.620   1.338  0.00  0.00    +0.028 S 
ATOM     24  N3  UNL     1      -7.338   0.113   0.780  0.00  0.00    -0.110 NA
ATOM     25  N4  UNL     1      -6.464  -0.210  -0.168  0.00  0.00    -0.145 NA
ENDBRANCH  20  21
ENDBRANCH   6  20
TORSDOF 4
