MODEL 1
REMARK VINA RESULT:    -7.268      0.000      0.000
REMARK INTER + INTRA:          -9.809
REMARK INTER:                  -8.542
REMARK INTRA:                  -1.267
REMARK UNBOUND:                -1.267
REMARK  Name = /home/qwerty/github/datacon2025hack/step_04_hit_selection/docking/ligands/lig_552.pdb
REMARK  3 active torsions:
REMARK  status: ('A' for Active; 'I' for Inactive)
REMARK    1  A    between atoms: N1_3  and  C2_4
REMARK    2  A    between atoms: C7_9  and  N2_10
REMARK    3  A    between atoms: N3_17  and  C12_18
REMARK                            x       y       z     vdW  Elec       q    Type
REMARK                         _______ _______ _______ _____ _____    ______ ____
ROOT
ATOM      1  O1  UNL     1      11.800   6.578  21.165  0.00  0.00    -0.252 OA
ATOM      2  C1  UNL     1      10.959   6.104  20.355  0.00  0.00    +0.308 C 
ATOM      3  N1  UNL     1       9.770   6.841  20.033  0.00  0.00    -0.268 N 
ATOM      4  N3  UNL     1      11.220   4.859  19.696  0.00  0.00    -0.269 N 
ATOM      5  H1  UNL     1       9.224   6.546  19.192  0.00  0.00    +0.156 HD
ATOM      6  H10 UNL     1      10.711   4.651  18.807  0.00  0.00    +0.156 HD
ENDROOT
BRANCH   4   7
ATOM      7  C12 UNL     1      12.287   3.986  20.088  0.00  0.00    +0.039 A 
ATOM      8  C13 UNL     1      13.566   4.147  19.521  0.00  0.00    +0.023 A 
ATOM      9  C14 UNL     1      14.615   3.278  19.868  0.00  0.00    +0.003 A 
ATOM     10  C15 UNL     1      14.392   2.225  20.767  0.00  0.00    +0.012 A 
ATOM     11  C16 UNL     1      13.113   2.069  21.300  0.00  0.00    +0.022 A 
ATOM     12  C17 UNL     1      12.082   2.920  20.981  0.00  0.00    -0.015 A 
ATOM     13  C18 UNL     1      10.793   2.480  21.615  0.00  0.00    +0.045 C 
ATOM     14  C19 UNL     1      11.157   1.203  22.408  0.00  0.00    +0.084 C 
ATOM     15  C20 UNL     1      12.618   1.028  22.164  0.00  0.00    +0.164 C 
ATOM     16  O4  UNL     1      13.316   0.092  22.636  0.00  0.00    -0.292 OA
ENDBRANCH   4   7
BRANCH   3  17
ATOM     17  C2  UNL     1       9.333   8.001  20.763  0.00  0.00    +0.057 A 
ATOM     18  C3  UNL     1       9.688   9.290  20.325  0.00  0.00    +0.025 A 
ATOM     19  C4  UNL     1       9.329  10.415  21.071  0.00  0.00    +0.002 A 
ATOM     20  C5  UNL     1       8.625  10.267  22.266  0.00  0.00    +0.002 A 
ATOM     21  C6  UNL     1       8.278   8.993  22.720  0.00  0.00    +0.026 A 
ATOM     22  C7  UNL     1       8.625   7.853  21.976  0.00  0.00    +0.065 A 
BRANCH  22  23
ATOM     23  N2  UNL     1       8.230   6.553  22.445  0.00  0.00    -0.209 N 
ATOM     24  C8  UNL     1       8.860   5.800  23.469  0.00  0.00    +0.227 C 
ATOM     25  O2  UNL     1       9.797   6.251  24.181  0.00  0.00    -0.275 OA
ATOM     26  C9  UNL     1       8.335   4.407  23.581  0.00  0.00    +0.106 C 
ATOM     27  C10 UNL     1       7.294   4.311  22.447  0.00  0.00    +0.106 C 
ATOM     28  C11 UNL     1       7.322   5.664  21.818  0.00  0.00    +0.227 C 
ATOM     29  O3  UNL     1       6.598   5.996  20.842  0.00  0.00    -0.275 OA
ENDBRANCH  22  23
ENDBRANCH   3  17
TORSDOF 3
ENDMDL
MODEL 2
REMARK VINA RESULT:    -6.957      0.994      2.110
REMARK INTER + INTRA:          -9.444
REMARK INTER:                  -8.439
REMARK INTRA:                  -1.005
REMARK UNBOUND:                -1.267
REMARK  Name = /home/qwerty/github/datacon2025hack/step_04_hit_selection/docking/ligands/lig_552.pdb
REMARK  3 active torsions:
REMARK  status: ('A' for Active; 'I' for Inactive)
REMARK    1  A    between atoms: N1_3  and  C2_4
REMARK    2  A    between atoms: C7_9  and  N2_10
REMARK    3  A    between atoms: N3_17  and  C12_18
REMARK                            x       y       z     vdW  Elec       q    Type
REMARK                         _______ _______ _______ _____ _____    ______ ____
ROOT
ATOM      1  O1  UNL     1      11.709   6.222  21.445  0.00  0.00    -0.252 OA
ATOM      2  C1  UNL     1      10.952   5.860  20.504  0.00  0.00    +0.308 C 
ATOM      3  N1  UNL     1       9.954   6.757  19.994  0.00  0.00    -0.268 N 
ATOM      4  N3  UNL     1      11.130   4.577  19.893  0.00  0.00    -0.269 N 
ATOM      5  H1  UNL     1       9.516   6.528  19.073  0.00  0.00    +0.156 HD
ATOM      6  H10 UNL     1      10.749   4.428  18.931  0.00  0.00    +0.156 HD
ENDROOT
BRANCH   4   7
ATOM      7  C12 UNL     1      11.977   3.565  20.451  0.00  0.00    +0.039 A 
ATOM      8  C13 UNL     1      11.435   2.602  21.325  0.00  0.00    +0.023 A 
ATOM      9  C14 UNL     1      12.260   1.624  21.908  0.00  0.00    +0.003 A 
ATOM     10  C15 UNL     1      13.636   1.611  21.644  0.00  0.00    +0.012 A 
ATOM     11  C16 UNL     1      14.157   2.586  20.794  0.00  0.00    +0.022 A 
ATOM     12  C17 UNL     1      13.361   3.540  20.205  0.00  0.00    -0.015 A 
ATOM     13  C18 UNL     1      14.177   4.522  19.414  0.00  0.00    +0.045 C 
ATOM     14  C19 UNL     1      15.639   4.045  19.579  0.00  0.00    +0.084 C 
ATOM     15  C20 UNL     1      15.532   2.833  20.442  0.00  0.00    +0.164 C 
ATOM     16  O4  UNL     1      16.509   2.134  20.820  0.00  0.00    -0.292 OA
ENDBRANCH   4   7
BRANCH   3  17
ATOM     17  C2  UNL     1       9.580   7.983  20.646  0.00  0.00    +0.057 A 
ATOM     18  C3  UNL     1      10.102   9.211  20.202  0.00  0.00    +0.025 A 
ATOM     19  C4  UNL     1       9.800  10.396  20.878  0.00  0.00    +0.002 A 
ATOM     20  C5  UNL     1       8.987  10.367  22.011  0.00  0.00    +0.002 A 
ATOM     21  C6  UNL     1       8.473   9.153  22.472  0.00  0.00    +0.026 A 
ATOM     22  C7  UNL     1       8.761   7.955  21.797  0.00  0.00    +0.065 A 
BRANCH  22  23
ATOM     23  N2  UNL     1       8.196   6.722  22.270  0.00  0.00    -0.209 N 
ATOM     24  C8  UNL     1       8.636   5.967  23.387  0.00  0.00    +0.227 C 
ATOM     25  O2  UNL     1       9.529   6.366  24.181  0.00  0.00    -0.275 OA
ATOM     26  C9  UNL     1       7.971   4.634  23.494  0.00  0.00    +0.106 C 
ATOM     27  C10 UNL     1       7.055   4.576  22.254  0.00  0.00    +0.106 C 
ATOM     28  C11 UNL     1       7.280   5.889  21.579  0.00  0.00    +0.227 C 
ATOM     29  O3  UNL     1       6.702   6.235  20.515  0.00  0.00    -0.275 OA
ENDBRANCH  22  23
ENDBRANCH   3  17
TORSDOF 3
ENDMDL
MODEL 3
REMARK VINA RESULT:    -6.796      3.688      8.817
REMARK INTER + INTRA:          -9.255
REMARK INTER:                  -8.036
REMARK INTRA:                  -1.219
REMARK UNBOUND:                -1.267
REMARK  Name = /home/qwerty/github/datacon2025hack/step_04_hit_selection/docking/ligands/lig_552.pdb
REMARK  3 active torsions:
REMARK  status: ('A' for Active; 'I' for Inactive)
REMARK    1  A    between atoms: N1_3  and  C2_4
REMARK    2  A    between atoms: C7_9  and  N2_10
REMARK    3  A    between atoms: N3_17  and  C12_18
REMARK                            x       y       z     vdW  Elec       q    Type
REMARK                         _______ _______ _______ _____ _____    ______ ____
ROOT
ATOM      1  O1  UNL     1      13.470   0.981  23.794  0.00  0.00    -0.252 OA
ATOM      2  C1  UNL     1      13.410   0.285  22.745  0.00  0.00    +0.308 C 
ATOM      3  N1  UNL     1      14.379  -0.745  22.503  0.00  0.00    -0.268 N 
ATOM      4  N3  UNL     1      12.331   0.472  21.821  0.00  0.00    -0.269 N 
ATOM      5  H1  UNL     1      14.167  -1.453  21.764  0.00  0.00    +0.156 HD
ATOM      6  H10 UNL     1      12.101  -0.305  21.162  0.00  0.00    +0.156 HD
ENDROOT
BRANCH   4   7
ATOM      7  C12 UNL     1      11.430   1.584  21.900  0.00  0.00    +0.039 A 
ATOM      8  C13 UNL     1      10.250   1.477  22.662  0.00  0.00    +0.023 A 
ATOM      9  C14 UNL     1       9.340   2.547  22.721  0.00  0.00    +0.003 A 
ATOM     10  C15 UNL     1       9.586   3.725  22.003  0.00  0.00    +0.012 A 
ATOM     11  C16 UNL     1      10.749   3.803  21.237  0.00  0.00    +0.022 A 
ATOM     12  C17 UNL     1      11.655   2.772  21.181  0.00  0.00    -0.015 A 
ATOM     13  C18 UNL     1      12.769   3.072  20.218  0.00  0.00    +0.045 C 
ATOM     14  C19 UNL     1      12.440   4.477  19.660  0.00  0.00    +0.084 C 
ATOM     15  C20 UNL     1      11.177   4.858  20.354  0.00  0.00    +0.164 C 
ATOM     16  O4  UNL     1      10.564   5.944  20.180  0.00  0.00    -0.292 OA
ENDBRANCH   4   7
BRANCH   3  17
ATOM     17  C2  UNL     1      15.588  -0.894  23.268  0.00  0.00    +0.057 A 
ATOM     18  C3  UNL     1      15.661  -1.844  24.302  0.00  0.00    +0.025 A 
ATOM     19  C4  UNL     1      16.807  -1.940  25.097  0.00  0.00    +0.002 A 
ATOM     20  C5  UNL     1      17.884  -1.083  24.877  0.00  0.00    +0.002 A 
ATOM     21  C6  UNL     1      17.820  -0.124  23.863  0.00  0.00    +0.026 A 
ATOM     22  C7  UNL     1      16.679  -0.022  23.052  0.00  0.00    +0.065 A 
BRANCH  22  23
ATOM     23  N2  UNL     1      16.646   0.950  21.993  0.00  0.00    -0.209 N 
ATOM     24  C8  UNL     1      16.484   2.351  22.141  0.00  0.00    +0.227 C 
ATOM     25  O2  UNL     1      16.463   2.930  23.260  0.00  0.00    -0.275 OA
ATOM     26  C9  UNL     1      16.290   3.060  20.841  0.00  0.00    +0.106 C 
ATOM     27  C10 UNL     1      16.291   1.925  19.797  0.00  0.00    +0.106 C 
ATOM     28  C11 UNL     1      16.503   0.690  20.608  0.00  0.00    +0.227 C 
ATOM     29  O3  UNL     1      16.571  -0.466  20.113  0.00  0.00    -0.275 OA
ENDBRANCH  22  23
ENDBRANCH   3  17
TORSDOF 3
ENDMDL
MODEL 4
REMARK VINA RESULT:    -6.684      4.308      8.352
REMARK INTER + INTRA:          -9.124
REMARK INTER:                  -8.003
REMARK INTRA:                  -1.121
REMARK UNBOUND:                -1.267
REMARK  Name = /home/qwerty/github/datacon2025hack/step_04_hit_selection/docking/ligands/lig_552.pdb
REMARK  3 active torsions:
REMARK  status: ('A' for Active; 'I' for Inactive)
REMARK    1  A    between atoms: N1_3  and  C2_4
REMARK    2  A    between atoms: C7_9  and  N2_10
REMARK    3  A    between atoms: N3_17  and  C12_18
REMARK                            x       y       z     vdW  Elec       q    Type
REMARK                         _______ _______ _______ _____ _____    ______ ____
ROOT
ATOM      1  O1  UNL     1       9.584   9.248  25.209  0.00  0.00    -0.252 OA
ATOM      2  C1  UNL     1       8.361   9.423  24.959  0.00  0.00    +0.308 C 
ATOM      3  N1  UNL     1       7.875   9.309  23.614  0.00  0.00    -0.268 N 
ATOM      4  N3  UNL     1       7.438   9.669  26.027  0.00  0.00    -0.269 N 
ATOM      5  H1  UNL     1       6.843   9.218  23.473  0.00  0.00    +0.156 HD
ATOM      6  H10 UNL     1       6.424   9.475  25.862  0.00  0.00    +0.156 HD
ENDROOT
BRANCH   4   7
ATOM      7  C12 UNL     1       7.863   9.968  27.362  0.00  0.00    +0.039 A 
ATOM      8  C13 UNL     1       7.838   8.961  28.347  0.00  0.00    +0.023 A 
ATOM      9  C14 UNL     1       8.219   9.248  29.670  0.00  0.00    +0.003 A 
ATOM     10  C15 UNL     1       8.606  10.547  30.028  0.00  0.00    +0.012 A 
ATOM     11  C16 UNL     1       8.603  11.534  29.044  0.00  0.00    +0.022 A 
ATOM     12  C17 UNL     1       8.247  11.266  27.743  0.00  0.00    -0.015 A 
ATOM     13  C18 UNL     1       8.239  12.515  26.909  0.00  0.00    +0.045 C 
ATOM     14  C19 UNL     1       8.657  13.643  27.881  0.00  0.00    +0.084 C 
ATOM     15  C20 UNL     1       8.872  12.943  29.180  0.00  0.00    +0.164 C 
ATOM     16  O4  UNL     1       9.225  13.508  30.248  0.00  0.00    -0.292 OA
ENDBRANCH   4   7
BRANCH   3  17
ATOM     17  C2  UNL     1       8.733   9.243  22.462  0.00  0.00    +0.057 A 
ATOM     18  C3  UNL     1       9.255  10.420  21.897  0.00  0.00    +0.025 A 
ATOM     19  C4  UNL     1      10.028  10.366  20.734  0.00  0.00    +0.002 A 
ATOM     20  C5  UNL     1      10.276   9.141  20.116  0.00  0.00    +0.002 A 
ATOM     21  C6  UNL     1       9.753   7.965  20.657  0.00  0.00    +0.026 A 
ATOM     22  C7  UNL     1       8.982   8.003  21.830  0.00  0.00    +0.065 A 
BRANCH  22  23
ATOM     23  N2  UNL     1       8.479   6.778  22.388  0.00  0.00    -0.209 N 
ATOM     24  C8  UNL     1       9.116   5.975  23.369  0.00  0.00    +0.227 C 
ATOM     25  O2  UNL     1      10.174   6.317  23.960  0.00  0.00    -0.275 OA
ATOM     26  C9  UNL     1       8.433   4.666  23.589  0.00  0.00    +0.106 C 
ATOM     27  C10 UNL     1       7.271   4.678  22.575  0.00  0.00    +0.106 C 
ATOM     28  C11 UNL     1       7.402   6.000  21.894  0.00  0.00    +0.227 C 
ATOM     29  O3  UNL     1       6.624   6.399  20.988  0.00  0.00    -0.275 OA
ENDBRANCH  22  23
ENDBRANCH   3  17
TORSDOF 3
ENDMDL
MODEL 5
REMARK VINA RESULT:    -6.620     11.343     13.866
REMARK INTER + INTRA:          -9.048
REMARK INTER:                  -7.908
REMARK INTRA:                  -1.140
REMARK UNBOUND:                -1.267
REMARK  Name = /home/qwerty/github/datacon2025hack/step_04_hit_selection/docking/ligands/lig_552.pdb
REMARK  3 active torsions:
REMARK  status: ('A' for Active; 'I' for Inactive)
REMARK    1  A    between atoms: N1_3  and  C2_4
REMARK    2  A    between atoms: C7_9  and  N2_10
REMARK    3  A    between atoms: N3_17  and  C12_18
REMARK                            x       y       z     vdW  Elec       q    Type
REMARK                         _______ _______ _______ _____ _____    ______ ____
ROOT
ATOM      1  O1  UNL     1      12.341  12.130  31.859  0.00  0.00    -0.252 OA
ATOM      2  C1  UNL     1      11.614  13.097  32.214  0.00  0.00    +0.308 C 
ATOM      3  N1  UNL     1      11.059  13.982  31.231  0.00  0.00    -0.268 N 
ATOM      4  N3  UNL     1      11.281  13.275  33.596  0.00  0.00    -0.269 N 
ATOM      5  H1  UNL     1      10.278  14.612  31.525  0.00  0.00    +0.156 HD
ATOM      6  H10 UNL     1      10.436  13.842  33.834  0.00  0.00    +0.156 HD
ENDROOT
BRANCH   4   7
ATOM      7  C12 UNL     1      11.929  12.547  34.647  0.00  0.00    +0.039 A 
ATOM      8  C13 UNL     1      11.282  11.443  35.236  0.00  0.00    +0.023 A 
ATOM      9  C14 UNL     1      11.890  10.740  36.292  0.00  0.00    +0.003 A 
ATOM     10  C15 UNL     1      13.137  11.146  36.785  0.00  0.00    +0.012 A 
ATOM     11  C16 UNL     1      13.751  12.254  36.203  0.00  0.00    +0.022 A 
ATOM     12  C17 UNL     1      13.177  12.943  35.161  0.00  0.00    -0.015 A 
ATOM     13  C18 UNL     1      13.994  14.144  34.781  0.00  0.00    +0.045 C 
ATOM     14  C19 UNL     1      15.204  14.121  35.745  0.00  0.00    +0.084 C 
ATOM     15  C20 UNL     1      14.976  12.910  36.585  0.00  0.00    +0.164 C 
ATOM     16  O4  UNL     1      15.741  12.524  37.509  0.00  0.00    -0.292 OA
ENDBRANCH   4   7
BRANCH   3  17
ATOM     17  C2  UNL     1      11.469  13.997  29.853  0.00  0.00    +0.057 A 
ATOM     18  C3  UNL     1      12.488  14.868  29.425  0.00  0.00    +0.025 A 
ATOM     19  C4  UNL     1      12.838  14.939  28.074  0.00  0.00    +0.002 A 
ATOM     20  C5  UNL     1      12.169  14.155  27.136  0.00  0.00    +0.002 A 
ATOM     21  C6  UNL     1      11.146  13.297  27.543  0.00  0.00    +0.026 A 
ATOM     22  C7  UNL     1      10.789  13.208  28.899  0.00  0.00    +0.065 A 
BRANCH  22  23
ATOM     23  N2  UNL     1       9.755  12.294  29.301  0.00  0.00    -0.209 N 
ATOM     24  C8  UNL     1       9.900  10.900  29.520  0.00  0.00    +0.227 C 
ATOM     25  O2  UNL     1      11.012  10.309  29.492  0.00  0.00    -0.275 OA
ATOM     26  C9  UNL     1       8.598  10.201  29.732  0.00  0.00    +0.106 C 
ATOM     27  C10 UNL     1       7.547  11.318  29.572  0.00  0.00    +0.106 C 
ATOM     28  C11 UNL     1       8.359  12.541  29.303  0.00  0.00    +0.227 C 
ATOM     29  O3  UNL     1       7.861  13.683  29.116  0.00  0.00    -0.275 OA
ENDBRANCH  22  23
ENDBRANCH   3  17
TORSDOF 3
ENDMDL
MODEL 6
REMARK VINA RESULT:    -6.520      3.823      7.449
REMARK INTER + INTRA:          -8.931
REMARK INTER:                  -7.714
REMARK INTRA:                  -1.217
REMARK UNBOUND:                -1.267
REMARK  Name = /home/qwerty/github/datacon2025hack/step_04_hit_selection/docking/ligands/lig_552.pdb
REMARK  3 active torsions:
REMARK  status: ('A' for Active; 'I' for Inactive)
REMARK    1  A    between atoms: N1_3  and  C2_4
REMARK    2  A    between atoms: C7_9  and  N2_10
REMARK    3  A    between atoms: N3_17  and  C12_18
REMARK                            x       y       z     vdW  Elec       q    Type
REMARK                         _______ _______ _______ _____ _____    ______ ____
ROOT
ATOM      1  O1  UNL     1       9.637   9.063  24.782  0.00  0.00    -0.252 OA
ATOM      2  C1  UNL     1       8.545   9.479  24.309  0.00  0.00    +0.308 C 
ATOM      3  N1  UNL     1       8.292   9.400  22.899  0.00  0.00    -0.268 N 
ATOM      4  N3  UNL     1       7.523   9.968  25.186  0.00  0.00    -0.269 N 
ATOM      5  H1  UNL     1       7.306   9.522  22.572  0.00  0.00    +0.156 HD
ATOM      6  H10 UNL     1       6.537   9.985  24.840  0.00  0.00    +0.156 HD
ENDROOT
BRANCH   4   7
ATOM      7  C12 UNL     1       7.760  10.240  26.573  0.00  0.00    +0.039 A 
ATOM      8  C13 UNL     1       8.273  11.492  26.963  0.00  0.00    +0.023 A 
ATOM      9  C14 UNL     1       8.543  11.763  28.317  0.00  0.00    +0.003 A 
ATOM     10  C15 UNL     1       8.325  10.778  29.291  0.00  0.00    +0.012 A 
ATOM     11  C16 UNL     1       7.837   9.538  28.881  0.00  0.00    +0.022 A 
ATOM     12  C17 UNL     1       7.555   9.264  27.564  0.00  0.00    -0.015 A 
ATOM     13  C18 UNL     1       7.133   7.834  27.380  0.00  0.00    +0.045 C 
ATOM     14  C19 UNL     1       7.180   7.222  28.800  0.00  0.00    +0.084 C 
ATOM     15  C20 UNL     1       7.617   8.352  29.669  0.00  0.00    +0.164 C 
ATOM     16  O4  UNL     1       7.784   8.274  30.915  0.00  0.00    -0.292 OA
ENDBRANCH   4   7
BRANCH   3  17
ATOM     17  C2  UNL     1       9.305   9.095  21.925  0.00  0.00    +0.057 A 
ATOM     18  C3  UNL     1      10.029  10.130  21.307  0.00  0.00    +0.025 A 
ATOM     19  C4  UNL     1      10.962   9.843  20.307  0.00  0.00    +0.002 A 
ATOM     20  C5  UNL     1      11.172   8.524  19.904  0.00  0.00    +0.002 A 
ATOM     21  C6  UNL     1      10.449   7.488  20.499  0.00  0.00    +0.026 A 
ATOM     22  C7  UNL     1       9.515   7.760  21.512  0.00  0.00    +0.065 A 
BRANCH  22  23
ATOM     23  N2  UNL     1       8.806   6.676  22.133  0.00  0.00    -0.209 N 
ATOM     24  C8  UNL     1       9.284   5.846  23.178  0.00  0.00    +0.227 C 
ATOM     25  O2  UNL     1      10.377   6.045  23.773  0.00  0.00    -0.275 OA
ATOM     26  C9  UNL     1       8.388   4.686  23.463  0.00  0.00    +0.106 C 
ATOM     27  C10 UNL     1       7.259   4.825  22.421  0.00  0.00    +0.106 C 
ATOM     28  C11 UNL     1       7.621   6.058  21.662  0.00  0.00    +0.227 C 
ATOM     29  O3  UNL     1       6.934   6.519  20.713  0.00  0.00    -0.275 OA
ENDBRANCH  22  23
ENDBRANCH   3  17
TORSDOF 3
ENDMDL
MODEL 7
REMARK VINA RESULT:    -6.503     14.245     16.446
REMARK INTER + INTRA:          -8.911
REMARK INTER:                  -7.500
REMARK INTRA:                  -1.411
REMARK UNBOUND:                -1.267
REMARK  Name = /home/qwerty/github/datacon2025hack/step_04_hit_selection/docking/ligands/lig_552.pdb
REMARK  3 active torsions:
REMARK  status: ('A' for Active; 'I' for Inactive)
REMARK    1  A    between atoms: N1_3  and  C2_4
REMARK    2  A    between atoms: C7_9  and  N2_10
REMARK    3  A    between atoms: N3_17  and  C12_18
REMARK                            x       y       z     vdW  Elec       q    Type
REMARK                         _______ _______ _______ _____ _____    ______ ____
ROOT
ATOM      1  O1  UNL     1      22.192   4.490  31.699  0.00  0.00    -0.252 OA
ATOM      2  C1  UNL     1      22.233   3.594  32.584  0.00  0.00    +0.308 C 
ATOM      3  N1  UNL     1      22.153   2.209  32.215  0.00  0.00    -0.268 N 
ATOM      4  N3  UNL     1      22.429   3.950  33.958  0.00  0.00    -0.269 N 
ATOM      5  H1  UNL     1      22.431   1.496  32.928  0.00  0.00    +0.156 HD
ATOM      6  H10 UNL     1      22.795   3.222  34.613  0.00  0.00    +0.156 HD
ENDROOT
BRANCH   4   7
ATOM      7  C12 UNL     1      22.344   5.302  34.425  0.00  0.00    +0.039 A 
ATOM      8  C13 UNL     1      23.518   6.064  34.582  0.00  0.00    +0.023 A 
ATOM      9  C14 UNL     1      23.454   7.381  35.072  0.00  0.00    +0.003 A 
ATOM     10  C15 UNL     1      22.221   7.941  35.433  0.00  0.00    +0.012 A 
ATOM     11  C16 UNL     1      21.073   7.163  35.291  0.00  0.00    +0.022 A 
ATOM     12  C17 UNL     1      21.118   5.880  34.800  0.00  0.00    -0.015 A 
ATOM     13  C18 UNL     1      19.763   5.231  34.835  0.00  0.00    +0.045 C 
ATOM     14  C19 UNL     1      18.824   6.310  35.425  0.00  0.00    +0.084 C 
ATOM     15  C20 UNL     1      19.719   7.477  35.670  0.00  0.00    +0.164 C 
ATOM     16  O4  UNL     1      19.344   8.578  36.153  0.00  0.00    -0.292 OA
ENDBRANCH   4   7
BRANCH   3  17
ATOM     17  C2  UNL     1      21.781   1.757  30.902  0.00  0.00    +0.057 A 
ATOM     18  C3  UNL     1      22.765   1.540  29.921  0.00  0.00    +0.025 A 
ATOM     19  C4  UNL     1      22.403   1.173  28.622  0.00  0.00    +0.002 A 
ATOM     20  C5  UNL     1      21.057   1.032  28.285  0.00  0.00    +0.002 A 
ATOM     21  C6  UNL     1      20.068   1.259  29.245  0.00  0.00    +0.026 A 
ATOM     22  C7  UNL     1      20.418   1.619  30.556  0.00  0.00    +0.065 A 
BRANCH  22  23
ATOM     23  N2  UNL     1      19.386   1.817  31.537  0.00  0.00    -0.209 N 
ATOM     24  C8  UNL     1      18.750   0.808  32.305  0.00  0.00    +0.227 C 
ATOM     25  O2  UNL     1      19.110  -0.399  32.293  0.00  0.00    -0.275 OA
ATOM     26  C9  UNL     1      17.583   1.314  33.086  0.00  0.00    +0.106 C 
ATOM     27  C10 UNL     1      17.489   2.802  32.691  0.00  0.00    +0.106 C 
ATOM     28  C11 UNL     1      18.623   2.994  31.740  0.00  0.00    +0.227 C 
ATOM     29  O3  UNL     1      18.894   4.093  31.188  0.00  0.00    -0.275 OA
ENDBRANCH  22  23
ENDBRANCH   3  17
TORSDOF 3
ENDMDL
MODEL 8
REMARK VINA RESULT:    -6.498      7.513     10.907
REMARK INTER + INTRA:          -8.904
REMARK INTER:                  -7.728
REMARK INTRA:                  -1.176
REMARK UNBOUND:                -1.267
REMARK  Name = /home/qwerty/github/datacon2025hack/step_04_hit_selection/docking/ligands/lig_552.pdb
REMARK  3 active torsions:
REMARK  status: ('A' for Active; 'I' for Inactive)
REMARK    1  A    between atoms: N1_3  and  C2_4
REMARK    2  A    between atoms: C7_9  and  N2_10
REMARK    3  A    between atoms: N3_17  and  C12_18
REMARK                            x       y       z     vdW  Elec       q    Type
REMARK                         _______ _______ _______ _____ _____    ______ ____
ROOT
ATOM      1  O1  UNL     1      17.922   1.424  26.264  0.00  0.00    -0.252 OA
ATOM      2  C1  UNL     1      18.370   0.379  25.720  0.00  0.00    +0.308 C 
ATOM      3  N1  UNL     1      17.468  -0.627  25.236  0.00  0.00    -0.268 N 
ATOM      4  N3  UNL     1      19.779   0.222  25.518  0.00  0.00    -0.269 N 
ATOM      5  H1  UNL     1      17.847  -1.351  24.584  0.00  0.00    +0.156 HD
ATOM      6  H10 UNL     1      20.105  -0.452  24.789  0.00  0.00    +0.156 HD
ENDROOT
BRANCH   4   7
ATOM      7  C12 UNL     1      20.748   1.089  26.122  0.00  0.00    +0.039 A 
ATOM      8  C13 UNL     1      21.246   0.795  27.406  0.00  0.00    +0.023 A 
ATOM      9  C14 UNL     1      22.171   1.654  28.027  0.00  0.00    +0.003 A 
ATOM     10  C15 UNL     1      22.590   2.826  27.382  0.00  0.00    +0.012 A 
ATOM     11  C16 UNL     1      22.068   3.110  26.120  0.00  0.00    +0.022 A 
ATOM     12  C17 UNL     1      21.175   2.273  25.495  0.00  0.00    -0.015 A 
ATOM     13  C18 UNL     1      20.700   2.852  24.193  0.00  0.00    +0.045 C 
ATOM     14  C19 UNL     1      21.439   4.205  24.069  0.00  0.00    +0.084 C 
ATOM     15  C20 UNL     1      22.273   4.279  25.303  0.00  0.00    +0.164 C 
ATOM     16  O4  UNL     1      23.037   5.236  25.595  0.00  0.00    -0.292 OA
ENDBRANCH   4   7
BRANCH   3  17
ATOM     17  C2  UNL     1      16.063  -0.649  25.544  0.00  0.00    +0.057 A 
ATOM     18  C3  UNL     1      15.609  -1.225  26.744  0.00  0.00    +0.025 A 
ATOM     19  C4  UNL     1      14.241  -1.316  27.013  0.00  0.00    +0.002 A 
ATOM     20  C5  UNL     1      13.313  -0.847  26.084  0.00  0.00    +0.002 A 
ATOM     21  C6  UNL     1      13.749  -0.286  24.882  0.00  0.00    +0.026 A 
ATOM     22  C7  UNL     1      15.121  -0.180  24.602  0.00  0.00    +0.065 A 
BRANCH  22  23
ATOM     23  N2  UNL     1      15.549   0.429  23.373  0.00  0.00    -0.209 N 
ATOM     24  C8  UNL     1      15.979  -0.247  22.202  0.00  0.00    +0.227 C 
ATOM     25  O2  UNL     1      15.925  -1.498  22.069  0.00  0.00    -0.275 OA
ATOM     26  C9  UNL     1      16.548   0.670  21.171  0.00  0.00    +0.106 C 
ATOM     27  C10 UNL     1      16.489   2.060  21.837  0.00  0.00    +0.106 C 
ATOM     28  C11 UNL     1      15.877   1.793  23.172  0.00  0.00    +0.227 C 
ATOM     29  O3  UNL     1      15.651   2.689  24.028  0.00  0.00    -0.275 OA
ENDBRANCH  22  23
ENDBRANCH   3  17
TORSDOF 3
ENDMDL
MODEL 9
REMARK VINA RESULT:    -6.469     14.356     16.840
REMARK INTER + INTRA:          -8.871
REMARK INTER:                  -7.785
REMARK INTRA:                  -1.086
REMARK UNBOUND:                -1.267
REMARK  Name = /home/qwerty/github/datacon2025hack/step_04_hit_selection/docking/ligands/lig_552.pdb
REMARK  3 active torsions:
REMARK  status: ('A' for Active; 'I' for Inactive)
REMARK    1  A    between atoms: N1_3  and  C2_4
REMARK    2  A    between atoms: C7_9  and  N2_10
REMARK    3  A    between atoms: N3_17  and  C12_18
REMARK                            x       y       z     vdW  Elec       q    Type
REMARK                         _______ _______ _______ _____ _____    ______ ____
ROOT
ATOM      1  O1  UNL     1      20.985   4.823  31.943  0.00  0.00    -0.252 OA
ATOM      2  C1  UNL     1      22.082   4.307  32.286  0.00  0.00    +0.308 C 
ATOM      3  N1  UNL     1      22.261   2.884  32.231  0.00  0.00    -0.268 N 
ATOM      4  N3  UNL     1      23.181   5.144  32.665  0.00  0.00    -0.269 N 
ATOM      5  H1  UNL     1      23.236   2.511  32.284  0.00  0.00    +0.156 HD
ATOM      6  H10 UNL     1      24.148   4.749  32.614  0.00  0.00    +0.156 HD
ENDROOT
BRANCH   4   7
ATOM      7  C12 UNL     1      23.034   6.548  32.912  0.00  0.00    +0.039 A 
ATOM      8  C13 UNL     1      23.571   7.478  32.001  0.00  0.00    +0.023 A 
ATOM      9  C14 UNL     1      23.465   8.859  32.246  0.00  0.00    +0.003 A 
ATOM     10  C15 UNL     1      22.844   9.324  33.413  0.00  0.00    +0.012 A 
ATOM     11  C16 UNL     1      22.339   8.387  34.313  0.00  0.00    +0.022 A 
ATOM     12  C17 UNL     1      22.421   7.034  34.081  0.00  0.00    -0.015 A 
ATOM     13  C18 UNL     1      21.888   6.244  35.241  0.00  0.00    +0.045 C 
ATOM     14  C19 UNL     1      21.435   7.309  36.269  0.00  0.00    +0.084 C 
ATOM     15  C20 UNL     1      21.743   8.609  35.606  0.00  0.00    +0.164 C 
ATOM     16  O4  UNL     1      21.526   9.741  36.114  0.00  0.00    -0.292 OA
ENDBRANCH   4   7
BRANCH   3  17
ATOM     17  C2  UNL     1      21.180   1.955  32.037  0.00  0.00    +0.057 A 
ATOM     18  C3  UNL     1      20.518   1.396  33.145  0.00  0.00    +0.025 A 
ATOM     19  C4  UNL     1      19.518   0.437  32.963  0.00  0.00    +0.002 A 
ATOM     20  C5  UNL     1      19.179   0.015  31.677  0.00  0.00    +0.002 A 
ATOM     21  C6  UNL     1      19.838   0.551  30.569  0.00  0.00    +0.026 A 
ATOM     22  C7  UNL     1      20.839   1.522  30.736  0.00  0.00    +0.065 A 
BRANCH  22  23
ATOM     23  N2  UNL     1      21.482   2.083  29.580  0.00  0.00    -0.209 N 
ATOM     24  C8  UNL     1      20.975   3.117  28.752  0.00  0.00    +0.227 C 
ATOM     25  O2  UNL     1      19.920   3.755  29.012  0.00  0.00    -0.275 OA
ATOM     26  C9  UNL     1      21.789   3.334  27.519  0.00  0.00    +0.106 C 
ATOM     27  C10 UNL     1      22.891   2.258  27.609  0.00  0.00    +0.106 C 
ATOM     28  C11 UNL     1      22.601   1.552  28.891  0.00  0.00    +0.227 C 
ATOM     29  O3  UNL     1      23.291   0.596  29.333  0.00  0.00    -0.275 OA
ENDBRANCH  22  23
ENDBRANCH   3  17
TORSDOF 3
ENDMDL
