MODEL 1
REMARK VINA RESULT:    -6.622      0.000      0.000
REMARK INTER + INTRA:         -10.224
REMARK INTER:                  -8.945
REMARK INTRA:                  -1.279
REMARK UNBOUND:                -1.279
REMARK  Name = /home/qwerty/github/datacon2025hack/step_04_hit_selection/docking/ligands/lig_354.pdb
REMARK  7 active torsions:
REMARK  status: ('A' for Active; 'I' for Inactive)
REMARK    1  A    between atoms: C1_1  and  C2_2
REMARK    2  A    between atoms: N1_10  and  C9_11
REMARK    3  A    between atoms: C9_11  and  C10_12
REMARK    4  A    between atoms: N2_14  and  C11_15
REMARK    5  A    between atoms: C16_21  and  O3_22
REMARK    6  A    between atoms: O3_22  and  C17_23
REMARK    7  A    between atoms: C17_23  and  C18_24
REMARK                            x       y       z     vdW  Elec       q    Type
REMARK                         _______ _______ _______ _____ _____    ______ ____
ROOT
ATOM      1  C10 UNL     1      18.095   0.775  26.937  0.00  0.00    +0.235 C 
ATOM      2  O2  UNL     1      17.978   1.403  28.025  0.00  0.00    -0.274 OA
ATOM      3  N2  UNL     1      19.384   0.601  26.330  0.00  0.00    -0.281 N 
ATOM      4  H9  UNL     1      19.493  -0.152  25.613  0.00  0.00    +0.155 HD
ENDROOT
BRANCH   3   5
ATOM      5  C11 UNL     1      20.567   1.275  26.787  0.00  0.00    +0.078 A 
ATOM      6  C12 UNL     1      21.337   0.681  27.797  0.00  0.00    +0.065 A 
ATOM      7  C13 UNL     1      22.495   1.305  28.265  0.00  0.00    +0.125 A 
ATOM      8  F1  UNL     1      23.224   0.729  29.251  0.00  0.00    -0.205 F 
ATOM      9  C14 UNL     1      22.899   2.523  27.719  0.00  0.00    +0.042 A 
ATOM     10  C15 UNL     1      22.159   3.112  26.691  0.00  0.00    +0.050 A 
ATOM     11  C16 UNL     1      20.996   2.485  26.198  0.00  0.00    +0.142 A 
BRANCH  11  12
ATOM     12  O3  UNL     1      20.256   3.018  25.128  0.00  0.00    -0.488 OA
BRANCH  12  13
ATOM     13  C17 UNL     1      20.697   3.115  23.773  0.00  0.00    +0.260 C 
BRANCH  13  14
ATOM     14  C18 UNL     1      20.330   4.478  23.163  0.00  0.00    +0.156 C 
ATOM     15  C19 UNL     1      21.095   5.620  23.828  0.00  0.00    +0.037 C 
ATOM     16  C20 UNL     1      22.156   5.951  22.826  0.00  0.00    +0.031 C 
ATOM     17  C21 UNL     1      21.530   5.510  21.523  0.00  0.00    +0.160 C 
ATOM     18  O4  UNL     1      20.628   4.460  21.783  0.00  0.00    -0.373 OA
ENDBRANCH  13  14
ENDBRANCH  12  13
ENDBRANCH  11  12
ENDBRANCH   3   5
BRANCH   1  19
ATOM     19  C9  UNL     1      16.874   0.222  26.271  0.00  0.00    +0.213 C 
BRANCH  19  29
ATOM     20  C1  UNL     1      16.668  -1.392  18.910  0.00  0.00    +0.044 C 
ATOM     21  C2  UNL     1      16.618  -0.622  20.197  0.00  0.00    -0.050 A 
ATOM     22  C3  UNL     1      16.245   0.745  20.195  0.00  0.00    +0.004 A 
ATOM     23  C4  UNL     1      16.210   1.480  21.393  0.00  0.00    +0.014 A 
ATOM     24  C5  UNL     1      16.568   0.830  22.570  0.00  0.00    +0.049 A 
ATOM     25  C6  UNL     1      16.941  -0.496  22.578  0.00  0.00    +0.050 A 
ATOM     26  C7  UNL     1      16.984  -1.249  21.407  0.00  0.00    +0.017 A 
ATOM     27  C8  UNL     1      17.214  -0.869  23.961  0.00  0.00    +0.254 C 
ATOM     28  O1  UNL     1      17.531  -2.022  24.361  0.00  0.00    -0.270 OA
ATOM     29  N1  UNL     1      17.037   0.260  24.820  0.00  0.00    -0.225 N 
ATOM     30  C22 UNL     1      16.606   1.308  23.948  0.00  0.00    +0.254 C 
ATOM     31  O5  UNL     1      16.288   2.466  24.330  0.00  0.00    -0.270 OA
ENDBRANCH  19  29
ENDBRANCH   1  19
TORSDOF 6
ENDMDL
MODEL 2
REMARK VINA RESULT:    -6.586      2.368      4.495
REMARK INTER + INTRA:         -10.174
REMARK INTER:                  -8.697
REMARK INTRA:                  -1.478
REMARK UNBOUND:                -1.279
REMARK  Name = /home/qwerty/github/datacon2025hack/step_04_hit_selection/docking/ligands/lig_354.pdb
REMARK  7 active torsions:
REMARK  status: ('A' for Active; 'I' for Inactive)
REMARK    1  A    between atoms: C1_1  and  C2_2
REMARK    2  A    between atoms: N1_10  and  C9_11
REMARK    3  A    between atoms: C9_11  and  C10_12
REMARK    4  A    between atoms: N2_14  and  C11_15
REMARK    5  A    between atoms: C16_21  and  O3_22
REMARK    6  A    between atoms: O3_22  and  C17_23
REMARK    7  A    between atoms: C17_23  and  C18_24
REMARK                            x       y       z     vdW  Elec       q    Type
REMARK                         _______ _______ _______ _____ _____    ______ ____
ROOT
ATOM      1  C10 UNL     1      18.072   1.014  27.021  0.00  0.00    +0.235 C 
ATOM      2  O2  UNL     1      17.992   2.100  27.660  0.00  0.00    -0.274 OA
ATOM      3  N2  UNL     1      19.282   0.659  26.334  0.00  0.00    -0.281 N 
ATOM      4  H9  UNL     1      19.424  -0.343  26.074  0.00  0.00    +0.155 HD
ENDROOT
BRANCH   3   5
ATOM      5  C11 UNL     1      20.380   1.566  26.155  0.00  0.00    +0.078 A 
ATOM      6  C12 UNL     1      20.358   2.451  25.067  0.00  0.00    +0.065 A 
ATOM      7  C13 UNL     1      21.406   3.350  24.862  0.00  0.00    +0.125 A 
ATOM      8  F1  UNL     1      21.381   4.190  23.800  0.00  0.00    -0.205 F 
ATOM      9  C14 UNL     1      22.482   3.379  25.750  0.00  0.00    +0.042 A 
ATOM     10  C15 UNL     1      22.504   2.524  26.854  0.00  0.00    +0.050 A 
ATOM     11  C16 UNL     1      21.444   1.622  27.082  0.00  0.00    +0.142 A 
BRANCH  11  12
ATOM     12  O3  UNL     1      21.403   0.787  28.212  0.00  0.00    -0.488 OA
BRANCH  12  13
ATOM     13  C17 UNL     1      22.326   0.808  29.303  0.00  0.00    +0.260 C 
BRANCH  13  14
ATOM     14  C18 UNL     1      21.640   1.256  30.604  0.00  0.00    +0.156 C 
ATOM     15  C19 UNL     1      22.097   2.647  31.036  0.00  0.00    +0.037 C 
ATOM     16  C20 UNL     1      20.949   3.523  30.645  0.00  0.00    +0.031 C 
ATOM     17  C21 UNL     1      19.778   2.569  30.681  0.00  0.00    +0.160 C 
ATOM     18  O4  UNL     1      20.241   1.268  30.406  0.00  0.00    -0.373 OA
ENDBRANCH  13  14
ENDBRANCH  12  13
ENDBRANCH  11  12
ENDBRANCH   3   5
BRANCH   1  19
ATOM     19  C9  UNL     1      16.888   0.100  26.971  0.00  0.00    +0.213 C 
BRANCH  19  29
ATOM     20  C1  UNL     1      15.302   0.835  19.639  0.00  0.00    +0.044 C 
ATOM     21  C2  UNL     1      15.832   0.281  20.928  0.00  0.00    -0.050 A 
ATOM     22  C3  UNL     1      16.662  -0.868  20.922  0.00  0.00    +0.004 A 
ATOM     23  C4  UNL     1      17.151  -1.405  22.125  0.00  0.00    +0.014 A 
ATOM     24  C5  UNL     1      16.782  -0.785  23.316  0.00  0.00    +0.049 A 
ATOM     25  C6  UNL     1      15.968   0.325  23.330  0.00  0.00    +0.050 A 
ATOM     26  C7  UNL     1      15.470   0.880  22.153  0.00  0.00    +0.017 A 
ATOM     27  C8  UNL     1      15.810   0.738  24.719  0.00  0.00    +0.254 C 
ATOM     28  O1  UNL     1      15.173   1.752  25.116  0.00  0.00    -0.270 OA
ATOM     29  N1  UNL     1      16.515  -0.157  25.583  0.00  0.00    -0.225 N 
ATOM     30  C22 UNL     1      17.142  -1.088  24.697  0.00  0.00    +0.254 C 
ATOM     31  O5  UNL     1      17.909  -2.016  25.068  0.00  0.00    -0.270 OA
ENDBRANCH  19  29
ENDBRANCH   1  19
TORSDOF 6
ENDMDL
MODEL 3
REMARK VINA RESULT:    -6.583      7.084     10.131
REMARK INTER + INTRA:         -10.171
REMARK INTER:                  -9.032
REMARK INTRA:                  -1.138
REMARK UNBOUND:                -1.279
REMARK  Name = /home/qwerty/github/datacon2025hack/step_04_hit_selection/docking/ligands/lig_354.pdb
REMARK  7 active torsions:
REMARK  status: ('A' for Active; 'I' for Inactive)
REMARK    1  A    between atoms: C1_1  and  C2_2
REMARK    2  A    between atoms: N1_10  and  C9_11
REMARK    3  A    between atoms: C9_11  and  C10_12
REMARK    4  A    between atoms: N2_14  and  C11_15
REMARK    5  A    between atoms: C16_21  and  O3_22
REMARK    6  A    between atoms: O3_22  and  C17_23
REMARK    7  A    between atoms: C17_23  and  C18_24
REMARK                            x       y       z     vdW  Elec       q    Type
REMARK                         _______ _______ _______ _____ _____    ______ ____
ROOT
ATOM      1  C10 UNL     1      20.958   6.529  31.867  0.00  0.00    +0.235 C 
ATOM      2  O2  UNL     1      20.449   7.617  32.255  0.00  0.00    -0.274 OA
ATOM      3  N2  UNL     1      22.382   6.390  31.750  0.00  0.00    -0.281 N 
ATOM      4  H9  UNL     1      22.781   5.424  31.718  0.00  0.00    +0.155 HD
ENDROOT
BRANCH   3   5
ATOM      5  C11 UNL     1      23.293   7.494  31.865  0.00  0.00    +0.078 A 
ATOM      6  C12 UNL     1      23.300   8.473  30.861  0.00  0.00    +0.065 A 
ATOM      7  C13 UNL     1      24.169   9.563  30.940  0.00  0.00    +0.125 A 
ATOM      8  F1  UNL     1      24.177  10.496  29.957  0.00  0.00    -0.205 F 
ATOM      9  C14 UNL     1      25.031   9.689  32.029  0.00  0.00    +0.042 A 
ATOM     10  C15 UNL     1      25.015   8.737  33.051  0.00  0.00    +0.050 A 
ATOM     11  C16 UNL     1      24.131   7.639  32.992  0.00  0.00    +0.142 A 
BRANCH  11  12
ATOM     12  O3  UNL     1      24.045   6.692  34.028  0.00  0.00    -0.488 OA
BRANCH  12  13
ATOM     13  C17 UNL     1      23.554   6.937  35.346  0.00  0.00    +0.260 C 
BRANCH  13  14
ATOM     14  C18 UNL     1      22.051   7.261  35.330  0.00  0.00    +0.156 C 
ATOM     15  C19 UNL     1      21.332   6.676  36.543  0.00  0.00    +0.037 C 
ATOM     16  C20 UNL     1      21.132   7.866  37.429  0.00  0.00    +0.031 C 
ATOM     17  C21 UNL     1      21.108   9.012  36.445  0.00  0.00    +0.160 C 
ATOM     18  O4  UNL     1      21.883   8.663  35.321  0.00  0.00    -0.373 OA
ENDBRANCH  13  14
ENDBRANCH  12  13
ENDBRANCH  11  12
ENDBRANCH   3   5
BRANCH   1  19
ATOM     19  C9  UNL     1      20.063   5.383  31.511  0.00  0.00    +0.213 C 
BRANCH  19  29
ATOM     20  C1  UNL     1      22.692  -1.135  28.786  0.00  0.00    +0.044 C 
ATOM     21  C2  UNL     1      22.229   0.289  28.858  0.00  0.00    -0.050 A 
ATOM     22  C3  UNL     1      22.101   1.058  27.674  0.00  0.00    +0.004 A 
ATOM     23  C4  UNL     1      21.684   2.399  27.731  0.00  0.00    +0.014 A 
ATOM     24  C5  UNL     1      21.417   2.948  28.982  0.00  0.00    +0.049 A 
ATOM     25  C6  UNL     1      21.548   2.210  30.137  0.00  0.00    +0.050 A 
ATOM     26  C7  UNL     1      21.959   0.879  30.111  0.00  0.00    +0.017 A 
ATOM     27  C8  UNL     1      21.163   3.066  31.254  0.00  0.00    +0.254 C 
ATOM     28  O1  UNL     1      21.107   2.714  32.463  0.00  0.00    -0.270 OA
ATOM     29  N1  UNL     1      20.818   4.370  30.779  0.00  0.00    -0.225 N 
ATOM     30  C22 UNL     1      20.952   4.279  29.358  0.00  0.00    +0.254 C 
ATOM     31  O5  UNL     1      20.683   5.214  28.557  0.00  0.00    -0.270 OA
ENDBRANCH  19  29
ENDBRANCH   1  19
TORSDOF 6
ENDMDL
MODEL 4
REMARK VINA RESULT:    -6.572     13.446     16.212
REMARK INTER + INTRA:         -10.155
REMARK INTER:                  -7.839
REMARK INTRA:                  -2.316
REMARK UNBOUND:                -1.279
REMARK  Name = /home/qwerty/github/datacon2025hack/step_04_hit_selection/docking/ligands/lig_354.pdb
REMARK  7 active torsions:
REMARK  status: ('A' for Active; 'I' for Inactive)
REMARK    1  A    between atoms: C1_1  and  C2_2
REMARK    2  A    between atoms: N1_10  and  C9_11
REMARK    3  A    between atoms: C9_11  and  C10_12
REMARK    4  A    between atoms: N2_14  and  C11_15
REMARK    5  A    between atoms: C16_21  and  O3_22
REMARK    6  A    between atoms: O3_22  and  C17_23
REMARK    7  A    between atoms: C17_23  and  C18_24
REMARK                            x       y       z     vdW  Elec       q    Type
REMARK                         _______ _______ _______ _____ _____    ______ ____
ROOT
ATOM      1  C10 UNL     1      17.907  12.459  36.237  0.00  0.00    +0.235 C 
ATOM      2  O2  UNL     1      17.628  12.419  35.007  0.00  0.00    -0.274 OA
ATOM      3  N2  UNL     1      16.919  12.861  37.197  0.00  0.00    -0.281 N 
ATOM      4  H9  UNL     1      17.074  12.607  38.199  0.00  0.00    +0.155 HD
ENDROOT
BRANCH   3   5
ATOM      5  C11 UNL     1      15.649  13.424  36.831  0.00  0.00    +0.078 A 
ATOM      6  C12 UNL     1      15.585  14.780  36.481  0.00  0.00    +0.065 A 
ATOM      7  C13 UNL     1      14.369  15.361  36.116  0.00  0.00    +0.125 A 
ATOM      8  F1  UNL     1      14.316  16.675  35.793  0.00  0.00    -0.205 F 
ATOM      9  C14 UNL     1      13.208  14.588  36.089  0.00  0.00    +0.042 A 
ATOM     10  C15 UNL     1      13.262  13.229  36.408  0.00  0.00    +0.050 A 
ATOM     11  C16 UNL     1      14.486  12.626  36.762  0.00  0.00    +0.142 A 
BRANCH  11  12
ATOM     12  O3  UNL     1      14.590  11.250  37.034  0.00  0.00    -0.488 OA
BRANCH  12  13
ATOM     13  C17 UNL     1      14.317  10.193  36.113  0.00  0.00    +0.260 C 
BRANCH  13  14
ATOM     14  C18 UNL     1      15.480   9.187  36.058  0.00  0.00    +0.156 C 
ATOM     15  C19 UNL     1      14.980   7.746  35.990  0.00  0.00    +0.037 C 
ATOM     16  C20 UNL     1      15.176   7.384  34.551  0.00  0.00    +0.031 C 
ATOM     17  C21 UNL     1      16.306   8.293  34.131  0.00  0.00    +0.160 C 
ATOM     18  O4  UNL     1      16.269   9.460  34.920  0.00  0.00    -0.373 OA
ENDBRANCH  13  14
ENDBRANCH  12  13
ENDBRANCH  11  12
ENDBRANCH   3   5
BRANCH   1  19
ATOM     19  C9  UNL     1      19.287  12.096  36.691  0.00  0.00    +0.213 C 
BRANCH  19  29
ATOM     20  C1  UNL     1      18.056   4.668  37.045  0.00  0.00    +0.044 C 
ATOM     21  C2  UNL     1      18.588   5.999  36.604  0.00  0.00    -0.050 A 
ATOM     22  C3  UNL     1      19.392   6.095  35.441  0.00  0.00    +0.004 A 
ATOM     23  C4  UNL     1      19.909   7.336  35.028  0.00  0.00    +0.014 A 
ATOM     24  C5  UNL     1      19.621   8.456  35.802  0.00  0.00    +0.049 A 
ATOM     25  C6  UNL     1      18.849   8.367  36.940  0.00  0.00    +0.050 A 
ATOM     26  C7  UNL     1      18.323   7.153  37.373  0.00  0.00    +0.017 A 
ATOM     27  C8  UNL     1      18.715   9.713  37.487  0.00  0.00    +0.254 C 
ATOM     28  O1  UNL     1      18.031  10.029  38.498  0.00  0.00    -0.270 OA
ATOM     29  N1  UNL     1      19.447  10.645  36.687  0.00  0.00    -0.225 N 
ATOM     30  C22 UNL     1      19.986   9.856  35.623  0.00  0.00    +0.254 C 
ATOM     31  O5  UNL     1      20.658  10.321  34.664  0.00  0.00    -0.270 OA
ENDBRANCH  19  29
ENDBRANCH   1  19
TORSDOF 6
ENDMDL
MODEL 5
REMARK VINA RESULT:    -6.523      2.970      7.993
REMARK INTER + INTRA:         -10.090
REMARK INTER:                  -8.398
REMARK INTRA:                  -1.692
REMARK UNBOUND:                -1.279
REMARK  Name = /home/qwerty/github/datacon2025hack/step_04_hit_selection/docking/ligands/lig_354.pdb
REMARK  7 active torsions:
REMARK  status: ('A' for Active; 'I' for Inactive)
REMARK    1  A    between atoms: C1_1  and  C2_2
REMARK    2  A    between atoms: N1_10  and  C9_11
REMARK    3  A    between atoms: C9_11  and  C10_12
REMARK    4  A    between atoms: N2_14  and  C11_15
REMARK    5  A    between atoms: C16_21  and  O3_22
REMARK    6  A    between atoms: O3_22  and  C17_23
REMARK    7  A    between atoms: C17_23  and  C18_24
REMARK                            x       y       z     vdW  Elec       q    Type
REMARK                         _______ _______ _______ _____ _____    ______ ____
ROOT
ATOM      1  C10 UNL     1      19.597   3.628  23.946  0.00  0.00    +0.235 C 
ATOM      2  O2  UNL     1      20.343   2.912  23.223  0.00  0.00    -0.274 OA
ATOM      3  N2  UNL     1      18.170   3.467  23.905  0.00  0.00    -0.281 N 
ATOM      4  H9  UNL     1      17.610   3.845  24.702  0.00  0.00    +0.155 HD
ENDROOT
BRANCH   3   5
ATOM      5  C11 UNL     1      17.497   2.656  22.930  0.00  0.00    +0.078 A 
ATOM      6  C12 UNL     1      17.172   3.220  21.688  0.00  0.00    +0.065 A 
ATOM      7  C13 UNL     1      16.520   2.462  20.714  0.00  0.00    +0.125 A 
ATOM      8  F1  UNL     1      16.199   3.021  19.523  0.00  0.00    -0.205 F 
ATOM      9  C14 UNL     1      16.197   1.129  20.970  0.00  0.00    +0.042 A 
ATOM     10  C15 UNL     1      16.540   0.546  22.191  0.00  0.00    +0.050 A 
ATOM     11  C16 UNL     1      17.213   1.295  23.178  0.00  0.00    +0.142 A 
BRANCH  11  12
ATOM     12  O3  UNL     1      17.625   0.727  24.397  0.00  0.00    -0.488 OA
BRANCH  12  13
ATOM     13  C17 UNL     1      16.802   0.525  25.546  0.00  0.00    +0.260 C 
BRANCH  13  14
ATOM     14  C18 UNL     1      16.767  -0.958  25.952  0.00  0.00    +0.156 C 
ATOM     15  C19 UNL     1      15.396  -1.582  25.698  0.00  0.00    +0.037 C 
ATOM     16  C20 UNL     1      15.610  -2.381  24.451  0.00  0.00    +0.031 C 
ATOM     17  C21 UNL     1      17.088  -2.687  24.502  0.00  0.00    +0.160 C 
ATOM     18  O4  UNL     1      17.742  -1.660  25.211  0.00  0.00    -0.373 OA
ENDBRANCH  13  14
ENDBRANCH  12  13
ENDBRANCH  11  12
ENDBRANCH   3   5
BRANCH   1  19
ATOM     19  C9  UNL     1      20.208   4.661  24.840  0.00  0.00    +0.213 C 
BRANCH  19  29
ATOM     20  C1  UNL     1      20.575   0.357  31.018  0.00  0.00    +0.044 C 
ATOM     21  C2  UNL     1      20.986   1.131  29.801  0.00  0.00    -0.050 A 
ATOM     22  C3  UNL     1      22.327   1.082  29.344  0.00  0.00    +0.004 A 
ATOM     23  C4  UNL     1      22.726   1.816  28.214  0.00  0.00    +0.014 A 
ATOM     24  C5  UNL     1      21.772   2.600  27.572  0.00  0.00    +0.049 A 
ATOM     25  C6  UNL     1      20.470   2.660  28.016  0.00  0.00    +0.050 A 
ATOM     26  C7  UNL     1      20.045   1.943  29.132  0.00  0.00    +0.017 A 
ATOM     27  C8  UNL     1      19.734   3.535  27.110  0.00  0.00    +0.254 C 
ATOM     28  O1  UNL     1      18.500   3.785  27.171  0.00  0.00    -0.270 OA
ATOM     29  N1  UNL     1      20.611   4.051  26.104  0.00  0.00    -0.225 N 
ATOM     30  C22 UNL     1      21.873   3.440  26.384  0.00  0.00    +0.254 C 
ATOM     31  O5  UNL     1      22.909   3.596  25.683  0.00  0.00    -0.270 OA
ENDBRANCH  19  29
ENDBRANCH   1  19
TORSDOF 6
ENDMDL
MODEL 6
REMARK VINA RESULT:    -6.516      7.094     11.363
REMARK INTER + INTRA:         -10.080
REMARK INTER:                  -8.639
REMARK INTRA:                  -1.441
REMARK UNBOUND:                -1.279
REMARK  Name = /home/qwerty/github/datacon2025hack/step_04_hit_selection/docking/ligands/lig_354.pdb
REMARK  7 active torsions:
REMARK  status: ('A' for Active; 'I' for Inactive)
REMARK    1  A    between atoms: C1_1  and  C2_2
REMARK    2  A    between atoms: N1_10  and  C9_11
REMARK    3  A    between atoms: C9_11  and  C10_12
REMARK    4  A    between atoms: N2_14  and  C11_15
REMARK    5  A    between atoms: C16_21  and  O3_22
REMARK    6  A    between atoms: O3_22  and  C17_23
REMARK    7  A    between atoms: C17_23  and  C18_24
REMARK                            x       y       z     vdW  Elec       q    Type
REMARK                         _______ _______ _______ _____ _____    ______ ____
ROOT
ATOM      1  C10 UNL     1      22.168   5.006  31.650  0.00  0.00    +0.235 C 
ATOM      2  O2  UNL     1      21.249   5.093  30.791  0.00  0.00    -0.274 OA
ATOM      3  N2  UNL     1      22.432   3.759  32.313  0.00  0.00    -0.281 N 
ATOM      4  H9  UNL     1      23.358   3.637  32.782  0.00  0.00    +0.155 HD
ENDROOT
BRANCH   3   5
ATOM      5  C11 UNL     1      21.573   2.614  32.205  0.00  0.00    +0.078 A 
ATOM      6  C12 UNL     1      20.533   2.457  33.133  0.00  0.00    +0.065 A 
ATOM      7  C13 UNL     1      19.676   1.358  33.058  0.00  0.00    +0.125 A 
ATOM      8  F1  UNL     1      18.683   1.209  33.968  0.00  0.00    -0.205 F 
ATOM      9  C14 UNL     1      19.844   0.411  32.048  0.00  0.00    +0.042 A 
ATOM     10  C15 UNL     1      20.857   0.569  31.099  0.00  0.00    +0.050 A 
ATOM     11  C16 UNL     1      21.720   1.683  31.154  0.00  0.00    +0.142 A 
BRANCH  11  12
ATOM     12  O3  UNL     1      22.715   1.906  30.185  0.00  0.00    -0.488 OA
BRANCH  12  13
ATOM     13  C17 UNL     1      22.926   1.125  29.008  0.00  0.00    +0.260 C 
BRANCH  13  14
ATOM     14  C18 UNL     1      22.347   1.823  27.766  0.00  0.00    +0.156 C 
ATOM     15  C19 UNL     1      21.134   1.079  27.211  0.00  0.00    +0.037 C 
ATOM     16  C20 UNL     1      19.980   1.911  27.676  0.00  0.00    +0.031 C 
ATOM     17  C21 UNL     1      20.596   3.282  27.819  0.00  0.00    +0.160 C 
ATOM     18  O4  UNL     1      21.966   3.138  28.112  0.00  0.00    -0.373 OA
ENDBRANCH  13  14
ENDBRANCH  12  13
ENDBRANCH  11  12
ENDBRANCH   3   5
BRANCH   1  19
ATOM     19  C9  UNL     1      22.979   6.218  31.989  0.00  0.00    +0.213 C 
BRANCH  19  29
ATOM     20  C1  UNL     1      18.847   8.220  37.967  0.00  0.00    +0.044 C 
ATOM     21  C2  UNL     1      20.001   7.753  37.132  0.00  0.00    -0.050 A 
ATOM     22  C3  UNL     1      21.192   7.297  37.753  0.00  0.00    +0.004 A 
ATOM     23  C4  UNL     1      22.286   6.873  36.980  0.00  0.00    +0.014 A 
ATOM     24  C5  UNL     1      22.169   6.928  35.594  0.00  0.00    +0.049 A 
ATOM     25  C6  UNL     1      21.019   7.379  34.984  0.00  0.00    +0.050 A 
ATOM     26  C7  UNL     1      19.919   7.805  35.724  0.00  0.00    +0.017 A 
ATOM     27  C8  UNL     1      21.215   7.276  33.542  0.00  0.00    +0.254 C 
ATOM     28  O1  UNL     1      20.354   7.549  32.663  0.00  0.00    -0.270 OA
ATOM     29  N1  UNL     1      22.527   6.782  33.257  0.00  0.00    -0.225 N 
ATOM     30  C22 UNL     1      23.104   6.541  34.543  0.00  0.00    +0.254 C 
ATOM     31  O5  UNL     1      24.248   6.045  34.727  0.00  0.00    -0.270 OA
ENDBRANCH  19  29
ENDBRANCH   1  19
TORSDOF 6
ENDMDL
MODEL 7
REMARK VINA RESULT:    -6.466      6.753      9.483
REMARK INTER + INTRA:         -10.013
REMARK INTER:                  -8.445
REMARK INTRA:                  -1.568
REMARK UNBOUND:                -1.279
REMARK  Name = /home/qwerty/github/datacon2025hack/step_04_hit_selection/docking/ligands/lig_354.pdb
REMARK  7 active torsions:
REMARK  status: ('A' for Active; 'I' for Inactive)
REMARK    1  A    between atoms: C1_1  and  C2_2
REMARK    2  A    between atoms: N1_10  and  C9_11
REMARK    3  A    between atoms: C9_11  and  C10_12
REMARK    4  A    between atoms: N2_14  and  C11_15
REMARK    5  A    between atoms: C16_21  and  O3_22
REMARK    6  A    between atoms: O3_22  and  C17_23
REMARK    7  A    between atoms: C17_23  and  C18_24
REMARK                            x       y       z     vdW  Elec       q    Type
REMARK                         _______ _______ _______ _____ _____    ______ ____
ROOT
ATOM      1  C10 UNL     1      19.019   2.974  33.911  0.00  0.00    +0.235 C 
ATOM      2  O2  UNL     1      19.786   2.399  34.731  0.00  0.00    -0.274 OA
ATOM      3  N2  UNL     1      18.913   4.406  33.891  0.00  0.00    -0.281 N 
ATOM      4  H9  UNL     1      18.517   4.858  33.036  0.00  0.00    +0.155 HD
ENDROOT
BRANCH   3   5
ATOM      5  C11 UNL     1      19.490   5.251  34.898  0.00  0.00    +0.078 A 
ATOM      6  C12 UNL     1      18.786   5.462  36.092  0.00  0.00    +0.065 A 
ATOM      7  C13 UNL     1      19.317   6.275  37.094  0.00  0.00    +0.125 A 
ATOM      8  F1  UNL     1      18.622   6.482  38.238  0.00  0.00    -0.205 F 
ATOM      9  C14 UNL     1      20.563   6.877  36.916  0.00  0.00    +0.042 A 
ATOM     10  C15 UNL     1      21.289   6.653  35.744  0.00  0.00    +0.050 A 
ATOM     11  C16 UNL     1      20.772   5.822  34.730  0.00  0.00    +0.142 A 
BRANCH  11  12
ATOM     12  O3  UNL     1      21.497   5.527  33.562  0.00  0.00    -0.488 OA
BRANCH  12  13
ATOM     13  C17 UNL     1      21.666   6.395  32.440  0.00  0.00    +0.260 C 
BRANCH  13  14
ATOM     14  C18 UNL     1      23.132   6.431  31.979  0.00  0.00    +0.156 C 
ATOM     15  C19 UNL     1      23.720   7.837  32.066  0.00  0.00    +0.037 C 
ATOM     16  C20 UNL     1      24.567   7.779  33.299  0.00  0.00    +0.031 C 
ATOM     17  C21 UNL     1      24.919   6.313  33.390  0.00  0.00    +0.160 C 
ATOM     18  O4  UNL     1      23.891   5.559  32.791  0.00  0.00    -0.373 OA
ENDBRANCH  13  14
ENDBRANCH  12  13
ENDBRANCH  11  12
ENDBRANCH   3   5
BRANCH   1  19
ATOM     19  C9  UNL     1      18.205   2.151  32.962  0.00  0.00    +0.213 C 
BRANCH  19  29
ATOM     20  C1  UNL     1      22.617   2.908  26.897  0.00  0.00    +0.044 C 
ATOM     21  C2  UNL     1      21.978   2.329  28.124  0.00  0.00    -0.050 A 
ATOM     22  C3  UNL     1      22.453   1.108  28.666  0.00  0.00    +0.004 A 
ATOM     23  C4  UNL     1      21.850   0.548  29.806  0.00  0.00    +0.014 A 
ATOM     24  C5  UNL     1      20.770   1.219  30.372  0.00  0.00    +0.049 A 
ATOM     25  C6  UNL     1      20.297   2.400  29.845  0.00  0.00    +0.050 A 
ATOM     26  C7  UNL     1      20.874   2.979  28.717  0.00  0.00    +0.017 A 
ATOM     27  C8  UNL     1      19.195   2.849  30.687  0.00  0.00    +0.254 C 
ATOM     28  O1  UNL     1      18.551   3.924  30.543  0.00  0.00    -0.270 OA
ATOM     29  N1  UNL     1      18.962   1.907  31.738  0.00  0.00    -0.225 N 
ATOM     30  C22 UNL     1      19.967   0.908  31.550  0.00  0.00    +0.254 C 
ATOM     31  O5  UNL     1      20.137  -0.081  32.312  0.00  0.00    -0.270 OA
ENDBRANCH  19  29
ENDBRANCH   1  19
TORSDOF 6
ENDMDL
MODEL 8
REMARK VINA RESULT:    -6.430      9.730     13.466
REMARK INTER + INTRA:          -9.964
REMARK INTER:                  -8.737
REMARK INTRA:                  -1.228
REMARK UNBOUND:                -1.279
REMARK  Name = /home/qwerty/github/datacon2025hack/step_04_hit_selection/docking/ligands/lig_354.pdb
REMARK  7 active torsions:
REMARK  status: ('A' for Active; 'I' for Inactive)
REMARK    1  A    between atoms: C1_1  and  C2_2
REMARK    2  A    between atoms: N1_10  and  C9_11
REMARK    3  A    between atoms: C9_11  and  C10_12
REMARK    4  A    between atoms: N2_14  and  C11_15
REMARK    5  A    between atoms: C16_21  and  O3_22
REMARK    6  A    between atoms: O3_22  and  C17_23
REMARK    7  A    between atoms: C17_23  and  C18_24
REMARK                            x       y       z     vdW  Elec       q    Type
REMARK                         _______ _______ _______ _____ _____    ______ ____
ROOT
ATOM      1  C10 UNL     1      20.249  12.934  19.151  0.00  0.00    +0.235 C 
ATOM      2  O2  UNL     1      19.161  12.683  19.740  0.00  0.00    -0.274 OA
ATOM      3  N2  UNL     1      21.053  11.870  18.619  0.00  0.00    -0.281 N 
ATOM      4  H9  UNL     1      21.771  12.109  17.898  0.00  0.00    +0.155 HD
ENDROOT
BRANCH   3   5
ATOM      5  C11 UNL     1      20.797  10.483  18.884  0.00  0.00    +0.078 A 
ATOM      6  C12 UNL     1      19.492   9.994  18.734  0.00  0.00    +0.065 A 
ATOM      7  C13 UNL     1      19.206   8.649  18.979  0.00  0.00    +0.125 A 
ATOM      8  F1  UNL     1      17.938   8.191  18.844  0.00  0.00    -0.205 F 
ATOM      9  C14 UNL     1      20.225   7.780  19.367  0.00  0.00    +0.042 A 
ATOM     10  C15 UNL     1      21.535   8.246  19.493  0.00  0.00    +0.050 A 
ATOM     11  C16 UNL     1      21.842   9.598  19.233  0.00  0.00    +0.142 A 
BRANCH  11  12
ATOM     12  O3  UNL     1      23.157  10.091  19.293  0.00  0.00    -0.488 OA
BRANCH  12  13
ATOM     13  C17 UNL     1      23.996  10.097  20.448  0.00  0.00    +0.260 C 
BRANCH  13  14
ATOM     14  C18 UNL     1      25.303   9.328  20.191  0.00  0.00    +0.156 C 
ATOM     15  C19 UNL     1      25.452   8.133  21.130  0.00  0.00    +0.037 C 
ATOM     16  C20 UNL     1      25.108   6.967  20.257  0.00  0.00    +0.031 C 
ATOM     17  C21 UNL     1      25.456   7.472  18.877  0.00  0.00    +0.160 C 
ATOM     18  O4  UNL     1      25.313   8.873  18.854  0.00  0.00    -0.373 OA
ENDBRANCH  13  14
ENDBRANCH  12  13
ENDBRANCH  11  12
ENDBRANCH   3   5
BRANCH   1  19
ATOM     19  C9  UNL     1      20.706  14.354  19.021  0.00  0.00    +0.213 C 
BRANCH  19  29
ATOM     20  C1  UNL     1      23.430  15.524  25.951  0.00  0.00    +0.044 C 
ATOM     21  C2  UNL     1      23.350  15.137  24.505  0.00  0.00    -0.050 A 
ATOM     22  C3  UNL     1      24.447  14.497  23.876  0.00  0.00    +0.004 A 
ATOM     23  C4  UNL     1      24.388  14.144  22.516  0.00  0.00    +0.014 A 
ATOM     24  C5  UNL     1      23.230  14.456  21.809  0.00  0.00    +0.049 A 
ATOM     25  C6  UNL     1      22.164  15.087  22.411  0.00  0.00    +0.050 A 
ATOM     26  C7  UNL     1      22.194  15.448  23.756  0.00  0.00    +0.017 A 
ATOM     27  C8  UNL     1      21.114  15.232  21.409  0.00  0.00    +0.254 C 
ATOM     28  O1  UNL     1      19.968  15.718  21.612  0.00  0.00    -0.270 OA
ATOM     29  N1  UNL     1      21.556  14.709  20.153  0.00  0.00    -0.225 N 
ATOM     30  C22 UNL     1      22.866  14.202  20.420  0.00  0.00    +0.254 C 
ATOM     31  O5  UNL     1      23.582  13.604  19.573  0.00  0.00    -0.270 OA
ENDBRANCH  19  29
ENDBRANCH   1  19
TORSDOF 6
ENDMDL
MODEL 9
REMARK VINA RESULT:    -6.418      2.250      4.336
REMARK INTER + INTRA:          -9.947
REMARK INTER:                  -8.612
REMARK INTRA:                  -1.336
REMARK UNBOUND:                -1.279
REMARK  Name = /home/qwerty/github/datacon2025hack/step_04_hit_selection/docking/ligands/lig_354.pdb
REMARK  7 active torsions:
REMARK  status: ('A' for Active; 'I' for Inactive)
REMARK    1  A    between atoms: C1_1  and  C2_2
REMARK    2  A    between atoms: N1_10  and  C9_11
REMARK    3  A    between atoms: C9_11  and  C10_12
REMARK    4  A    between atoms: N2_14  and  C11_15
REMARK    5  A    between atoms: C16_21  and  O3_22
REMARK    6  A    between atoms: O3_22  and  C17_23
REMARK    7  A    between atoms: C17_23  and  C18_24
REMARK                            x       y       z     vdW  Elec       q    Type
REMARK                         _______ _______ _______ _____ _____    ______ ____
ROOT
ATOM      1  C10 UNL     1      18.067   1.315  26.526  0.00  0.00    +0.235 C 
ATOM      2  O2  UNL     1      17.906   2.455  27.042  0.00  0.00    -0.274 OA
ATOM      3  N2  UNL     1      19.369   0.712  26.478  0.00  0.00    -0.281 N 
ATOM      4  H9  UNL     1      19.428  -0.321  26.325  0.00  0.00    +0.155 HD
ENDROOT
BRANCH   3   5
ATOM      5  C11 UNL     1      20.574   1.415  26.815  0.00  0.00    +0.078 A 
ATOM      6  C12 UNL     1      21.210   2.180  25.827  0.00  0.00    +0.065 A 
ATOM      7  C13 UNL     1      22.383   2.881  26.118  0.00  0.00    +0.125 A 
ATOM      8  F1  UNL     1      22.996   3.606  25.152  0.00  0.00    -0.205 F 
ATOM      9  C14 UNL     1      22.923   2.830  27.402  0.00  0.00    +0.042 A 
ATOM     10  C15 UNL     1      22.286   2.095  28.404  0.00  0.00    +0.050 A 
ATOM     11  C16 UNL     1      21.092   1.396  28.128  0.00  0.00    +0.142 A 
BRANCH  11  12
ATOM     12  O3  UNL     1      20.391   0.693  29.124  0.00  0.00    -0.488 OA
BRANCH  12  13
ATOM     13  C17 UNL     1      20.907   0.312  30.400  0.00  0.00    +0.260 C 
BRANCH  13  14
ATOM     14  C18 UNL     1      20.315   1.181  31.522  0.00  0.00    +0.156 C 
ATOM     15  C19 UNL     1      21.324   2.206  32.036  0.00  0.00    +0.037 C 
ATOM     16  C20 UNL     1      20.868   3.483  31.404  0.00  0.00    +0.031 C 
ATOM     17  C21 UNL     1      19.393   3.240  31.192  0.00  0.00    +0.160 C 
ATOM     18  O4  UNL     1      19.177   1.857  31.029  0.00  0.00    -0.373 OA
ENDBRANCH  13  14
ENDBRANCH  12  13
ENDBRANCH  11  12
ENDBRANCH   3   5
BRANCH   1  19
ATOM     19  C9  UNL     1      16.888   0.596  25.946  0.00  0.00    +0.213 C 
BRANCH  19  29
ATOM     20  C1  UNL     1      16.607  -1.592  18.738  0.00  0.00    +0.044 C 
ATOM     21  C2  UNL     1      16.531  -0.732  19.964  0.00  0.00    -0.050 A 
ATOM     22  C3  UNL     1      16.050   0.598  19.873  0.00  0.00    +0.004 A 
ATOM     23  C4  UNL     1      15.990   1.419  21.013  0.00  0.00    +0.014 A 
ATOM     24  C5  UNL     1      16.431   0.890  22.223  0.00  0.00    +0.049 A 
ATOM     25  C6  UNL     1      16.909  -0.398  22.317  0.00  0.00    +0.050 A 
ATOM     26  C7  UNL     1      16.979  -1.233  21.205  0.00  0.00    +0.017 A 
ATOM     27  C8  UNL     1      17.250  -0.641  23.714  0.00  0.00    +0.254 C 
ATOM     28  O1  UNL     1      17.669  -1.731  24.189  0.00  0.00    -0.270 OA
ATOM     29  N1  UNL     1      17.007   0.534  24.493  0.00  0.00    -0.225 N 
ATOM     30  C22 UNL     1      16.470   1.475  23.559  0.00  0.00    +0.254 C 
ATOM     31  O5  UNL     1      16.071   2.631  23.865  0.00  0.00    -0.270 OA
ENDBRANCH  19  29
ENDBRANCH   1  19
TORSDOF 6
ENDMDL
