MODEL 1
REMARK VINA RESULT:    -7.332      0.000      0.000
REMARK INTER + INTRA:         -10.216
REMARK INTER:                  -9.476
REMARK INTRA:                  -0.740
REMARK UNBOUND:                -0.740
REMARK  Name = /home/qwerty/github/datacon2025hack/step_04_hit_selection/docking/ligands/lig_631.pdb
REMARK  6 active torsions:
REMARK  status: ('A' for Active; 'I' for Inactive)
REMARK    1  A    between atoms: C1_1  and  N1_2
REMARK    2  A    between atoms: N2_5  and  C4_6
REMARK    3  A    between atoms: C7_9  and  C8_10
REMARK    4  A    between atoms: C8_10  and  N3_11
REMARK    5  A    between atoms: C13_18  and  N5_19
REMARK    6  A    between atoms: C14_20  and  C15_22
REMARK                            x       y       z     vdW  Elec       q    Type
REMARK                         _______ _______ _______ _____ _____    ______ ____
ROOT
ATOM      1  N3  UNL     1       9.189   9.206  24.354  0.00  0.00    -0.295 N 
ATOM      2  C9  UNL     1       8.701   9.799  23.139  0.00  0.00    +0.303 C 
ATOM      3  O1  UNL     1       7.642  10.484  23.165  0.00  0.00    -0.253 OA
ATOM      4  N4  UNL     1       9.403   9.619  21.889  0.00  0.00    -0.284 N 
ATOM      5  C10 UNL     1       9.039  10.435  20.721  0.00  0.00    +0.109 C 
ATOM      6  C11 UNL     1      10.283  10.776  19.891  0.00  0.00    +0.021 C 
ATOM      7  C12 UNL     1      11.193   9.561  19.605  0.00  0.00    +0.025 C 
ATOM      8  C13 UNL     1      10.697   8.255  20.256  0.00  0.00    +0.091 C 
ATOM      9  C21 UNL     1      10.352   8.505  21.735  0.00  0.00    +0.131 C 
ATOM     10  H12 UNL     1      10.084   8.670  24.355  0.00  0.00    +0.151 HD
ENDROOT
BRANCH   8  11
ATOM     11  N5  UNL     1      11.713   7.201  20.141  0.00  0.00    -0.307 N 
ATOM     12  C14 UNL     1      11.363   5.808  20.090  0.00  0.00    +0.244 C 
ATOM     13  O2  UNL     1      10.154   5.473  19.945  0.00  0.00    -0.270 OA
ATOM     14  H20 UNL     1      12.712   7.473  20.005  0.00  0.00    +0.149 HD
BRANCH  12  15
ATOM     15  C15 UNL     1      12.402   4.753  20.182  0.00  0.00    +0.037 A 
ATOM     16  C16 UNL     1      13.729   5.040  19.813  0.00  0.00    +0.014 A 
ATOM     17  C17 UNL     1      14.717   4.052  19.889  0.00  0.00    +0.021 A 
ATOM     18  C18 UNL     1      14.389   2.764  20.325  0.00  0.00    +0.041 A 
ATOM     19 CL1  UNL     1      15.628   1.523  20.414  0.00  0.00    -0.084 Cl
ATOM     20  C19 UNL     1      13.071   2.466  20.683  0.00  0.00    +0.021 A 
ATOM     21  C20 UNL     1      12.082   3.451  20.610  0.00  0.00    +0.014 A 
ENDBRANCH  12  15
ENDBRANCH   8  11
BRANCH   1  22
ATOM     22  C8  UNL     1       8.474   9.326  25.623  0.00  0.00    +0.142 C 
BRANCH  22  26
ATOM     23  C4  UNL     1      10.247  12.404  28.043  0.00  0.00    +0.121 A 
ATOM     24  C5  UNL     1       8.854  12.216  28.065  0.00  0.00    +0.044 A 
ATOM     25  C6  UNL     1       8.280  11.216  27.279  0.00  0.00    +0.010 A 
ATOM     26  C7  UNL     1       9.086  10.412  26.465  0.00  0.00    -0.012 A 
ATOM     27  C22 UNL     1      10.471  10.622  26.474  0.00  0.00    +0.118 A 
ATOM     28  N6  UNL     1      11.009  11.599  27.250  0.00  0.00    -0.240 NA
BRANCH  23  33
ATOM     29  C1  UNL     1      13.794  12.896  30.407  0.00  0.00    +0.105 C 
ATOM     30  N1  UNL     1      12.899  14.043  30.636  0.00  0.00    -0.302 NA
ATOM     31  C2  UNL     1      12.788  14.901  29.435  0.00  0.00    +0.103 C 
ATOM     32  C3  UNL     1      12.019  14.199  28.301  0.00  0.00    +0.122 C 
ATOM     33  N2  UNL     1      10.876  13.442  28.828  0.00  0.00    -0.313 N 
ATOM     34  C23 UNL     1      10.417  13.742  30.189  0.00  0.00    +0.122 C 
ATOM     35  C24 UNL     1      11.584  13.616  31.185  0.00  0.00    +0.103 C 
ENDBRANCH  23  33
ENDBRANCH  22  26
ENDBRANCH   1  22
TORSDOF 5
ENDMDL
MODEL 2
REMARK VINA RESULT:    -7.257      8.075     12.667
REMARK INTER + INTRA:         -10.119
REMARK INTER:                  -9.300
REMARK INTRA:                  -0.818
REMARK UNBOUND:                -0.740
REMARK  Name = /home/qwerty/github/datacon2025hack/step_04_hit_selection/docking/ligands/lig_631.pdb
REMARK  6 active torsions:
REMARK  status: ('A' for Active; 'I' for Inactive)
REMARK    1  A    between atoms: C1_1  and  N1_2
REMARK    2  A    between atoms: N2_5  and  C4_6
REMARK    3  A    between atoms: C7_9  and  C8_10
REMARK    4  A    between atoms: C8_10  and  N3_11
REMARK    5  A    between atoms: C13_18  and  N5_19
REMARK    6  A    between atoms: C14_20  and  C15_22
REMARK                            x       y       z     vdW  Elec       q    Type
REMARK                         _______ _______ _______ _____ _____    ______ ____
ROOT
ATOM      1  N3  UNL     1      18.075  -0.475  23.487  0.00  0.00    -0.295 N 
ATOM      2  C9  UNL     1      18.176  -0.063  24.860  0.00  0.00    +0.303 C 
ATOM      3  O1  UNL     1      17.338  -0.494  25.700  0.00  0.00    -0.253 OA
ATOM      4  N4  UNL     1      19.218   0.838  25.292  0.00  0.00    -0.284 N 
ATOM      5  C10 UNL     1      19.461   1.043  26.728  0.00  0.00    +0.109 C 
ATOM      6  C11 UNL     1      20.959   1.230  27.001  0.00  0.00    +0.021 C 
ATOM      7  C12 UNL     1      21.643   2.240  26.054  0.00  0.00    +0.025 C 
ATOM      8  C13 UNL     1      20.695   2.820  24.986  0.00  0.00    +0.091 C 
ATOM      9  C21 UNL     1      19.913   1.682  24.306  0.00  0.00    +0.131 C 
ATOM     10  H12 UNL     1      18.783  -0.159  22.789  0.00  0.00    +0.151 HD
ENDROOT
BRANCH   8  11
ATOM     11  N5  UNL     1      21.449   3.587  23.987  0.00  0.00    -0.307 N 
ATOM     12  C14 UNL     1      20.939   4.805  23.417  0.00  0.00    +0.244 C 
ATOM     13  O2  UNL     1      19.913   5.345  23.915  0.00  0.00    -0.270 OA
ATOM     14  H20 UNL     1      22.420   3.288  23.745  0.00  0.00    +0.149 HD
BRANCH  12  15
ATOM     15  C15 UNL     1      21.614   5.454  22.266  0.00  0.00    +0.037 A 
ATOM     16  C16 UNL     1      21.302   5.055  20.953  0.00  0.00    +0.014 A 
ATOM     17  C17 UNL     1      21.937   5.655  19.859  0.00  0.00    +0.021 A 
ATOM     18  C18 UNL     1      22.895   6.652  20.064  0.00  0.00    +0.041 A 
ATOM     19 CL1  UNL     1      23.694   7.400  18.692  0.00  0.00    -0.084 Cl
ATOM     20  C19 UNL     1      23.220   7.047  21.365  0.00  0.00    +0.021 A 
ATOM     21  C20 UNL     1      22.586   6.452  22.460  0.00  0.00    +0.014 A 
ENDBRANCH  12  15
ENDBRANCH   8  11
BRANCH   1  22
ATOM     22  C8  UNL     1      17.001  -1.343  23.009  0.00  0.00    +0.142 C 
BRANCH  22  26
ATOM     23  C4  UNL     1      13.548   0.970  21.914  0.00  0.00    +0.121 A 
ATOM     24  C5  UNL     1      14.693   0.997  21.097  0.00  0.00    +0.044 A 
ATOM     25  C6  UNL     1      15.813   0.245  21.454  0.00  0.00    +0.010 A 
ATOM     26  C7  UNL     1      15.800  -0.523  22.624  0.00  0.00    -0.012 A 
ATOM     27  C22 UNL     1      14.641  -0.533  23.410  0.00  0.00    +0.118 A 
ATOM     28  N6  UNL     1      13.560   0.204  23.041  0.00  0.00    -0.240 NA
BRANCH  23  33
ATOM     29  C1  UNL     1      11.931   4.829  22.863  0.00  0.00    +0.105 C 
ATOM     30  N1  UNL     1      10.901   4.030  22.177  0.00  0.00    -0.302 NA
ATOM     31  C2  UNL     1      11.245   3.796  20.757  0.00  0.00    +0.103 C 
ATOM     32  C3  UNL     1      12.447   2.845  20.609  0.00  0.00    +0.122 C 
ATOM     33  N2  UNL     1      12.376   1.750  21.587  0.00  0.00    -0.313 N 
ATOM     34  C23 UNL     1      11.093   1.499  22.252  0.00  0.00    +0.122 C 
ATOM     35  C24 UNL     1      10.579   2.786  22.924  0.00  0.00    +0.103 C 
ENDBRANCH  23  33
ENDBRANCH  22  26
ENDBRANCH   1  22
TORSDOF 5
ENDMDL
MODEL 3
REMARK VINA RESULT:    -7.136      6.916     13.161
REMARK INTER + INTRA:          -9.962
REMARK INTER:                  -9.258
REMARK INTRA:                  -0.704
REMARK UNBOUND:                -0.740
REMARK  Name = /home/qwerty/github/datacon2025hack/step_04_hit_selection/docking/ligands/lig_631.pdb
REMARK  6 active torsions:
REMARK  status: ('A' for Active; 'I' for Inactive)
REMARK    1  A    between atoms: C1_1  and  N1_2
REMARK    2  A    between atoms: N2_5  and  C4_6
REMARK    3  A    between atoms: C7_9  and  C8_10
REMARK    4  A    between atoms: C8_10  and  N3_11
REMARK    5  A    between atoms: C13_18  and  N5_19
REMARK    6  A    between atoms: C14_20  and  C15_22
REMARK                            x       y       z     vdW  Elec       q    Type
REMARK                         _______ _______ _______ _____ _____    ______ ____
ROOT
ATOM      1  N3  UNL     1      11.781  13.079  32.795  0.00  0.00    -0.295 N 
ATOM      2  C9  UNL     1      11.222  13.522  34.043  0.00  0.00    +0.303 C 
ATOM      3  O1  UNL     1      10.478  14.541  34.061  0.00  0.00    -0.253 OA
ATOM      4  N4  UNL     1      11.503  12.822  35.274  0.00  0.00    -0.284 N 
ATOM      5  C10 UNL     1      10.727  13.130  36.485  0.00  0.00    +0.109 C 
ATOM      6  C11 UNL     1      10.497  11.861  37.317  0.00  0.00    +0.021 C 
ATOM      7  C12 UNL     1      11.774  11.021  37.534  0.00  0.00    +0.025 C 
ATOM      8  C13 UNL     1      13.017  11.595  36.825  0.00  0.00    +0.091 C 
ATOM      9  C21 UNL     1      12.675  11.937  35.364  0.00  0.00    +0.131 C 
ATOM     10  H12 UNL     1      12.366  12.216  32.758  0.00  0.00    +0.151 HD
ENDROOT
BRANCH   8  11
ATOM     11  N5  UNL     1      14.130  10.640  36.879  0.00  0.00    -0.307 N 
ATOM     12  C14 UNL     1      15.478  11.056  37.159  0.00  0.00    +0.244 C 
ATOM     13  O2  UNL     1      15.697  12.232  37.562  0.00  0.00    -0.270 OA
ATOM     14  H20 UNL     1      13.927   9.619  36.795  0.00  0.00    +0.149 HD
BRANCH  12  15
ATOM     15  C15 UNL     1      16.617  10.118  37.006  0.00  0.00    +0.037 A 
ATOM     16  C16 UNL     1      16.901   9.557  35.747  0.00  0.00    +0.014 A 
ATOM     17  C17 UNL     1      17.968   8.666  35.591  0.00  0.00    +0.021 A 
ATOM     18  C18 UNL     1      18.758   8.317  36.692  0.00  0.00    +0.041 A 
ATOM     19 CL1  UNL     1      20.093   7.195  36.496  0.00  0.00    -0.084 Cl
ATOM     20  C19 UNL     1      18.477   8.860  37.949  0.00  0.00    +0.021 A 
ATOM     21  C20 UNL     1      17.412   9.753  38.108  0.00  0.00    +0.014 A 
ENDBRANCH  12  15
ENDBRANCH   8  11
BRANCH   1  22
ATOM     22  C8  UNL     1      11.559  13.796  31.541  0.00  0.00    +0.142 C 
BRANCH  22  26
ATOM     23  C4  UNL     1       9.152  11.423  28.886  0.00  0.00    +0.121 A 
ATOM     24  C5  UNL     1       9.147  12.824  28.767  0.00  0.00    +0.044 A 
ATOM     25  C6  UNL     1       9.929  13.593  29.630  0.00  0.00    +0.010 A 
ATOM     26  C7  UNL     1      10.707  12.973  30.615  0.00  0.00    -0.012 A 
ATOM     27  C22 UNL     1      10.694  11.575  30.700  0.00  0.00    +0.118 A 
ATOM     28  N6  UNL     1       9.927  10.845  29.846  0.00  0.00    -0.240 NA
BRANCH  23  33
ATOM     29  C1  UNL     1       9.372   7.536  27.083  0.00  0.00    +0.105 C 
ATOM     30  N1  UNL     1       8.250   8.281  26.488  0.00  0.00    -0.302 NA
ATOM     31  C2  UNL     1       7.154   8.490  27.460  0.00  0.00    +0.103 C 
ATOM     32  C3  UNL     1       7.556   9.478  28.570  0.00  0.00    +0.122 C 
ATOM     33  N2  UNL     1       8.340  10.594  28.024  0.00  0.00    -0.313 N 
ATOM     34  C23 UNL     1       8.307  10.818  26.574  0.00  0.00    +0.122 C 
ATOM     35  C24 UNL     1       8.706   9.532  25.827  0.00  0.00    +0.103 C 
ENDBRANCH  23  33
ENDBRANCH  22  26
ENDBRANCH   1  22
TORSDOF 5
ENDMDL
MODEL 4
REMARK VINA RESULT:    -6.994      7.231     11.897
REMARK INTER + INTRA:          -9.778
REMARK INTER:                  -9.057
REMARK INTRA:                  -0.722
REMARK UNBOUND:                -0.740
REMARK  Name = /home/qwerty/github/datacon2025hack/step_04_hit_selection/docking/ligands/lig_631.pdb
REMARK  6 active torsions:
REMARK  status: ('A' for Active; 'I' for Inactive)
REMARK    1  A    between atoms: C1_1  and  N1_2
REMARK    2  A    between atoms: N2_5  and  C4_6
REMARK    3  A    between atoms: C7_9  and  C8_10
REMARK    4  A    between atoms: C8_10  and  N3_11
REMARK    5  A    between atoms: C13_18  and  N5_19
REMARK    6  A    between atoms: C14_20  and  C15_22
REMARK                            x       y       z     vdW  Elec       q    Type
REMARK                         _______ _______ _______ _____ _____    ______ ____
ROOT
ATOM      1  N3  UNL     1      12.735  12.267  35.114  0.00  0.00    -0.295 N 
ATOM      2  C9  UNL     1      12.593  13.616  34.637  0.00  0.00    +0.303 C 
ATOM      3  O1  UNL     1      12.779  14.578  35.432  0.00  0.00    -0.253 OA
ATOM      4  N4  UNL     1      12.237  13.885  33.264  0.00  0.00    -0.284 N 
ATOM      5  C10 UNL     1      12.347  15.252  32.733  0.00  0.00    +0.109 C 
ATOM      6  C11 UNL     1      12.796  15.228  31.266  0.00  0.00    +0.021 C 
ATOM      7  C12 UNL     1      12.007  14.230  30.391  0.00  0.00    +0.025 C 
ATOM      8  C13 UNL     1      10.960  13.416  31.177  0.00  0.00    +0.091 C 
ATOM      9  C21 UNL     1      11.598  12.837  32.452  0.00  0.00    +0.131 C 
ATOM     10  H12 UNL     1      12.622  11.463  34.459  0.00  0.00    +0.151 HD
ENDROOT
BRANCH   8  11
ATOM     11  N5  UNL     1      10.412  12.338  30.345  0.00  0.00    -0.307 N 
ATOM     12  C14 UNL     1       9.165  12.475  29.644  0.00  0.00    +0.244 C 
ATOM     13  O2  UNL     1       8.611  13.608  29.572  0.00  0.00    -0.270 OA
ATOM     14  H20 UNL     1      10.984  11.478  30.189  0.00  0.00    +0.149 HD
BRANCH  12  15
ATOM     15  C15 UNL     1       8.526  11.312  28.980  0.00  0.00    +0.037 A 
ATOM     16  C16 UNL     1       7.873  10.334  29.752  0.00  0.00    +0.014 A 
ATOM     17  C17 UNL     1       7.273   9.229  29.138  0.00  0.00    +0.021 A 
ATOM     18  C18 UNL     1       7.326   9.083  27.749  0.00  0.00    +0.041 A 
ATOM     19 CL1  UNL     1       6.578   7.694  26.980  0.00  0.00    -0.084 Cl
ATOM     20  C19 UNL     1       7.983  10.044  26.974  0.00  0.00    +0.021 A 
ATOM     21  C20 UNL     1       8.581  11.151  27.583  0.00  0.00    +0.014 A 
ENDBRANCH  12  15
ENDBRANCH   8  11
BRANCH   1  22
ATOM     22  C8  UNL     1      13.042  11.961  36.509  0.00  0.00    +0.142 C 
BRANCH  22  26
ATOM     23  C4  UNL     1      17.049  10.439  36.830  0.00  0.00    +0.121 A 
ATOM     24  C5  UNL     1      16.024   9.607  36.347  0.00  0.00    +0.044 A 
ATOM     25  C6  UNL     1      14.723  10.103  36.244  0.00  0.00    +0.010 A 
ATOM     26  C7  UNL     1      14.440  11.418  36.628  0.00  0.00    -0.012 A 
ATOM     27  C22 UNL     1      15.487  12.222  37.097  0.00  0.00    +0.118 A 
ATOM     28  N6  UNL     1      16.747  11.719  37.186  0.00  0.00    -0.240 NA
BRANCH  23  33
ATOM     29  C1  UNL     1      19.652   7.655  34.859  0.00  0.00    +0.105 C 
ATOM     30  N1  UNL     1      20.263   8.068  36.134  0.00  0.00    -0.302 NA
ATOM     31  C2  UNL     1      20.682   9.486  36.109  0.00  0.00    +0.103 C 
ATOM     32  C3  UNL     1      19.473  10.439  36.085  0.00  0.00    +0.122 C 
ATOM     33  N2  UNL     1      18.404   9.955  36.970  0.00  0.00    -0.313 N 
ATOM     34  C23 UNL     1      18.743   8.939  37.973  0.00  0.00    +0.122 C 
ATOM     35  C24 UNL     1      19.402   7.723  37.297  0.00  0.00    +0.103 C 
ENDBRANCH  23  33
ENDBRANCH  22  26
ENDBRANCH   1  22
TORSDOF 5
ENDMDL
MODEL 5
REMARK VINA RESULT:    -6.785      7.800      9.709
REMARK INTER + INTRA:          -9.509
REMARK INTER:                  -8.888
REMARK INTRA:                  -0.622
REMARK UNBOUND:                -0.740
REMARK  Name = /home/qwerty/github/datacon2025hack/step_04_hit_selection/docking/ligands/lig_631.pdb
REMARK  6 active torsions:
REMARK  status: ('A' for Active; 'I' for Inactive)
REMARK    1  A    between atoms: C1_1  and  N1_2
REMARK    2  A    between atoms: N2_5  and  C4_6
REMARK    3  A    between atoms: C7_9  and  C8_10
REMARK    4  A    between atoms: C8_10  and  N3_11
REMARK    5  A    between atoms: C13_18  and  N5_19
REMARK    6  A    between atoms: C14_20  and  C15_22
REMARK                            x       y       z     vdW  Elec       q    Type
REMARK                         _______ _______ _______ _____ _____    ______ ____
ROOT
ATOM      1  N3  UNL     1      17.997  10.573  19.543  0.00  0.00    -0.295 N 
ATOM      2  C9  UNL     1      18.783   9.433  19.155  0.00  0.00    +0.303 C 
ATOM      3  O1  UNL     1      19.833   9.606  18.477  0.00  0.00    -0.253 OA
ATOM      4  N4  UNL     1      18.386   8.095  19.525  0.00  0.00    -0.284 N 
ATOM      5  C10 UNL     1      19.324   6.976  19.345  0.00  0.00    +0.109 C 
ATOM      6  C11 UNL     1      19.170   5.955  20.479  0.00  0.00    +0.021 C 
ATOM      7  C12 UNL     1      17.705   5.562  20.768  0.00  0.00    +0.025 C 
ATOM      8  C13 UNL     1      16.682   6.316  19.896  0.00  0.00    +0.091 C 
ATOM      9  C21 UNL     1      16.991   7.824  19.911  0.00  0.00    +0.131 C 
ATOM     10  H12 UNL     1      17.148  10.449  20.137  0.00  0.00    +0.151 HD
ENDROOT
BRANCH   8  11
ATOM     11  N5  UNL     1      15.316   6.071  20.373  0.00  0.00    -0.307 N 
ATOM     12  C14 UNL     1      14.576   4.897  19.996  0.00  0.00    +0.244 C 
ATOM     13  O2  UNL     1      15.166   3.952  19.403  0.00  0.00    -0.270 OA
ATOM     14  H20 UNL     1      14.898   6.724  21.073  0.00  0.00    +0.149 HD
BRANCH  12  15
ATOM     15  C15 UNL     1      13.133   4.765  20.315  0.00  0.00    +0.037 A 
ATOM     16  C16 UNL     1      12.589   3.498  20.598  0.00  0.00    +0.014 A 
ATOM     17  C17 UNL     1      11.228   3.360  20.893  0.00  0.00    +0.021 A 
ATOM     18  C18 UNL     1      10.394   4.483  20.900  0.00  0.00    +0.041 A 
ATOM     19 CL1  UNL     1       8.686   4.308  21.265  0.00  0.00    -0.084 Cl
ATOM     20  C19 UNL     1      10.923   5.743  20.609  0.00  0.00    +0.021 A 
ATOM     21  C20 UNL     1      12.283   5.886  20.316  0.00  0.00    +0.014 A 
ENDBRANCH  12  15
ENDBRANCH   8  11
BRANCH   1  22
ATOM     22  C8  UNL     1      18.343  11.934  19.140  0.00  0.00    +0.142 C 
BRANCH  22  26
ATOM     23  C4  UNL     1      20.601  13.864  22.247  0.00  0.00    +0.121 A 
ATOM     24  C5  UNL     1      20.610  14.396  20.945  0.00  0.00    +0.044 A 
ATOM     25  C6  UNL     1      19.877  13.768  19.938  0.00  0.00    +0.010 A 
ATOM     26  C7  UNL     1      19.144  12.610  20.219  0.00  0.00    -0.012 A 
ATOM     27  C22 UNL     1      19.150  12.112  21.529  0.00  0.00    +0.118 A 
ATOM     28  N6  UNL     1      19.869  12.742  22.495  0.00  0.00    -0.240 NA
BRANCH  23  33
ATOM     29  C1  UNL     1      24.725  14.452  23.272  0.00  0.00    +0.105 C 
ATOM     30  N1  UNL     1      23.886  14.803  24.430  0.00  0.00    -0.302 NA
ATOM     31  C2  UNL     1      23.092  16.027  24.182  0.00  0.00    +0.103 C 
ATOM     32  C3  UNL     1      21.992  15.791  23.131  0.00  0.00    +0.122 C 
ATOM     33  N2  UNL     1      21.363  14.475  23.312  0.00  0.00    -0.313 N 
ATOM     34  C23 UNL     1      21.566  13.782  24.589  0.00  0.00    +0.122 C 
ATOM     35  C24 UNL     1      23.070  13.648  24.890  0.00  0.00    +0.103 C 
ENDBRANCH  23  33
ENDBRANCH  22  26
ENDBRANCH   1  22
TORSDOF 5
ENDMDL
MODEL 6
REMARK VINA RESULT:    -6.653      7.131     11.517
REMARK INTER + INTRA:          -9.338
REMARK INTER:                  -8.601
REMARK INTRA:                  -0.736
REMARK UNBOUND:                -0.740
REMARK  Name = /home/qwerty/github/datacon2025hack/step_04_hit_selection/docking/ligands/lig_631.pdb
REMARK  6 active torsions:
REMARK  status: ('A' for Active; 'I' for Inactive)
REMARK    1  A    between atoms: C1_1  and  N1_2
REMARK    2  A    between atoms: N2_5  and  C4_6
REMARK    3  A    between atoms: C7_9  and  C8_10
REMARK    4  A    between atoms: C8_10  and  N3_11
REMARK    5  A    between atoms: C13_18  and  N5_19
REMARK    6  A    between atoms: C14_20  and  C15_22
REMARK                            x       y       z     vdW  Elec       q    Type
REMARK                         _______ _______ _______ _____ _____    ______ ____
ROOT
ATOM      1  N3  UNL     1      15.638   1.906  22.426  0.00  0.00    -0.295 N 
ATOM      2  C9  UNL     1      16.788   2.552  21.854  0.00  0.00    +0.303 C 
ATOM      3  O1  UNL     1      16.919   2.586  20.599  0.00  0.00    -0.253 OA
ATOM      4  N4  UNL     1      17.795   3.160  22.692  0.00  0.00    -0.284 N 
ATOM      5  C10 UNL     1      18.818   4.031  22.094  0.00  0.00    +0.109 C 
ATOM      6  C11 UNL     1      19.168   5.184  23.043  0.00  0.00    +0.021 C 
ATOM      7  C12 UNL     1      19.434   4.734  24.496  0.00  0.00    +0.025 C 
ATOM      8  C13 UNL     1      19.244   3.221  24.716  0.00  0.00    +0.091 C 
ATOM      9  C21 UNL     1      17.906   2.767  24.106  0.00  0.00    +0.131 C 
ATOM     10  H12 UNL     1      15.497   1.904  23.460  0.00  0.00    +0.151 HD
ENDROOT
BRANCH   8  11
ATOM     11  N5  UNL     1      19.287   2.897  26.148  0.00  0.00    -0.307 N 
ATOM     12  C14 UNL     1      20.314   2.062  26.709  0.00  0.00    +0.244 C 
ATOM     13  O2  UNL     1      21.318   1.751  26.009  0.00  0.00    -0.270 OA
ATOM     14  H20 UNL     1      18.603   3.354  26.792  0.00  0.00    +0.149 HD
BRANCH  12  15
ATOM     15  C15 UNL     1      20.228   1.578  28.109  0.00  0.00    +0.037 A 
ATOM     16  C16 UNL     1      18.981   1.524  28.759  0.00  0.00    +0.014 A 
ATOM     17  C17 UNL     1      18.888   1.076  30.081  0.00  0.00    +0.021 A 
ATOM     18  C18 UNL     1      20.038   0.685  30.772  0.00  0.00    +0.041 A 
ATOM     19 CL1  UNL     1      19.921   0.127  32.432  0.00  0.00    -0.084 Cl
ATOM     20  C19 UNL     1      21.283   0.745  30.139  0.00  0.00    +0.021 A 
ATOM     21  C20 UNL     1      21.380   1.191  28.817  0.00  0.00    +0.014 A 
ENDBRANCH  12  15
ENDBRANCH   8  11
BRANCH   1  22
ATOM     22  C8  UNL     1      14.630   1.237  21.608  0.00  0.00    +0.142 C 
BRANCH  22  26
ATOM     23  C4  UNL     1      11.235   3.799  20.988  0.00  0.00    +0.121 A 
ATOM     24  C5  UNL     1      12.365   3.927  20.161  0.00  0.00    +0.044 A 
ATOM     25  C6  UNL     1      13.466   3.094  20.364  0.00  0.00    +0.010 A 
ATOM     26  C7  UNL     1      13.450   2.144  21.391  0.00  0.00    -0.012 A 
ATOM     27  C22 UNL     1      12.305   2.039  22.191  0.00  0.00    +0.118 A 
ATOM     28  N6  UNL     1      11.242   2.858  21.973  0.00  0.00    -0.240 NA
BRANCH  23  33
ATOM     29  C1  UNL     1       9.529   7.241  22.899  0.00  0.00    +0.105 C 
ATOM     30  N1  UNL     1       8.555   6.688  21.943  0.00  0.00    -0.302 NA
ATOM     31  C2  UNL     1       8.999   6.870  20.543  0.00  0.00    +0.103 C 
ATOM     32  C3  UNL     1      10.214   5.986  20.209  0.00  0.00    +0.122 C 
ATOM     33  N2  UNL     1      10.083   4.656  20.822  0.00  0.00    -0.313 N 
ATOM     34  C23 UNL     1       8.758   4.241  21.295  0.00  0.00    +0.122 C 
ATOM     35  C24 UNL     1       8.191   5.285  22.274  0.00  0.00    +0.103 C 
ENDBRANCH  23  33
ENDBRANCH  22  26
ENDBRANCH   1  22
TORSDOF 5
ENDMDL
MODEL 7
REMARK VINA RESULT:    -6.613      9.955     12.609
REMARK INTER + INTRA:          -9.286
REMARK INTER:                  -8.767
REMARK INTRA:                  -0.520
REMARK UNBOUND:                -0.740
REMARK  Name = /home/qwerty/github/datacon2025hack/step_04_hit_selection/docking/ligands/lig_631.pdb
REMARK  6 active torsions:
REMARK  status: ('A' for Active; 'I' for Inactive)
REMARK    1  A    between atoms: C1_1  and  N1_2
REMARK    2  A    between atoms: N2_5  and  C4_6
REMARK    3  A    between atoms: C7_9  and  C8_10
REMARK    4  A    between atoms: C8_10  and  N3_11
REMARK    5  A    between atoms: C13_18  and  N5_19
REMARK    6  A    between atoms: C14_20  and  C15_22
REMARK                            x       y       z     vdW  Elec       q    Type
REMARK                         _______ _______ _______ _____ _____    ______ ____
ROOT
ATOM      1  N3  UNL     1      21.793   5.255  24.724  0.00  0.00    -0.295 N 
ATOM      2  C9  UNL     1      20.937   4.445  23.900  0.00  0.00    +0.303 C 
ATOM      3  O1  UNL     1      21.066   3.190  23.919  0.00  0.00    -0.253 OA
ATOM      4  N4  UNL     1      19.937   5.046  23.050  0.00  0.00    -0.284 N 
ATOM      5  C10 UNL     1      18.910   4.203  22.418  0.00  0.00    +0.109 C 
ATOM      6  C11 UNL     1      17.570   4.946  22.346  0.00  0.00    +0.021 C 
ATOM      7  C12 UNL     1      17.686   6.386  21.801  0.00  0.00    +0.025 C 
ATOM      8  C13 UNL     1      19.133   6.811  21.486  0.00  0.00    +0.091 C 
ATOM      9  C21 UNL     1      20.050   6.464  22.673  0.00  0.00    +0.131 C 
ATOM     10  H12 UNL     1      21.672   6.291  24.748  0.00  0.00    +0.151 HD
ENDROOT
BRANCH   8  11
ATOM     11  N5  UNL     1      19.199   8.248  21.194  0.00  0.00    -0.307 N 
ATOM     12  C14 UNL     1      19.227   8.751  19.847  0.00  0.00    +0.244 C 
ATOM     13  O2  UNL     1      18.994   7.968  18.884  0.00  0.00    -0.270 OA
ATOM     14  H20 UNL     1      19.138   8.929  21.983  0.00  0.00    +0.149 HD
BRANCH  12  15
ATOM     15  C15 UNL     1      19.501  10.182  19.569  0.00  0.00    +0.037 A 
ATOM     16  C16 UNL     1      20.720  10.563  18.978  0.00  0.00    +0.014 A 
ATOM     17  C17 UNL     1      20.993  11.910  18.718  0.00  0.00    +0.021 A 
ATOM     18  C18 UNL     1      20.056  12.893  19.051  0.00  0.00    +0.041 A 
ATOM     19 CL1  UNL     1      20.401  14.583  18.729  0.00  0.00    -0.084 Cl
ATOM     20  C19 UNL     1      18.847  12.526  19.649  0.00  0.00    +0.021 A 
ATOM     21  C20 UNL     1      18.569  11.181  19.909  0.00  0.00    +0.014 A 
ENDBRANCH  12  15
ENDBRANCH   8  11
BRANCH   1  22
ATOM     22  C8  UNL     1      22.849   4.681  25.554  0.00  0.00    +0.142 C 
BRANCH  22  26
ATOM     23  C4  UNL     1      21.149   2.470  28.825  0.00  0.00    +0.121 A 
ATOM     24  C5  UNL     1      22.012   1.825  27.921  0.00  0.00    +0.044 A 
ATOM     25  C6  UNL     1      22.563   2.545  26.860  0.00  0.00    +0.010 A 
ATOM     26  C7  UNL     1      22.251   3.898  26.690  0.00  0.00    -0.012 A 
ATOM     27  C22 UNL     1      21.393   4.511  27.614  0.00  0.00    +0.118 A 
ATOM     28  N6  UNL     1      20.871   3.791  28.642  0.00  0.00    -0.240 NA
BRANCH  23  33
ATOM     29  C1  UNL     1      18.631   3.343  32.187  0.00  0.00    +0.105 C 
ATOM     30  N1  UNL     1      19.167   1.979  32.327  0.00  0.00    -0.302 NA
ATOM     31  C2  UNL     1      18.606   1.062  31.310  0.00  0.00    +0.103 C 
ATOM     32  C3  UNL     1      19.119   1.393  29.897  0.00  0.00    +0.122 C 
ATOM     33  N2  UNL     1      20.544   1.754  29.924  0.00  0.00    -0.313 N 
ATOM     34  C23 UNL     1      21.323   1.401  31.116  0.00  0.00    +0.122 C 
ATOM     35  C24 UNL     1      20.653   1.972  32.380  0.00  0.00    +0.103 C 
ENDBRANCH  23  33
ENDBRANCH  22  26
ENDBRANCH   1  22
TORSDOF 5
ENDMDL
MODEL 8
REMARK VINA RESULT:    -6.572      7.516     11.407
REMARK INTER + INTRA:          -9.233
REMARK INTER:                  -8.513
REMARK INTRA:                  -0.720
REMARK UNBOUND:                -0.740
REMARK  Name = /home/qwerty/github/datacon2025hack/step_04_hit_selection/docking/ligands/lig_631.pdb
REMARK  6 active torsions:
REMARK  status: ('A' for Active; 'I' for Inactive)
REMARK    1  A    between atoms: C1_1  and  N1_2
REMARK    2  A    between atoms: N2_5  and  C4_6
REMARK    3  A    between atoms: C7_9  and  C8_10
REMARK    4  A    between atoms: C8_10  and  N3_11
REMARK    5  A    between atoms: C13_18  and  N5_19
REMARK    6  A    between atoms: C14_20  and  C15_22
REMARK                            x       y       z     vdW  Elec       q    Type
REMARK                         _______ _______ _______ _____ _____    ______ ____
ROOT
ATOM      1  N3  UNL     1      11.822   3.350  20.556  0.00  0.00    -0.295 N 
ATOM      2  C9  UNL     1      11.071   4.576  20.531  0.00  0.00    +0.303 C 
ATOM      3  O1  UNL     1      11.512   5.559  19.873  0.00  0.00    -0.253 OA
ATOM      4  N4  UNL     1       9.825   4.700  21.249  0.00  0.00    -0.284 N 
ATOM      5  C10 UNL     1       8.952   5.858  21.006  0.00  0.00    +0.109 C 
ATOM      6  C11 UNL     1       7.475   5.449  21.087  0.00  0.00    +0.021 C 
ATOM      7  C12 UNL     1       7.134   4.599  22.331  0.00  0.00    +0.025 C 
ATOM      8  C13 UNL     1       8.355   4.286  23.216  0.00  0.00    +0.091 C 
ATOM      9  C21 UNL     1       9.514   3.769  22.346  0.00  0.00    +0.131 C 
ATOM     10  H12 UNL     1      11.451   2.517  21.063  0.00  0.00    +0.151 HD
ENDROOT
BRANCH   8  11
ATOM     11  N5  UNL     1       8.009   3.296  24.244  0.00  0.00    -0.307 N 
ATOM     12  C14 UNL     1       7.940   3.638  25.639  0.00  0.00    +0.244 C 
ATOM     13  O2  UNL     1       7.985   4.850  25.987  0.00  0.00    -0.270 OA
ATOM     14  H20 UNL     1       7.721   2.337  23.947  0.00  0.00    +0.149 HD
BRANCH  12  15
ATOM     15  C15 UNL     1       7.794   2.589  26.678  0.00  0.00    +0.037 A 
ATOM     16  C16 UNL     1       8.318   1.302  26.457  0.00  0.00    +0.014 A 
ATOM     17  C17 UNL     1       8.180   0.303  27.427  0.00  0.00    +0.021 A 
ATOM     18  C18 UNL     1       7.511   0.575  28.624  0.00  0.00    +0.041 A 
ATOM     19 CL1  UNL     1       7.334  -0.680  29.838  0.00  0.00    -0.084 Cl
ATOM     20  C19 UNL     1       6.977   1.847  28.849  0.00  0.00    +0.021 A 
ATOM     21  C20 UNL     1       7.115   2.849  27.883  0.00  0.00    +0.014 A 
ENDBRANCH  12  15
ENDBRANCH   8  11
BRANCH   1  22
ATOM     22  C8  UNL     1      13.112   3.210  19.884  0.00  0.00    +0.142 C 
BRANCH  22  26
ATOM     23  C4  UNL     1      15.702   0.649  22.167  0.00  0.00    +0.121 A 
ATOM     24  C5  UNL     1      15.832   0.704  20.767  0.00  0.00    +0.044 A 
ATOM     25  C6  UNL     1      14.990   1.536  20.028  0.00  0.00    +0.010 A 
ATOM     26  C7  UNL     1      14.015   2.304  20.675  0.00  0.00    -0.012 A 
ATOM     27  C22 UNL     1      13.919   2.230  22.070  0.00  0.00    +0.118 A 
ATOM     28  N6  UNL     1      14.752   1.416  22.771  0.00  0.00    -0.240 NA
BRANCH  23  33
ATOM     29  C1  UNL     1      15.207  -2.497  25.042  0.00  0.00    +0.105 C 
ATOM     30  N1  UNL     1      16.617  -2.070  25.032  0.00  0.00    -0.302 NA
ATOM     31  C2  UNL     1      17.292  -2.439  23.768  0.00  0.00    +0.103 C 
ATOM     32  C3  UNL     1      16.767  -1.615  22.578  0.00  0.00    +0.122 C 
ATOM     33  N2  UNL     1      16.542  -0.215  22.964  0.00  0.00    -0.313 N 
ATOM     34  C23 UNL     1      17.161   0.268  24.203  0.00  0.00    +0.122 C 
ATOM     35  C24 UNL     1      16.761  -0.633  25.386  0.00  0.00    +0.103 C 
ENDBRANCH  23  33
ENDBRANCH  22  26
ENDBRANCH   1  22
TORSDOF 5
ENDMDL
MODEL 9
REMARK VINA RESULT:    -6.544     11.331     13.518
REMARK INTER + INTRA:          -9.197
REMARK INTER:                  -8.514
REMARK INTRA:                  -0.683
REMARK UNBOUND:                -0.740
REMARK  Name = /home/qwerty/github/datacon2025hack/step_04_hit_selection/docking/ligands/lig_631.pdb
REMARK  6 active torsions:
REMARK  status: ('A' for Active; 'I' for Inactive)
REMARK    1  A    between atoms: C1_1  and  N1_2
REMARK    2  A    between atoms: N2_5  and  C4_6
REMARK    3  A    between atoms: C7_9  and  C8_10
REMARK    4  A    between atoms: C8_10  and  N3_11
REMARK    5  A    between atoms: C13_18  and  N5_19
REMARK    6  A    between atoms: C14_20  and  C15_22
REMARK                            x       y       z     vdW  Elec       q    Type
REMARK                         _______ _______ _______ _____ _____    ______ ____
ROOT
ATOM      1  N3  UNL     1      22.489   7.086  32.550  0.00  0.00    -0.295 N 
ATOM      2  C9  UNL     1      22.692   5.744  33.024  0.00  0.00    +0.303 C 
ATOM      3  O1  UNL     1      23.329   5.556  34.098  0.00  0.00    -0.253 OA
ATOM      4  N4  UNL     1      22.182   4.610  32.290  0.00  0.00    -0.284 N 
ATOM      5  C10 UNL     1      22.174   3.278  32.912  0.00  0.00    +0.109 C 
ATOM      6  C11 UNL     1      20.933   2.486  32.479  0.00  0.00    +0.021 C 
ATOM      7  C12 UNL     1      20.676   2.518  30.956  0.00  0.00    +0.025 C 
ATOM      8  C13 UNL     1      21.688   3.383  30.180  0.00  0.00    +0.091 C 
ATOM      9  C21 UNL     1      21.841   4.752  30.865  0.00  0.00    +0.131 C 
ATOM     10  H12 UNL     1      21.931   7.259  31.686  0.00  0.00    +0.151 HD
ENDROOT
BRANCH   8  11
ATOM     11  N5  UNL     1      21.258   3.556  28.786  0.00  0.00    -0.307 N 
ATOM     12  C14 UNL     1      21.988   2.983  27.688  0.00  0.00    +0.244 C 
ATOM     13  O2  UNL     1      22.907   2.149  27.917  0.00  0.00    -0.270 OA
ATOM     14  H20 UNL     1      20.351   4.036  28.591  0.00  0.00    +0.149 HD
BRANCH  12  15
ATOM     15  C15 UNL     1      21.662   3.336  26.284  0.00  0.00    +0.037 A 
ATOM     16  C16 UNL     1      22.019   4.600  25.776  0.00  0.00    +0.014 A 
ATOM     17  C17 UNL     1      21.711   4.947  24.457  0.00  0.00    +0.021 A 
ATOM     18  C18 UNL     1      21.036   4.042  23.632  0.00  0.00    +0.041 A 
ATOM     19 CL1  UNL     1      20.645   4.481  21.978  0.00  0.00    -0.084 Cl
ATOM     20  C19 UNL     1      20.667   2.789  24.130  0.00  0.00    +0.021 A 
ATOM     21  C20 UNL     1      20.975   2.437  25.448  0.00  0.00    +0.014 A 
ENDBRANCH  12  15
ENDBRANCH   8  11
BRANCH   1  22
ATOM     22  C8  UNL     1      23.037   8.250  33.242  0.00  0.00    +0.142 C 
BRANCH  22  26
ATOM     23  C4  UNL     1      20.081   9.898  35.892  0.00  0.00    +0.121 A 
ATOM     24  C5  UNL     1      20.275  10.470  34.622  0.00  0.00    +0.044 A 
ATOM     25  C6  UNL     1      21.235   9.933  33.763  0.00  0.00    +0.010 A 
ATOM     26  C7  UNL     1      22.007   8.839  34.168  0.00  0.00    -0.012 A 
ATOM     27  C22 UNL     1      21.782   8.289  35.436  0.00  0.00    +0.118 A 
ATOM     28  N6  UNL     1      20.839   8.825  36.255  0.00  0.00    -0.240 NA
BRANCH  23  33
ATOM     29  C1  UNL     1      15.859   9.606  36.601  0.00  0.00    +0.105 C 
ATOM     30  N1  UNL     1      16.408  10.711  37.405  0.00  0.00    -0.302 NA
ATOM     31  C2  UNL     1      17.289  10.217  38.487  0.00  0.00    +0.103 C 
ATOM     32  C3  UNL     1      18.600   9.629  37.932  0.00  0.00    +0.122 C 
ATOM     33  N2  UNL     1      19.110  10.438  36.817  0.00  0.00    -0.313 N 
ATOM     34  C23 UNL     1      18.576  11.793  36.645  0.00  0.00    +0.122 C 
ATOM     35  C24 UNL     1      17.040  11.754  36.554  0.00  0.00    +0.103 C 
ENDBRANCH  23  33
ENDBRANCH  22  26
ENDBRANCH   1  22
TORSDOF 5
ENDMDL
