MODEL 1
REMARK VINA RESULT:    -6.140      0.000      0.000
REMARK INTER + INTRA:          -7.761
REMARK INTER:                  -7.217
REMARK INTRA:                  -0.544
REMARK UNBOUND:                -0.544
REMARK  Name = /home/qwerty/github/datacon2025hack/step_04_hit_selection/docking/ligands/lig_20.pdb
REMARK  5 active torsions:
REMARK  status: ('A' for Active; 'I' for Inactive)
REMARK    1  A    between atoms: C1_1  and  C2_2
REMARK    2  A    between atoms: C6_7  and  C7_8
REMARK    3  A    between atoms: C10_13  and  N3_14
REMARK    4  A    between atoms: C11_15  and  C12_17
REMARK    5  A    between atoms: C15_22  and  C16_23
REMARK                            x       y       z     vdW  Elec       q    Type
REMARK                         _______ _______ _______ _____ _____    ______ ____
ROOT
ATOM      1  C7  UNL     1      20.296   4.787  25.089  0.00  0.00    +0.247 C 
ATOM      2  O1  UNL     1      19.396   5.525  25.574  0.00  0.00    -0.270 OA
ATOM      3  N2  UNL     1      20.792   3.675  25.857  0.00  0.00    -0.293 N 
ATOM      4  C8  UNL     1      21.148   2.399  25.252  0.00  0.00    +0.110 C 
ATOM      5  C9  UNL     1      21.008   1.364  26.359  0.00  0.00    +0.043 C 
ATOM      6  C10 UNL     1      21.096   2.158  27.665  0.00  0.00    +0.095 C 
ATOM      7  C15 UNL     1      20.632   3.576  27.303  0.00  0.00    +0.093 C 
ATOM      8  C16 UNL     1      21.467   4.646  28.017  0.00  0.00    +0.030 C 
ENDROOT
BRANCH   1  15
ATOM      9  C1  UNL     1      22.178   5.657  18.725  0.00  0.00    +0.065 C 
ATOM     10  C2  UNL     1      22.470   6.026  20.145  0.00  0.00    +0.040 A 
ATOM     11  C3  UNL     1      23.486   6.852  20.596  0.00  0.00    +0.134 A 
ATOM     12  N1  UNL     1      23.439   6.940  21.947  0.00  0.00    -0.236 NA
ATOM     13  C4  UNL     1      22.390   6.159  22.280  0.00  0.00    +0.138 A 
ATOM     14  C5  UNL     1      21.931   5.919  23.573  0.00  0.00    +0.059 A 
ATOM     15  C6  UNL     1      20.811   5.078  23.734  0.00  0.00    +0.042 A 
ATOM     16  C17 UNL     1      20.212   4.489  22.596  0.00  0.00    +0.031 A 
ATOM     17  C18 UNL     1      20.719   4.766  21.318  0.00  0.00    +0.093 A 
ATOM     18  N6  UNL     1      21.788   5.597  21.219  0.00  0.00    -0.304 N 
ENDBRANCH   1  15
BRANCH   6  19
ATOM     19  N3  UNL     1      20.247   1.572  28.707  0.00  0.00    -0.304 N 
ATOM     20  C11 UNL     1      20.683   1.437  30.068  0.00  0.00    +0.280 C 
ATOM     21  O2  UNL     1      21.864   1.739  30.390  0.00  0.00    -0.267 OA
ATOM     22  H11 UNL     1      19.242   1.392  28.485  0.00  0.00    +0.149 HD
BRANCH  20  23
ATOM     23  C12 UNL     1      19.759   0.941  31.103  0.00  0.00    +0.194 A 
ATOM     24  N4  UNL     1      18.622   1.580  31.453  0.00  0.00    -0.232 NA
ATOM     25  C13 UNL     1      18.091   0.799  32.416  0.00  0.00    +0.130 A 
ATOM     26  C14 UNL     1      18.909  -0.286  32.631  0.00  0.00    +0.104 A 
ATOM     27  N5  UNL     1      19.959  -0.194  31.802  0.00  0.00    -0.341 N 
ATOM     28  H14 UNL     1      20.757  -0.863  31.722  0.00  0.00    +0.167 HD
ENDBRANCH  20  23
ENDBRANCH   6  19
TORSDOF 3
ENDMDL
MODEL 2
REMARK VINA RESULT:    -6.112      6.657     10.966
REMARK INTER + INTRA:          -7.727
REMARK INTER:                  -7.187
REMARK INTRA:                  -0.540
REMARK UNBOUND:                -0.544
REMARK  Name = /home/qwerty/github/datacon2025hack/step_04_hit_selection/docking/ligands/lig_20.pdb
REMARK  5 active torsions:
REMARK  status: ('A' for Active; 'I' for Inactive)
REMARK    1  A    between atoms: C1_1  and  C2_2
REMARK    2  A    between atoms: C6_7  and  C7_8
REMARK    3  A    between atoms: C10_13  and  N3_14
REMARK    4  A    between atoms: C11_15  and  C12_17
REMARK    5  A    between atoms: C15_22  and  C16_23
REMARK                            x       y       z     vdW  Elec       q    Type
REMARK                         _______ _______ _______ _____ _____    ______ ____
ROOT
ATOM      1  C7  UNL     1      21.952   6.033  34.986  0.00  0.00    +0.247 C 
ATOM      2  O1  UNL     1      23.060   5.726  35.504  0.00  0.00    -0.270 OA
ATOM      3  N2  UNL     1      21.567   5.440  33.732  0.00  0.00    -0.293 N 
ATOM      4  C8  UNL     1      20.194   5.053  33.434  0.00  0.00    +0.110 C 
ATOM      5  C9  UNL     1      20.294   3.959  32.380  0.00  0.00    +0.043 C 
ATOM      6  C10 UNL     1      21.673   4.141  31.741  0.00  0.00    +0.095 C 
ATOM      7  C15 UNL     1      22.525   4.832  32.815  0.00  0.00    +0.093 C 
ATOM      8  C16 UNL     1      23.449   5.895  32.210  0.00  0.00    +0.030 C 
ENDROOT
BRANCH   1  15
ATOM      9  C1  UNL     1      17.716   9.829  38.514  0.00  0.00    +0.065 C 
ATOM     10  C2  UNL     1      18.720   9.828  37.405  0.00  0.00    +0.040 A 
ATOM     11  C3  UNL     1      19.100  10.911  36.630  0.00  0.00    +0.134 A 
ATOM     12  N1  UNL     1      20.025  10.520  35.719  0.00  0.00    -0.236 NA
ATOM     13  C4  UNL     1      20.179   9.203  35.969  0.00  0.00    +0.138 A 
ATOM     14  C5  UNL     1      21.031   8.339  35.286  0.00  0.00    +0.059 A 
ATOM     15  C6  UNL     1      21.070   6.988  35.690  0.00  0.00    +0.042 A 
ATOM     16  C17 UNL     1      20.232   6.551  36.742  0.00  0.00    +0.031 A 
ATOM     17  C18 UNL     1      19.392   7.467  37.392  0.00  0.00    +0.093 A 
ATOM     18  N6  UNL     1      19.408   8.759  36.975  0.00  0.00    -0.304 N 
ENDBRANCH   1  15
BRANCH   6  19
ATOM     19  N3  UNL     1      22.255   2.854  31.348  0.00  0.00    -0.304 N 
ATOM     20  C11 UNL     1      22.190   2.359  30.002  0.00  0.00    +0.280 C 
ATOM     21  O2  UNL     1      21.536   2.987  29.125  0.00  0.00    -0.267 OA
ATOM     22  H11 UNL     1      22.870   2.358  32.033  0.00  0.00    +0.149 HD
BRANCH  20  23
ATOM     23  C12 UNL     1      22.882   1.113  29.630  0.00  0.00    +0.194 A 
ATOM     24  N4  UNL     1      22.237  -0.031  29.312  0.00  0.00    -0.232 NA
ATOM     25  C13 UNL     1      23.230  -0.902  29.043  0.00  0.00    +0.130 A 
ATOM     26  C14 UNL     1      24.446  -0.278  29.203  0.00  0.00    +0.104 A 
ATOM     27  N5  UNL     1      24.223   0.992  29.572  0.00  0.00    -0.341 N 
ATOM     28  H14 UNL     1      24.941   1.723  29.771  0.00  0.00    +0.167 HD
ENDBRANCH  20  23
ENDBRANCH   6  19
TORSDOF 3
ENDMDL
MODEL 3
REMARK VINA RESULT:    -6.101      3.113      3.966
REMARK INTER + INTRA:          -7.714
REMARK INTER:                  -7.085
REMARK INTRA:                  -0.630
REMARK UNBOUND:                -0.544
REMARK  Name = /home/qwerty/github/datacon2025hack/step_04_hit_selection/docking/ligands/lig_20.pdb
REMARK  5 active torsions:
REMARK  status: ('A' for Active; 'I' for Inactive)
REMARK    1  A    between atoms: C1_1  and  C2_2
REMARK    2  A    between atoms: C6_7  and  C7_8
REMARK    3  A    between atoms: C10_13  and  N3_14
REMARK    4  A    between atoms: C11_15  and  C12_17
REMARK    5  A    between atoms: C15_22  and  C16_23
REMARK                            x       y       z     vdW  Elec       q    Type
REMARK                         _______ _______ _______ _____ _____    ______ ____
ROOT
ATOM      1  C7  UNL     1      20.253   4.418  23.264  0.00  0.00    +0.247 C 
ATOM      2  O1  UNL     1      19.754   3.302  22.953  0.00  0.00    -0.270 OA
ATOM      3  N2  UNL     1      21.093   4.520  24.429  0.00  0.00    -0.293 N 
ATOM      4  C8  UNL     1      22.271   5.374  24.476  0.00  0.00    +0.110 C 
ATOM      5  C9  UNL     1      23.181   4.763  25.532  0.00  0.00    +0.043 C 
ATOM      6  C10 UNL     1      22.263   3.907  26.408  0.00  0.00    +0.095 C 
ATOM      7  C15 UNL     1      21.080   3.534  25.503  0.00  0.00    +0.093 C 
ATOM      8  C16 UNL     1      19.749   3.573  26.263  0.00  0.00    +0.030 C 
ENDROOT
BRANCH   1  15
ATOM      9  C1  UNL     1      19.417   9.480  18.964  0.00  0.00    +0.065 C 
ATOM     10  C2  UNL     1      19.057   8.956  20.318  0.00  0.00    +0.040 A 
ATOM     11  C3  UNL     1      18.253   9.577  21.261  0.00  0.00    +0.134 A 
ATOM     12  N1  UNL     1      18.165   8.803  22.369  0.00  0.00    -0.236 NA
ATOM     13  C4  UNL     1      18.924   7.728  22.067  0.00  0.00    +0.138 A 
ATOM     14  C5  UNL     1      19.155   6.635  22.898  0.00  0.00    +0.059 A 
ATOM     15  C6  UNL     1      19.972   5.593  22.411  0.00  0.00    +0.042 A 
ATOM     16  C17 UNL     1      20.547   5.701  21.124  0.00  0.00    +0.031 A 
ATOM     17  C18 UNL     1      20.279   6.827  20.332  0.00  0.00    +0.093 A 
ATOM     18  N6  UNL     1      19.472   7.792  20.842  0.00  0.00    -0.304 N 
ENDBRANCH   1  15
BRANCH   6  19
ATOM     19  N3  UNL     1      22.953   2.711  26.900  0.00  0.00    -0.304 N 
ATOM     20  C11 UNL     1      22.668   2.132  28.183  0.00  0.00    +0.280 C 
ATOM     21  O2  UNL     1      21.868   2.702  28.974  0.00  0.00    -0.267 OA
ATOM     22  H11 UNL     1      23.556   2.177  26.234  0.00  0.00    +0.149 HD
BRANCH  20  23
ATOM     23  C12 UNL     1      23.308   0.870  28.592  0.00  0.00    +0.194 A 
ATOM     24  N4  UNL     1      22.667  -0.318  28.610  0.00  0.00    -0.232 NA
ATOM     25  C13 UNL     1      23.603  -1.190  29.038  0.00  0.00    +0.130 A 
ATOM     26  C14 UNL     1      24.782  -0.520  29.271  0.00  0.00    +0.104 A 
ATOM     27  N5  UNL     1      24.593   0.778  28.988  0.00  0.00    -0.341 N 
ATOM     28  H14 UNL     1      25.297   1.546  29.063  0.00  0.00    +0.167 HD
ENDBRANCH  20  23
ENDBRANCH   6  19
TORSDOF 3
ENDMDL
MODEL 4
REMARK VINA RESULT:    -6.048      6.668     11.314
REMARK INTER + INTRA:          -7.652
REMARK INTER:                  -7.064
REMARK INTRA:                  -0.588
REMARK UNBOUND:                -0.544
REMARK  Name = /home/qwerty/github/datacon2025hack/step_04_hit_selection/docking/ligands/lig_20.pdb
REMARK  5 active torsions:
REMARK  status: ('A' for Active; 'I' for Inactive)
REMARK    1  A    between atoms: C1_1  and  C2_2
REMARK    2  A    between atoms: C6_7  and  C7_8
REMARK    3  A    between atoms: C10_13  and  N3_14
REMARK    4  A    between atoms: C11_15  and  C12_17
REMARK    5  A    between atoms: C15_22  and  C16_23
REMARK                            x       y       z     vdW  Elec       q    Type
REMARK                         _______ _______ _______ _____ _____    ______ ____
ROOT
ATOM      1  C7  UNL     1      18.743   3.137  34.072  0.00  0.00    +0.247 C 
ATOM      2  O1  UNL     1      19.795   3.787  34.317  0.00  0.00    -0.270 OA
ATOM      3  N2  UNL     1      18.755   2.131  33.042  0.00  0.00    -0.293 N 
ATOM      4  C8  UNL     1      18.023   0.877  33.161  0.00  0.00    +0.110 C 
ATOM      5  C9  UNL     1      18.748  -0.110  32.257  0.00  0.00    +0.043 C 
ATOM      6  C10 UNL     1      19.529   0.754  31.264  0.00  0.00    +0.095 C 
ATOM      7  C15 UNL     1      19.761   2.087  31.988  0.00  0.00    +0.093 C 
ATOM      8  C16 UNL     1      19.608   3.282  31.040  0.00  0.00    +0.030 C 
ENDROOT
BRANCH   1  15
ATOM      9  C1  UNL     1      12.959   4.654  37.080  0.00  0.00    +0.065 C 
ATOM     10  C2  UNL     1      14.348   4.142  37.293  0.00  0.00    +0.040 A 
ATOM     11  C3  UNL     1      14.920   3.774  38.500  0.00  0.00    +0.134 A 
ATOM     12  N1  UNL     1      16.198   3.371  38.297  0.00  0.00    -0.236 NA
ATOM     13  C4  UNL     1      16.366   3.509  36.966  0.00  0.00    +0.138 A 
ATOM     14  C5  UNL     1      17.531   3.222  36.258  0.00  0.00    +0.059 A 
ATOM     15  C6  UNL     1      17.525   3.418  34.862  0.00  0.00    +0.042 A 
ATOM     16  C17 UNL     1      16.362   3.922  34.234  0.00  0.00    +0.031 A 
ATOM     17  C18 UNL     1      15.218   4.194  34.998  0.00  0.00    +0.093 A 
ATOM     18  N6  UNL     1      15.273   3.970  36.336  0.00  0.00    -0.304 N 
ENDBRANCH   1  15
BRANCH   6  19
ATOM     19  N3  UNL     1      20.800   0.125  30.890  0.00  0.00    -0.304 N 
ATOM     20  C11 UNL     1      21.386   0.287  29.589  0.00  0.00    +0.280 C 
ATOM     21  O2  UNL     1      20.764   0.910  28.686  0.00  0.00    -0.267 OA
ATOM     22  H11 UNL     1      21.371  -0.325  31.642  0.00  0.00    +0.149 HD
BRANCH  20  23
ATOM     23  C12 UNL     1      22.715  -0.274  29.293  0.00  0.00    +0.194 A 
ATOM     24  N4  UNL     1      23.856   0.446  29.349  0.00  0.00    -0.232 NA
ATOM     25  C13 UNL     1      24.818  -0.438  29.011  0.00  0.00    +0.130 A 
ATOM     26  C14 UNL     1      24.247  -1.664  28.757  0.00  0.00    +0.104 A 
ATOM     27  N5  UNL     1      22.921  -1.558  28.936  0.00  0.00    -0.341 N 
ATOM     28  H14 UNL     1      22.210  -2.313  28.821  0.00  0.00    +0.167 HD
ENDBRANCH  20  23
ENDBRANCH   6  19
TORSDOF 3
ENDMDL
MODEL 5
REMARK VINA RESULT:    -6.010     10.017     12.569
REMARK INTER + INTRA:          -7.608
REMARK INTER:                  -7.278
REMARK INTRA:                  -0.330
REMARK UNBOUND:                -0.544
REMARK  Name = /home/qwerty/github/datacon2025hack/step_04_hit_selection/docking/ligands/lig_20.pdb
REMARK  5 active torsions:
REMARK  status: ('A' for Active; 'I' for Inactive)
REMARK    1  A    between atoms: C1_1  and  C2_2
REMARK    2  A    between atoms: C6_7  and  C7_8
REMARK    3  A    between atoms: C10_13  and  N3_14
REMARK    4  A    between atoms: C11_15  and  C12_17
REMARK    5  A    between atoms: C15_22  and  C16_23
REMARK                            x       y       z     vdW  Elec       q    Type
REMARK                         _______ _______ _______ _____ _____    ______ ____
ROOT
ATOM      1  C7  UNL     1      13.182   1.440  21.878  0.00  0.00    +0.247 C 
ATOM      2  O1  UNL     1      13.427   1.710  20.671  0.00  0.00    -0.270 OA
ATOM      3  N2  UNL     1      11.978   1.940  22.487  0.00  0.00    -0.293 N 
ATOM      4  C8  UNL     1      11.201   1.165  23.445  0.00  0.00    +0.110 C 
ATOM      5  C9  UNL     1       9.783   1.711  23.363  0.00  0.00    +0.043 C 
ATOM      6  C10 UNL     1       9.925   3.111  22.760  0.00  0.00    +0.095 C 
ATOM      7  C15 UNL     1      11.226   3.067  21.947  0.00  0.00    +0.093 C 
ATOM      8  C16 UNL     1      12.024   4.368  22.082  0.00  0.00    +0.030 C 
ENDROOT
BRANCH   1  15
ATOM      9  C1  UNL     1      17.577  -2.721  24.739  0.00  0.00    +0.065 C 
ATOM     10  C2  UNL     1      16.659  -1.564  24.976  0.00  0.00    +0.040 A 
ATOM     11  C3  UNL     1      16.436  -0.915  26.179  0.00  0.00    +0.134 A 
ATOM     12  N1  UNL     1      15.530   0.078  26.003  0.00  0.00    -0.236 NA
ATOM     13  C4  UNL     1      15.227   0.001  24.691  0.00  0.00    +0.138 A 
ATOM     14  C5  UNL     1      14.326   0.821  24.014  0.00  0.00    +0.059 A 
ATOM     15  C6  UNL     1      14.138   0.602  22.634  0.00  0.00    +0.042 A 
ATOM     16  C17 UNL     1      14.838  -0.447  21.992  0.00  0.00    +0.031 A 
ATOM     17  C18 UNL     1      15.732  -1.240  22.726  0.00  0.00    +0.093 A 
ATOM     18  N6  UNL     1      15.888  -0.974  24.047  0.00  0.00    -0.304 N 
ENDBRANCH   1  15
BRANCH   6  19
ATOM     19  N3  UNL     1       8.778   3.448  21.910  0.00  0.00    -0.304 N 
ATOM     20  C11 UNL     1       8.245   4.778  21.829  0.00  0.00    +0.280 C 
ATOM     21  O2  UNL     1       8.699   5.691  22.572  0.00  0.00    -0.267 OA
ATOM     22  H11 UNL     1       8.440   2.732  21.227  0.00  0.00    +0.149 HD
BRANCH  20  23
ATOM     23  C12 UNL     1       7.163   5.093  20.881  0.00  0.00    +0.194 A 
ATOM     24  N4  UNL     1       6.266   6.084  21.077  0.00  0.00    -0.232 NA
ATOM     25  C13 UNL     1       5.469   6.024  19.991  0.00  0.00    +0.130 A 
ATOM     26  C14 UNL     1       5.892   5.007  19.166  0.00  0.00    +0.104 A 
ATOM     27  N5  UNL     1       6.960   4.423  19.730  0.00  0.00    -0.341 N 
ATOM     28  H14 UNL     1       7.510   3.620  19.350  0.00  0.00    +0.167 HD
ENDBRANCH  20  23
ENDBRANCH   6  19
TORSDOF 3
ENDMDL
MODEL 6
REMARK VINA RESULT:    -5.929      4.283      6.074
REMARK INTER + INTRA:          -7.513
REMARK INTER:                  -6.886
REMARK INTRA:                  -0.626
REMARK UNBOUND:                -0.544
REMARK  Name = /home/qwerty/github/datacon2025hack/step_04_hit_selection/docking/ligands/lig_20.pdb
REMARK  5 active torsions:
REMARK  status: ('A' for Active; 'I' for Inactive)
REMARK    1  A    between atoms: C1_1  and  C2_2
REMARK    2  A    between atoms: C6_7  and  C7_8
REMARK    3  A    between atoms: C10_13  and  N3_14
REMARK    4  A    between atoms: C11_15  and  C12_17
REMARK    5  A    between atoms: C15_22  and  C16_23
REMARK                            x       y       z     vdW  Elec       q    Type
REMARK                         _______ _______ _______ _____ _____    ______ ____
ROOT
ATOM      1  C7  UNL     1      21.086   2.318  26.617  0.00  0.00    +0.247 C 
ATOM      2  O1  UNL     1      22.246   2.562  26.188  0.00  0.00    -0.270 OA
ATOM      3  N2  UNL     1      20.760   2.614  27.988  0.00  0.00    -0.293 N 
ATOM      4  C8  UNL     1      19.460   3.131  28.392  0.00  0.00    +0.110 C 
ATOM      5  C9  UNL     1      19.700   3.876  29.698  0.00  0.00    +0.043 C 
ATOM      6  C10 UNL     1      21.008   3.305  30.251  0.00  0.00    +0.095 C 
ATOM      7  C15 UNL     1      21.772   2.791  29.023  0.00  0.00    +0.093 C 
ATOM      8  C16 UNL     1      22.489   1.468  29.314  0.00  0.00    +0.030 C 
ENDROOT
BRANCH   1  15
ATOM      9  C1  UNL     1      16.487   0.332  22.177  0.00  0.00    +0.065 C 
ATOM     10  C2  UNL     1      17.326  -0.095  23.340  0.00  0.00    +0.040 A 
ATOM     11  C3  UNL     1      17.339  -1.345  23.938  0.00  0.00    +0.134 A 
ATOM     12  N1  UNL     1      18.220  -1.350  24.968  0.00  0.00    -0.236 NA
ATOM     13  C4  UNL     1      18.718  -0.096  24.965  0.00  0.00    +0.138 A 
ATOM     14  C5  UNL     1      19.672   0.403  25.850  0.00  0.00    +0.059 A 
ATOM     15  C6  UNL     1      20.085   1.743  25.694  0.00  0.00    +0.042 A 
ATOM     16  C17 UNL     1      19.505   2.537  24.677  0.00  0.00    +0.031 A 
ATOM     17  C18 UNL     1      18.549   1.980  23.816  0.00  0.00    +0.093 A 
ATOM     18  N6  UNL     1      18.201   0.680  23.999  0.00  0.00    -0.304 N 
ENDBRANCH   1  15
BRANCH   6  19
ATOM     19  N3  UNL     1      21.779   4.328  30.966  0.00  0.00    -0.304 N 
ATOM     20  C11 UNL     1      22.374   4.085  32.250  0.00  0.00    +0.280 C 
ATOM     21  O2  UNL     1      22.167   2.995  32.850  0.00  0.00    -0.267 OA
ATOM     22  H11 UNL     1      22.033   5.204  30.456  0.00  0.00    +0.149 HD
BRANCH  20  23
ATOM     23  C12 UNL     1      23.229   5.104  32.882  0.00  0.00    +0.194 A 
ATOM     24  N4  UNL     1      22.762   6.281  33.351  0.00  0.00    -0.232 NA
ATOM     25  C13 UNL     1      23.859   6.898  33.837  0.00  0.00    +0.130 A 
ATOM     26  C14 UNL     1      24.959   6.092  33.653  0.00  0.00    +0.104 A 
ATOM     27  N5  UNL     1      24.559   4.962  33.051  0.00  0.00    -0.341 N 
ATOM     28  H14 UNL     1      25.157   4.151  32.776  0.00  0.00    +0.167 HD
ENDBRANCH  20  23
ENDBRANCH   6  19
TORSDOF 3
ENDMDL
MODEL 7
REMARK VINA RESULT:    -5.818      5.106      8.898
REMARK INTER + INTRA:          -7.382
REMARK INTER:                  -6.833
REMARK INTRA:                  -0.549
REMARK UNBOUND:                -0.544
REMARK  Name = /home/qwerty/github/datacon2025hack/step_04_hit_selection/docking/ligands/lig_20.pdb
REMARK  5 active torsions:
REMARK  status: ('A' for Active; 'I' for Inactive)
REMARK    1  A    between atoms: C1_1  and  C2_2
REMARK    2  A    between atoms: C6_7  and  C7_8
REMARK    3  A    between atoms: C10_13  and  N3_14
REMARK    4  A    between atoms: C11_15  and  C12_17
REMARK    5  A    between atoms: C15_22  and  C16_23
REMARK                            x       y       z     vdW  Elec       q    Type
REMARK                         _______ _______ _______ _____ _____    ______ ____
ROOT
ATOM      1  C7  UNL     1      21.060   2.296  31.734  0.00  0.00    +0.247 C 
ATOM      2  O1  UNL     1      20.737   1.217  32.302  0.00  0.00    -0.270 OA
ATOM      3  N2  UNL     1      20.867   2.436  30.314  0.00  0.00    -0.293 N 
ATOM      4  C8  UNL     1      20.435   3.684  29.699  0.00  0.00    +0.110 C 
ATOM      5  C9  UNL     1      19.766   3.289  28.391  0.00  0.00    +0.043 C 
ATOM      6  C10 UNL     1      20.313   1.896  28.064  0.00  0.00    +0.095 C 
ATOM      7  C15 UNL     1      20.713   1.295  29.419  0.00  0.00    +0.093 C 
ATOM      8  C16 UNL     1      22.018   0.498  29.324  0.00  0.00    +0.030 C 
ENDROOT
BRANCH   1  15
ATOM      9  C1  UNL     1      22.979   7.331  35.706  0.00  0.00    +0.065 C 
ATOM     10  C2  UNL     1      23.400   6.428  34.590  0.00  0.00    +0.040 A 
ATOM     11  C3  UNL     1      24.618   6.438  33.930  0.00  0.00    +0.134 A 
ATOM     12  N1  UNL     1      24.626   5.481  32.970  0.00  0.00    -0.236 NA
ATOM     13  C4  UNL     1      23.405   4.916  33.075  0.00  0.00    +0.138 A 
ATOM     14  C5  UNL     1      22.921   3.870  32.292  0.00  0.00    +0.059 A 
ATOM     15  C6  UNL     1      21.618   3.397  32.548  0.00  0.00    +0.042 A 
ATOM     16  C17 UNL     1      20.841   4.009  33.559  0.00  0.00    +0.031 A 
ATOM     17  C18 UNL     1      21.380   5.059  34.315  0.00  0.00    +0.093 A 
ATOM     18  N6  UNL     1      22.646   5.463  34.039  0.00  0.00    -0.304 N 
ENDBRANCH   1  15
BRANCH   6  19
ATOM     19  N3  UNL     1      19.305   1.069  27.393  0.00  0.00    -0.304 N 
ATOM     20  C11 UNL     1      19.375   0.757  25.993  0.00  0.00    +0.280 C 
ATOM     21  O2  UNL     1      20.271   1.273  25.271  0.00  0.00    -0.267 OA
ATOM     22  H11 UNL     1      18.604   0.565  27.982  0.00  0.00    +0.149 HD
BRANCH  20  23
ATOM     23  C12 UNL     1      18.401  -0.165  25.384  0.00  0.00    +0.194 A 
ATOM     24  N4  UNL     1      17.085   0.114  25.264  0.00  0.00    -0.232 NA
ATOM     25  C13 UNL     1      16.572  -0.979  24.664  0.00  0.00    +0.130 A 
ATOM     26  C14 UNL     1      17.576  -1.892  24.435  0.00  0.00    +0.104 A 
ATOM     27  N5  UNL     1      18.728  -1.376  24.890  0.00  0.00    -0.341 N 
ATOM     28  H14 UNL     1      19.671  -1.824  24.862  0.00  0.00    +0.167 HD
ENDBRANCH  20  23
ENDBRANCH   6  19
TORSDOF 3
ENDMDL
MODEL 8
REMARK VINA RESULT:    -5.783     13.491     14.543
REMARK INTER + INTRA:          -7.341
REMARK INTER:                  -6.757
REMARK INTRA:                  -0.584
REMARK UNBOUND:                -0.544
REMARK  Name = /home/qwerty/github/datacon2025hack/step_04_hit_selection/docking/ligands/lig_20.pdb
REMARK  5 active torsions:
REMARK  status: ('A' for Active; 'I' for Inactive)
REMARK    1  A    between atoms: C1_1  and  C2_2
REMARK    2  A    between atoms: C6_7  and  C7_8
REMARK    3  A    between atoms: C10_13  and  N3_14
REMARK    4  A    between atoms: C11_15  and  C12_17
REMARK    5  A    between atoms: C15_22  and  C16_23
REMARK                            x       y       z     vdW  Elec       q    Type
REMARK                         _______ _______ _______ _____ _____    ______ ____
ROOT
ATOM      1  C7  UNL     1       8.229   9.997  27.753  0.00  0.00    +0.247 C 
ATOM      2  O1  UNL     1       7.221   9.764  28.474  0.00  0.00    -0.270 OA
ATOM      3  N2  UNL     1       9.316  10.779  28.283  0.00  0.00    -0.293 N 
ATOM      4  C8  UNL     1      10.711  10.490  27.982  0.00  0.00    +0.110 C 
ATOM      5  C9  UNL     1      11.510  11.063  29.144  0.00  0.00    +0.043 C 
ATOM      6  C10 UNL     1      10.595  12.110  29.784  0.00  0.00    +0.095 C 
ATOM      7  C15 UNL     1       9.169  11.663  29.433  0.00  0.00    +0.093 C 
ATOM      8  C16 UNL     1       8.268  12.855  29.092  0.00  0.00    +0.030 C 
ENDROOT
BRANCH   1  15
ATOM      9  C1  UNL     1       8.637   6.930  21.817  0.00  0.00    +0.065 C 
ATOM     10  C2  UNL     1       8.364   8.232  22.503  0.00  0.00    +0.040 A 
ATOM     11  C3  UNL     1       8.061   9.440  21.897  0.00  0.00    +0.134 A 
ATOM     12  N1  UNL     1       7.890  10.396  22.843  0.00  0.00    -0.236 NA
ATOM     13  C4  UNL     1       8.097   9.736  24.001  0.00  0.00    +0.138 A 
ATOM     14  C5  UNL     1       8.036  10.292  25.277  0.00  0.00    +0.059 A 
ATOM     15  C6  UNL     1       8.273   9.447  26.381  0.00  0.00    +0.042 A 
ATOM     16  C17 UNL     1       8.589   8.086  26.162  0.00  0.00    +0.031 A 
ATOM     17  C18 UNL     1       8.637   7.582  24.855  0.00  0.00    +0.093 A 
ATOM     18  N6  UNL     1       8.383   8.435  23.829  0.00  0.00    -0.304 N 
ENDBRANCH   1  15
BRANCH   6  19
ATOM     19  N3  UNL     1      10.789  12.176  31.236  0.00  0.00    -0.304 N 
ATOM     20  C11 UNL     1      11.273  13.357  31.894  0.00  0.00    +0.280 C 
ATOM     21  O2  UNL     1      11.639  14.356  31.218  0.00  0.00    -0.267 OA
ATOM     22  H11 UNL     1      10.416  11.395  31.822  0.00  0.00    +0.149 HD
BRANCH  20  23
ATOM     23  C12 UNL     1      11.350  13.414  33.364  0.00  0.00    +0.194 A 
ATOM     24  N4  UNL     1      11.462  12.319  34.147  0.00  0.00    -0.232 NA
ATOM     25  C13 UNL     1      11.499  12.816  35.400  0.00  0.00    +0.130 A 
ATOM     26  C14 UNL     1      11.409  14.188  35.354  0.00  0.00    +0.104 A 
ATOM     27  N5  UNL     1      11.315  14.562  34.070  0.00  0.00    -0.341 N 
ATOM     28  H14 UNL     1      11.233  15.537  33.704  0.00  0.00    +0.167 HD
ENDBRANCH  20  23
ENDBRANCH   6  19
TORSDOF 3
ENDMDL
MODEL 9
REMARK VINA RESULT:    -5.740     13.540     16.234
REMARK INTER + INTRA:          -7.290
REMARK INTER:                  -6.704
REMARK INTRA:                  -0.586
REMARK UNBOUND:                -0.544
REMARK  Name = /home/qwerty/github/datacon2025hack/step_04_hit_selection/docking/ligands/lig_20.pdb
REMARK  5 active torsions:
REMARK  status: ('A' for Active; 'I' for Inactive)
REMARK    1  A    between atoms: C1_1  and  C2_2
REMARK    2  A    between atoms: C6_7  and  C7_8
REMARK    3  A    between atoms: C10_13  and  N3_14
REMARK    4  A    between atoms: C11_15  and  C12_17
REMARK    5  A    between atoms: C15_22  and  C16_23
REMARK                            x       y       z     vdW  Elec       q    Type
REMARK                         _______ _______ _______ _____ _____    ______ ____
ROOT
ATOM      1  C7  UNL     1      11.417  13.721  29.744  0.00  0.00    +0.247 C 
ATOM      2  O1  UNL     1      11.653  14.683  28.963  0.00  0.00    -0.270 OA
ATOM      3  N2  UNL     1      10.716  12.564  29.252  0.00  0.00    -0.293 N 
ATOM      4  C8  UNL     1      11.042  11.209  29.675  0.00  0.00    +0.110 C 
ATOM      5  C9  UNL     1      10.577  10.301  28.545  0.00  0.00    +0.043 C 
ATOM      6  C10 UNL     1       9.535  11.118  27.776  0.00  0.00    +0.095 C 
ATOM      7  C15 UNL     1       9.900  12.585  28.043  0.00  0.00    +0.093 C 
ATOM      8  C16 UNL     1       8.653  13.453  28.244  0.00  0.00    +0.030 C 
ENDROOT
BRANCH   1  15
ATOM      9  C1  UNL     1      14.137  13.969  35.855  0.00  0.00    +0.065 C 
ATOM     10  C2  UNL     1      12.854  14.016  35.087  0.00  0.00    +0.040 A 
ATOM     11  C3  UNL     1      11.578  14.145  35.611  0.00  0.00    +0.134 A 
ATOM     12  N1  UNL     1      10.668  14.138  34.607  0.00  0.00    -0.236 NA
ATOM     13  C4  UNL     1      11.422  14.002  33.496  0.00  0.00    +0.138 A 
ATOM     14  C5  UNL     1      10.943  13.939  32.189  0.00  0.00    +0.059 A 
ATOM     15  C6  UNL     1      11.881  13.804  31.145  0.00  0.00    +0.042 A 
ATOM     16  C17 UNL     1      13.258  13.709  31.453  0.00  0.00    +0.031 A 
ATOM     17  C18 UNL     1      13.682  13.778  32.788  0.00  0.00    +0.093 A 
ATOM     18  N6  UNL     1      12.738  13.927  33.752  0.00  0.00    -0.304 N 
ENDBRANCH   1  15
BRANCH   6  19
ATOM     19  N3  UNL     1       9.569  10.815  26.342  0.00  0.00    -0.304 N 
ATOM     20  C11 UNL     1       8.501  10.122  25.678  0.00  0.00    +0.280 C 
ATOM     21  O2  UNL     1       7.531   9.664  26.341  0.00  0.00    -0.267 OA
ATOM     22  H11 UNL     1      10.317  11.254  25.760  0.00  0.00    +0.149 HD
BRANCH  20  23
ATOM     23  C12 UNL     1       8.528   9.934  24.217  0.00  0.00    +0.194 A 
ATOM     24  N4  UNL     1       9.658   9.983  23.480  0.00  0.00    -0.232 NA
ATOM     25  C13 UNL     1       9.237   9.765  22.218  0.00  0.00    +0.130 A 
ATOM     26  C14 UNL     1       7.871   9.591  22.213  0.00  0.00    +0.104 A 
ATOM     27  N5  UNL     1       7.428   9.698  23.474  0.00  0.00    -0.341 N 
ATOM     28  H14 UNL     1       6.439   9.615  23.801  0.00  0.00    +0.167 HD
ENDBRANCH  20  23
ENDBRANCH   6  19
TORSDOF 3
ENDMDL
