REMARK  Name = /home/qwerty/github/datacon2025hack/step_04_hit_selection/docking/ligands/lig_252.pdb
REMARK  2 active torsions:
REMARK  status: ('A' for Active; 'I' for Inactive)
REMARK    1  A    between atoms: C1_2  and  C10_13
REMARK    2  A    between atoms: N1_3  and  C2_4
REMARK                            x       y       z     vdW  Elec       q    Type
REMARK                         _______ _______ _______ _____ _____    ______ ____
ROOT
ATOM      1  O1  UNL     1      -2.266   0.243  -2.403  0.00  0.00    -0.270 OA
ATOM      2  C1  UNL     1      -1.475  -0.059  -1.468  0.00  0.00    +0.248 C 
ATOM      3  N1  UNL     1      -2.001  -0.426  -0.181  0.00  0.00    -0.281 N 
ATOM      4  H1  UNL     1      -1.450  -1.095   0.403  0.00  0.00    +0.155 HD
ENDROOT
BRANCH   2   5
ATOM      5  C10 UNL     1      -0.015  -0.081  -1.726  0.00  0.00    +0.038 A 
ATOM      6  C11 UNL     1       0.471  -0.117  -3.062  0.00  0.00    +0.015 A 
ATOM      7  C12 UNL     1       1.852  -0.133  -3.329  0.00  0.00    +0.027 A 
ATOM      8  C13 UNL     1       2.727  -0.105  -2.248  0.00  0.00    +0.047 A 
ATOM      9  N3  UNL     1       4.074  -0.123  -2.288  0.00  0.00    -0.358 N 
ATOM     10  C14 UNL     1       4.469  -0.097  -0.995  0.00  0.00    +0.020 A 
ATOM     11  C15 UNL     1       3.380  -0.027  -0.143  0.00  0.00    -0.019 A 
ATOM     12  C16 UNL     1       2.268  -0.057  -0.955  0.00  0.00    +0.004 A 
ATOM     13  C17 UNL     1       0.908  -0.044  -0.653  0.00  0.00    +0.023 A 
ATOM     14  C18 UNL     1       3.473  -0.056   1.353  0.00  0.00    +0.037 C 
ATOM     15  C19 UNL     1       4.898   0.317   1.806  0.00  0.00    +0.005 C 
ATOM     16  C20 UNL     1       5.974  -0.414   0.975  0.00  0.00    +0.006 C 
ATOM     17  C21 UNL     1       5.890  -0.045  -0.520  0.00  0.00    +0.053 C 
ATOM     18  H10 UNL     1       4.684  -0.151  -3.136  0.00  0.00    +0.166 HD
ENDBRANCH   2   5
BRANCH   3  19
ATOM     19  C2  UNL     1      -3.309  -0.049   0.284  0.00  0.00    +0.034 A 
ATOM     20  C3  UNL     1      -3.908   1.178  -0.114  0.00  0.00    +0.025 A 
ATOM     21  C4  UNL     1      -5.178   1.546   0.365  0.00  0.00    +0.028 A 
ATOM     22  C5  UNL     1      -5.818   0.679   1.247  0.00  0.00    +0.047 A 
ATOM     23  N2  UNL     1      -7.021   0.841   1.823  0.00  0.00    -0.361 N 
ATOM     24  C6  UNL     1      -7.207  -0.250   2.601  0.00  0.00    +0.083 A 
ATOM     25  C7  UNL     1      -6.114  -1.108   2.519  0.00  0.00    +0.027 A 
ATOM     26  C8  UNL     1      -5.240  -0.494   1.649  0.00  0.00    +0.001 A 
ATOM     27  C9  UNL     1      -3.984  -0.889   1.195  0.00  0.00    +0.033 A 
ATOM     28  H4  UNL     1      -7.678   1.642   1.700  0.00  0.00    +0.165 HD
ENDBRANCH   3  19
TORSDOF 2
