REMARK  Name = /home/qwerty/github/datacon2025hack/step_04_hit_selection/docking/ligands/lig_742.pdb
REMARK  7 active torsions:
REMARK  status: ('A' for Active; 'I' for Inactive)
REMARK    1  A    between atoms: C1_1  and  C2_2
REMARK    2  A    between atoms: C2_2  and  C3_3
REMARK    3  A    between atoms: C2_2  and  C4_4
REMARK    4  A    between atoms: C4_4  and  N1_5
REMARK    5  A    between atoms: C8_12  and  C9_13
REMARK    6  A    between atoms: N6_19  and  C14_20
REMARK    7  A    between atoms: C14_20  and  C15_21
REMARK                            x       y       z     vdW  Elec       q    Type
REMARK                         _______ _______ _______ _____ _____    ______ ____
ROOT
ATOM      1  N1  UNL     1       3.316   0.000  -0.421  0.00  0.00    -0.298 N 
ATOM      2  C5  UNL     1       2.420   1.000  -1.009  0.00  0.00    +0.127 C 
ATOM      3  C6  UNL     1       1.111   0.333  -1.446  0.00  0.00    +0.127 C 
ATOM      4  N2  UNL     1       0.550  -0.530  -0.390  0.00  0.00    -0.289 N 
ATOM      5  C7  UNL     1      -0.687  -1.208  -0.661  0.00  0.00    +0.221 A 
ATOM      6  N3  UNL     1      -0.934  -1.836  -1.826  0.00  0.00    -0.113 NA
ATOM      7  N4  UNL     1      -2.178  -2.280  -1.765  0.00  0.00    -0.127 NA
ATOM      8  C8  UNL     1      -2.672  -1.916  -0.565  0.00  0.00    +0.167 A 
ATOM      9  N6  UNL     1      -1.758  -1.234   0.166  0.00  0.00    -0.291 N 
ATOM     10  C20 UNL     1       1.292  -0.823   0.847  0.00  0.00    +0.203 C 
ATOM     11  C21 UNL     1       2.761  -0.886   0.564  0.00  0.00    +0.233 C 
ATOM     12  O1  UNL     1       3.496  -1.679   1.213  0.00  0.00    -0.274 OA
ENDROOT
BRANCH   8  13
ATOM     13  C9  UNL     1      -4.065  -2.191  -0.164  0.00  0.00    +0.037 A 
ATOM     14  C10 UNL     1      -5.117  -1.929  -1.052  0.00  0.00    +0.014 A 
ATOM     15  C11 UNL     1      -6.433  -2.201  -0.674  0.00  0.00    +0.020 A 
ATOM     16  C12 UNL     1      -6.684  -2.750   0.584  0.00  0.00    +0.111 A 
ATOM     17  N5  UNL     1      -5.651  -3.023   1.426  0.00  0.00    -0.263 NA
ATOM     18  C13 UNL     1      -4.361  -2.764   1.082  0.00  0.00    +0.122 A 
ENDBRANCH   8  13
BRANCH   1  19
ATOM     19  C4  UNL     1       4.730  -0.058  -0.814  0.00  0.00    +0.110 C 
BRANCH  19  21
ATOM     20  C1  UNL     1       6.964   1.111  -0.741  0.00  0.00    +0.009 C 
ATOM     21  C2  UNL     1       5.527   1.113  -0.206  0.00  0.00    +0.000 C 
ATOM     22  C3  UNL     1       5.535   1.052   1.328  0.00  0.00    +0.009 C 
ENDBRANCH  19  21
ENDBRANCH   1  19
BRANCH   9  23
ATOM     23  C14 UNL     1      -2.003  -0.383   1.338  0.00  0.00    +0.163 C 
BRANCH  23  24
ATOM     24  C15 UNL     1      -2.410   0.999   0.901  0.00  0.00    -0.009 A 
ATOM     25  C16 UNL     1      -3.750   1.286   0.605  0.00  0.00    +0.010 A 
ATOM     26  C17 UNL     1      -4.110   2.557   0.156  0.00  0.00    +0.040 A 
ATOM     27  C18 UNL     1      -3.123   3.533   0.001  0.00  0.00    +0.129 A 
ATOM     28 CL1  UNL     1      -3.546   5.137  -0.563  0.00  0.00    -0.062 Cl
ATOM     29  N7  UNL     1      -1.827   3.240   0.287  0.00  0.00    -0.243 NA
ATOM     30  C19 UNL     1      -1.451   2.009   0.726  0.00  0.00    +0.117 A 
ENDBRANCH  23  24
ENDBRANCH   9  23
TORSDOF 5
