REMARK  Name = /home/qwerty/github/datacon2025hack/step_04_hit_selection/docking/ligands/lig_809.pdb
REMARK  6 active torsions:
REMARK  status: ('A' for Active; 'I' for Inactive)
REMARK    1  A    between atoms: C1_1  and  C2_2
REMARK    2  A    between atoms: C2_2  and  C3_3
REMARK    3  A    between atoms: C2_2  and  C4_4
REMARK    4  A    between atoms: N4_14  and  C11_15
REMARK    5  A    between atoms: C13_17  and  C14_18
REMARK    6  A    between atoms: N5_20  and  C15_21
REMARK                            x       y       z     vdW  Elec       q    Type
REMARK                         _______ _______ _______ _____ _____    ______ ____
ROOT
ATOM      1  C4  UNL     1       4.740  -0.884  -0.209  0.00  0.00    +0.082 A 
ATOM      2  N1  UNL     1       5.174  -0.481   1.009  0.00  0.00    -0.244 NA
ATOM      3  C5  UNL     1       4.357   0.467   1.537  0.00  0.00    +0.079 A 
ATOM      4  C6  UNL     1       4.545   1.026   2.799  0.00  0.00    +0.031 A 
ATOM      5  C7  UNL     1       3.615   1.959   3.275  0.00  0.00    +0.030 A 
ATOM      6  C8  UNL     1       2.514   2.340   2.486  0.00  0.00    +0.077 A 
ATOM      7  N2  UNL     1       1.607   3.217   2.988  0.00  0.00    -0.235 NA
ATOM      8  C9  UNL     1       0.527   3.600   2.264  0.00  0.00    +0.223 A 
ATOM      9  N3  UNL     1       0.348   3.127   1.006  0.00  0.00    -0.220 NA
ATOM     10  C10 UNL     1       1.219   2.250   0.437  0.00  0.00    +0.135 A 
ATOM     11  N4  UNL     1       1.014   1.868  -0.930  0.00  0.00    -0.298 N 
ATOM     12  C24 UNL     1       2.338   1.806   1.182  0.00  0.00    +0.056 A 
ATOM     13  C25 UNL     1       3.276   0.847   0.744  0.00  0.00    +0.052 A 
ATOM     14  S1  UNL     1       3.335  -0.071  -0.669  0.00  0.00    -0.071 S 
ATOM     15  H11 UNL     1       1.821   1.981  -1.582  0.00  0.00    +0.154 HD
ENDROOT
BRANCH  11  16
ATOM     16  C11 UNL     1      -0.283   1.540  -1.462  0.00  0.00    +0.052 A 
ATOM     17  C12 UNL     1      -1.275   0.987  -0.629  0.00  0.00    +0.037 A 
ATOM     18  C13 UNL     1      -2.542   0.647  -1.136  0.00  0.00    +0.039 A 
ATOM     19  C21 UNL     1      -2.801   0.844  -2.502  0.00  0.00    +0.014 A 
ATOM     20  C22 UNL     1      -1.821   1.379  -3.338  0.00  0.00    +0.022 A 
ATOM     21  C23 UNL     1      -0.566   1.726  -2.831  0.00  0.00    +0.062 A 
ATOM     22 CL1  UNL     1       0.618   2.414  -3.937  0.00  0.00    -0.082 Cl
BRANCH  18  23
ATOM     23  C14 UNL     1      -3.572   0.062  -0.242  0.00  0.00    +0.248 C 
ATOM     24  O1  UNL     1      -3.229  -0.415   0.874  0.00  0.00    -0.270 OA
ATOM     25  N5  UNL     1      -4.961   0.070  -0.612  0.00  0.00    -0.279 N 
ATOM     26  H13 UNL     1      -5.299   0.837  -1.237  0.00  0.00    +0.155 HD
BRANCH  25  27
ATOM     27  C15 UNL     1      -5.945  -0.778   0.002  0.00  0.00    +0.069 A 
ATOM     28  C16 UNL     1      -7.222  -0.262   0.274  0.00  0.00    +0.026 A 
ATOM     29  C17 UNL     1      -8.202  -1.070   0.858  0.00  0.00    +0.002 A 
ATOM     30  C18 UNL     1      -7.921  -2.404   1.159  0.00  0.00    +0.003 A 
ATOM     31  C19 UNL     1      -6.662  -2.935   0.869  0.00  0.00    +0.040 A 
ATOM     32  C20 UNL     1      -5.676  -2.132   0.286  0.00  0.00    +0.144 A 
ATOM     33  F1  UNL     1      -4.483  -2.690  -0.042  0.00  0.00    -0.204 F 
ENDBRANCH  25  27
ENDBRANCH  18  23
ENDBRANCH  11  16
BRANCH   1  35
ATOM     34  C1  UNL     1       6.804  -1.367  -1.512  0.00  0.00    +0.014 C 
ATOM     35  C2  UNL     1       5.448  -1.907  -1.051  0.00  0.00    +0.039 C 
ATOM     36  C3  UNL     1       5.612  -3.219  -0.279  0.00  0.00    +0.014 C 
ENDBRANCH   1  35
TORSDOF 4
