REMARK  Name = /home/qwerty/github/datacon2025hack/step_04_hit_selection/docking/ligands/lig_142.pdb
REMARK  7 active torsions:
REMARK  status: ('A' for Active; 'I' for Inactive)
REMARK    1  A    between atoms: C1_1  and  C2_2
REMARK    2  A    between atoms: C4_4  and  C5_5
REMARK    3  A    between atoms: C8_10  and  N2_11
REMARK    4  A    between atoms: C9_12  and  C10_14
REMARK    5  A    between atoms: C13_17  and  O3_18
REMARK    6  A    between atoms: C15_22  and  C16_23
REMARK    7  A    between atoms: N5_24  and  C17_25
REMARK                            x       y       z     vdW  Elec       q    Type
REMARK                         _______ _______ _______ _____ _____    ______ ____
ROOT
ATOM      1  C5  UNL     1      -1.577   0.291  -0.882  0.00  0.00    +0.248 C 
ATOM      2  O1  UNL     1      -1.302   1.007  -1.883  0.00  0.00    -0.270 OA
ATOM      3  N1  UNL     1      -0.519  -0.398  -0.190  0.00  0.00    -0.296 N 
ATOM      4  C6  UNL     1      -0.612  -0.850   1.191  0.00  0.00    +0.110 C 
ATOM      5  C7  UNL     1       0.826  -1.039   1.654  0.00  0.00    +0.043 C 
ATOM      6  C8  UNL     1       1.644  -1.193   0.367  0.00  0.00    +0.092 C 
ATOM      7  C14 UNL     1       0.837  -0.470  -0.709  0.00  0.00    +0.130 C 
ENDROOT
BRANCH   1  11
ATOM      8  C1  UNL     1      -5.995  -1.601   0.644  0.00  0.00    +0.063 C 
ATOM      9  C2  UNL     1      -4.936  -0.643   0.192  0.00  0.00    +0.016 A 
ATOM     10  C3  UNL     1      -3.615  -0.981  -0.038  0.00  0.00    +0.035 A 
ATOM     11  C4  UNL     1      -2.984   0.178  -0.451  0.00  0.00    +0.058 A 
ATOM     12  C15 UNL     1      -3.946   1.180  -0.453  0.00  0.00    +0.028 A 
ATOM     13  C16 UNL     1      -3.720   2.614  -0.836  0.00  0.00    +0.064 C 
ATOM     14  N5  UNL     1      -5.142   0.665  -0.085  0.00  0.00    -0.350 N 
ATOM     15  C17 UNL     1      -6.399   1.402   0.054  0.00  0.00    +0.149 C 
ENDBRANCH   1  11
BRANCH   6  16
ATOM     16  N2  UNL     1       2.991  -0.627   0.492  0.00  0.00    -0.306 N 
ATOM     17  C9  UNL     1       4.047  -0.977  -0.419  0.00  0.00    +0.264 C 
ATOM     18  O2  UNL     1       3.857  -1.882  -1.280  0.00  0.00    -0.268 OA
ATOM     19  H10 UNL     1       3.166   0.116   1.208  0.00  0.00    +0.149 HD
BRANCH  17  20
ATOM     20  C10 UNL     1       5.356  -0.291  -0.354  0.00  0.00    +0.148 A 
ATOM     21  C11 UNL     1       6.411  -0.652  -1.203  0.00  0.00    +0.040 A 
ATOM     22  C12 UNL     1       7.629   0.019  -1.106  0.00  0.00    +0.071 A 
ATOM     23  C13 UNL     1       7.771   1.038  -0.163  0.00  0.00    +0.232 A 
ATOM     24  N3  UNL     1       6.720   1.356   0.636  0.00  0.00    -0.111 NA
ATOM     25  N4  UNL     1       5.553   0.714   0.543  0.00  0.00    -0.141 NA
BRANCH  23  26
ATOM     26  O3  UNL     1       8.974   1.727  -0.031  0.00  0.00    -0.491 OA
ATOM     27  H13 UNL     1       9.778   1.506  -0.606  0.00  0.00    +0.294 HD
ENDBRANCH  23  26
ENDBRANCH  17  20
ENDBRANCH   6  16
TORSDOF 4
