MODEL 1
REMARK VINA RESULT:    -6.587      0.000      0.000
REMARK INTER + INTRA:          -9.822
REMARK INTER:                  -8.897
REMARK INTRA:                  -0.925
REMARK UNBOUND:                -0.925
REMARK  Name = /home/qwerty/github/datacon2025hack/step_04_hit_selection/docking/ligands/lig_660.pdb
REMARK  8 active torsions:
REMARK  status: ('A' for Active; 'I' for Inactive)
REMARK    1  A    between atoms: C1_1  and  O1_2
REMARK    2  A    between atoms: O1_2  and  C2_3
REMARK    3  A    between atoms: C5_6  and  C6_7
REMARK    4  A    between atoms: C6_7  and  N1_8
REMARK    5  A    between atoms: C9_11  and  N2_12
REMARK    6  A    between atoms: C10_13  and  C11_15
REMARK    7  A    between atoms: C14_19  and  C15_20
REMARK    8  A    between atoms: N5_23  and  C17_24
REMARK                            x       y       z     vdW  Elec       q    Type
REMARK                         _______ _______ _______ _____ _____    ______ ____
ROOT
ATOM      1  N2  UNL     1      10.393  12.922  29.349  0.00  0.00    -0.300 N 
ATOM      2  C10 UNL     1      11.348  13.924  29.734  0.00  0.00    +0.246 C 
ATOM      3  O2  UNL     1      11.828  14.695  28.859  0.00  0.00    -0.270 OA
ATOM      4  H13 UNL     1      10.165  12.153  30.019  0.00  0.00    +0.150 HD
ENDROOT
BRANCH   1   8
ATOM      5  N1  UNL     1       9.525  10.814  26.830  0.00  0.00    -0.296 N 
ATOM      6  C7  UNL     1       8.230  11.062  27.436  0.00  0.00    +0.110 C 
ATOM      7  C8  UNL     1       8.318  12.465  28.066  0.00  0.00    +0.051 C 
ATOM      8  C9  UNL     1       9.798  12.902  28.009  0.00  0.00    +0.161 C 
ATOM      9  C20 UNL     1      10.421  11.854  27.170  0.00  0.00    +0.236 C 
ATOM     10  O3  UNL     1      11.626  11.874  26.800  0.00  0.00    -0.274 OA
BRANCH   5  11
ATOM     11  C6  UNL     1       9.873   9.606  26.085  0.00  0.00    +0.143 C 
BRANCH  11  15
ATOM     12  C2  UNL     1       9.546  10.265  21.827  0.00  0.00    +0.120 A 
ATOM     13  C3  UNL     1       8.391  10.043  22.601  0.00  0.00    +0.046 A 
ATOM     14  C4  UNL     1       8.495   9.839  23.981  0.00  0.00    +0.009 A 
ATOM     15  C5  UNL     1       9.750   9.858  24.607  0.00  0.00    -0.030 A 
ATOM     16  C21 UNL     1      10.902  10.070  23.834  0.00  0.00    +0.009 A 
ATOM     17  C22 UNL     1      10.797  10.275  22.455  0.00  0.00    +0.046 A 
BRANCH  12  19
ATOM     18  C1  UNL     1      10.634  10.502  19.588  0.00  0.00    +0.277 C 
ATOM     19  O1  UNL     1       9.494  10.474  20.441  0.00  0.00    -0.495 OA
ENDBRANCH  12  19
ENDBRANCH  11  15
ENDBRANCH   5  11
ENDBRANCH   1   8
BRANCH   2  20
ATOM     20  C11 UNL     1      11.789  14.059  31.143  0.00  0.00    +0.055 A 
ATOM     21  C12 UNL     1      12.504  15.194  31.553  0.00  0.00    +0.123 A 
ATOM     22  N3  UNL     1      12.906  15.322  32.843  0.00  0.00    -0.262 NA
ATOM     23  C13 UNL     1      12.634  14.376  33.780  0.00  0.00    +0.119 A 
ATOM     24  C14 UNL     1      11.910  13.223  33.435  0.00  0.00    +0.004 A 
ATOM     25  C19 UNL     1      11.486  13.078  32.102  0.00  0.00    +0.024 A 
BRANCH  24  26
ATOM     26  C15 UNL     1      11.594  12.188  34.455  0.00  0.00    +0.021 A 
ATOM     27  C16 UNL     1      11.258  10.858  34.239  0.00  0.00    +0.143 A 
ATOM     28  N4  UNL     1      11.032  10.253  35.421  0.00  0.00    -0.179 NA
ATOM     29  N5  UNL     1      11.229  11.150  36.373  0.00  0.00    -0.274 N 
ATOM     30  C17 UNL     1      11.019  10.890  37.790  0.00  0.00    +0.172 C 
ATOM     31  C18 UNL     1      11.557  12.337  35.831  0.00  0.00    +0.116 A 
ENDBRANCH  24  26
ENDBRANCH   2  20
TORSDOF 6
ENDMDL
MODEL 2
REMARK VINA RESULT:    -6.324     13.154     14.373
REMARK INTER + INTRA:          -9.467
REMARK INTER:                  -8.625
REMARK INTRA:                  -0.841
REMARK UNBOUND:                -0.925
REMARK  Name = /home/qwerty/github/datacon2025hack/step_04_hit_selection/docking/ligands/lig_660.pdb
REMARK  8 active torsions:
REMARK  status: ('A' for Active; 'I' for Inactive)
REMARK    1  A    between atoms: C1_1  and  O1_2
REMARK    2  A    between atoms: O1_2  and  C2_3
REMARK    3  A    between atoms: C5_6  and  C6_7
REMARK    4  A    between atoms: C6_7  and  N1_8
REMARK    5  A    between atoms: C9_11  and  N2_12
REMARK    6  A    between atoms: C10_13  and  C11_15
REMARK    7  A    between atoms: C14_19  and  C15_20
REMARK    8  A    between atoms: N5_23  and  C17_24
REMARK                            x       y       z     vdW  Elec       q    Type
REMARK                         _______ _______ _______ _____ _____    ______ ____
ROOT
ATOM      1  N2  UNL     1      21.130   2.574  27.524  0.00  0.00    -0.300 N 
ATOM      2  C10 UNL     1      21.406   1.429  28.347  0.00  0.00    +0.246 C 
ATOM      3  O2  UNL     1      21.840   0.371  27.815  0.00  0.00    -0.270 OA
ATOM      4  H13 UNL     1      20.572   3.363  27.923  0.00  0.00    +0.150 HD
ENDROOT
BRANCH   1   8
ATOM      5  N1  UNL     1      21.500   4.718  24.915  0.00  0.00    -0.296 N 
ATOM      6  C7  UNL     1      22.879   4.565  25.339  0.00  0.00    +0.110 C 
ATOM      7  C8  UNL     1      22.975   3.164  25.972  0.00  0.00    +0.051 C 
ATOM      8  C9  UNL     1      21.536   2.625  26.116  0.00  0.00    +0.161 C 
ATOM      9  C20 UNL     1      20.733   3.621  25.371  0.00  0.00    +0.236 C 
ATOM     10  O3  UNL     1      19.494   3.515  25.168  0.00  0.00    -0.274 OA
BRANCH   5  11
ATOM     11  C6  UNL     1      20.971   5.894  24.227  0.00  0.00    +0.143 C 
BRANCH  11  15
ATOM     12  C2  UNL     1      22.508   5.990  20.189  0.00  0.00    +0.120 A 
ATOM     13  C3  UNL     1      21.397   5.184  20.506  0.00  0.00    +0.046 A 
ATOM     14  C4  UNL     1      20.893   5.159  21.811  0.00  0.00    +0.009 A 
ATOM     15  C5  UNL     1      21.486   5.940  22.814  0.00  0.00    -0.030 A 
ATOM     16  C21 UNL     1      22.598   6.737  22.499  0.00  0.00    +0.009 A 
ATOM     17  C22 UNL     1      23.101   6.761  21.195  0.00  0.00    +0.046 A 
BRANCH  12  19
ATOM     18  C1  UNL     1      24.323   6.604  18.583  0.00  0.00    +0.277 C 
ATOM     19  O1  UNL     1      23.050   6.048  18.897  0.00  0.00    -0.495 OA
ENDBRANCH  12  19
ENDBRANCH  11  15
ENDBRANCH   5  11
ENDBRANCH   1   8
BRANCH   2  20
ATOM     20  C11 UNL     1      21.177   1.465  29.810  0.00  0.00    +0.055 A 
ATOM     21  C12 UNL     1      20.562   0.383  30.456  0.00  0.00    +0.123 A 
ATOM     22  N3  UNL     1      20.354   0.412  31.797  0.00  0.00    -0.262 NA
ATOM     23  C13 UNL     1      20.732   1.469  32.561  0.00  0.00    +0.119 A 
ATOM     24  C14 UNL     1      21.367   2.577  31.977  0.00  0.00    +0.004 A 
ATOM     25  C19 UNL     1      21.589   2.560  30.589  0.00  0.00    +0.024 A 
BRANCH  24  26
ATOM     26  C15 UNL     1      21.799   3.733  32.806  0.00  0.00    +0.021 A 
ATOM     27  C16 UNL     1      21.130   4.303  33.882  0.00  0.00    +0.143 A 
ATOM     28  N4  UNL     1      21.845   5.341  34.357  0.00  0.00    -0.179 NA
ATOM     29  N5  UNL     1      22.945   5.435  33.629  0.00  0.00    -0.274 N 
ATOM     30  C17 UNL     1      23.944   6.481  33.799  0.00  0.00    +0.172 C 
ATOM     31  C18 UNL     1      22.950   4.491  32.672  0.00  0.00    +0.116 A 
ENDBRANCH  24  26
ENDBRANCH   2  20
TORSDOF 6
ENDMDL
MODEL 3
REMARK VINA RESULT:    -6.319      4.776     10.455
REMARK INTER + INTRA:          -9.460
REMARK INTER:                  -8.583
REMARK INTRA:                  -0.877
REMARK UNBOUND:                -0.925
REMARK  Name = /home/qwerty/github/datacon2025hack/step_04_hit_selection/docking/ligands/lig_660.pdb
REMARK  8 active torsions:
REMARK  status: ('A' for Active; 'I' for Inactive)
REMARK    1  A    between atoms: C1_1  and  O1_2
REMARK    2  A    between atoms: O1_2  and  C2_3
REMARK    3  A    between atoms: C5_6  and  C6_7
REMARK    4  A    between atoms: C6_7  and  N1_8
REMARK    5  A    between atoms: C9_11  and  N2_12
REMARK    6  A    between atoms: C10_13  and  C11_15
REMARK    7  A    between atoms: C14_19  and  C15_20
REMARK    8  A    between atoms: N5_23  and  C17_24
REMARK                            x       y       z     vdW  Elec       q    Type
REMARK                         _______ _______ _______ _____ _____    ______ ____
ROOT
ATOM      1  N2  UNL     1      13.141  14.133  34.164  0.00  0.00    -0.300 N 
ATOM      2  C10 UNL     1      11.879  14.191  33.479  0.00  0.00    +0.246 C 
ATOM      3  O2  UNL     1      10.808  14.188  34.147  0.00  0.00    -0.270 OA
ATOM      4  H13 UNL     1      14.005  13.916  33.617  0.00  0.00    +0.150 HD
ENDROOT
BRANCH   1   8
ATOM      5  N1  UNL     1      15.087  13.319  36.827  0.00  0.00    -0.296 N 
ATOM      6  C7  UNL     1      15.466  14.705  36.626  0.00  0.00    +0.110 C 
ATOM      7  C8  UNL     1      14.240  15.394  35.997  0.00  0.00    +0.051 C 
ATOM      8  C9  UNL     1      13.234  14.286  35.619  0.00  0.00    +0.161 C 
ATOM      9  C20 UNL     1      13.822  13.077  36.240  0.00  0.00    +0.236 C 
ATOM     10  O3  UNL     1      13.267  11.947  36.241  0.00  0.00    -0.274 OA
BRANCH   5  11
ATOM     11  C6  UNL     1      15.944  12.305  37.438  0.00  0.00    +0.143 C 
BRANCH  11  15
ATOM     12  C2  UNL     1      18.943  10.931  34.648  0.00  0.00    +0.120 A 
ATOM     13  C3  UNL     1      17.675  10.319  34.684  0.00  0.00    +0.046 A 
ATOM     14  C4  UNL     1      16.700  10.770  35.580  0.00  0.00    +0.009 A 
ATOM     15  C5  UNL     1      16.976  11.837  36.448  0.00  0.00    -0.030 A 
ATOM     16  C21 UNL     1      18.242  12.440  36.417  0.00  0.00    +0.009 A 
ATOM     17  C22 UNL     1      19.215  11.990  35.521  0.00  0.00    +0.046 A 
BRANCH  12  19
ATOM     18  C1  UNL     1      21.137   9.832  34.167  0.00  0.00    +0.277 C 
ATOM     19  O1  UNL     1      19.953  10.515  33.768  0.00  0.00    -0.495 OA
ENDBRANCH  12  19
ENDBRANCH  11  15
ENDBRANCH   5  11
ENDBRANCH   1   8
BRANCH   2  20
ATOM     20  C11 UNL     1      11.811  14.239  32.000  0.00  0.00    +0.055 A 
ATOM     21  C12 UNL     1      12.752  14.984  31.274  0.00  0.00    +0.123 A 
ATOM     22  N3  UNL     1      12.694  15.028  29.919  0.00  0.00    -0.262 NA
ATOM     23  C13 UNL     1      11.743  14.359  29.216  0.00  0.00    +0.119 A 
ATOM     24  C14 UNL     1      10.781  13.583  29.884  0.00  0.00    +0.004 A 
ATOM     25  C19 UNL     1      10.830  13.529  31.288  0.00  0.00    +0.024 A 
BRANCH  24  26
ATOM     26  C15 UNL     1       9.745  12.835  29.125  0.00  0.00    +0.021 A 
ATOM     27  C16 UNL     1       9.087  13.233  27.968  0.00  0.00    +0.143 A 
ATOM     28  N4  UNL     1       8.211  12.279  27.599  0.00  0.00    -0.179 NA
ATOM     29  N5  UNL     1       8.304  11.290  28.472  0.00  0.00    -0.274 N 
ATOM     30  C17 UNL     1       7.465  10.101  28.444  0.00  0.00    +0.172 C 
ATOM     31  C18 UNL     1       9.210  11.592  29.419  0.00  0.00    +0.116 A 
ENDBRANCH  24  26
ENDBRANCH   2  20
TORSDOF 6
ENDMDL
MODEL 4
REMARK VINA RESULT:    -6.252     12.610     14.036
REMARK INTER + INTRA:          -9.370
REMARK INTER:                  -8.798
REMARK INTRA:                  -0.572
REMARK UNBOUND:                -0.925
REMARK  Name = /home/qwerty/github/datacon2025hack/step_04_hit_selection/docking/ligands/lig_660.pdb
REMARK  8 active torsions:
REMARK  status: ('A' for Active; 'I' for Inactive)
REMARK    1  A    between atoms: C1_1  and  O1_2
REMARK    2  A    between atoms: O1_2  and  C2_3
REMARK    3  A    between atoms: C5_6  and  C6_7
REMARK    4  A    between atoms: C6_7  and  N1_8
REMARK    5  A    between atoms: C9_11  and  N2_12
REMARK    6  A    between atoms: C10_13  and  C11_15
REMARK    7  A    between atoms: C14_19  and  C15_20
REMARK    8  A    between atoms: N5_23  and  C17_24
REMARK                            x       y       z     vdW  Elec       q    Type
REMARK                         _______ _______ _______ _____ _____    ______ ____
ROOT
ATOM      1  N2  UNL     1      17.462   0.443  23.929  0.00  0.00    -0.300 N 
ATOM      2  C10 UNL     1      18.477  -0.087  24.798  0.00  0.00    +0.246 C 
ATOM      3  O2  UNL     1      18.446  -1.306  25.119  0.00  0.00    -0.270 OA
ATOM      4  H13 UNL     1      17.360   1.480  23.842  0.00  0.00    +0.150 HD
ENDROOT
BRANCH   1   8
ATOM      5  N1  UNL     1      15.448   0.309  21.197  0.00  0.00    -0.296 N 
ATOM      6  C7  UNL     1      16.568  -0.499  20.750  0.00  0.00    +0.110 C 
ATOM      7  C8  UNL     1      17.178  -1.119  22.022  0.00  0.00    +0.051 C 
ATOM      8  C9  UNL     1      16.513  -0.430  23.233  0.00  0.00    +0.161 C 
ATOM      9  C20 UNL     1      15.427   0.360  22.610  0.00  0.00    +0.236 C 
ATOM     10  O3  UNL     1      14.575   1.020  23.263  0.00  0.00    -0.274 OA
BRANCH   5  11
ATOM     11  C6  UNL     1      14.557   1.052  20.309  0.00  0.00    +0.143 C 
BRANCH  11  15
ATOM     12  C2  UNL     1      16.027   5.076  19.744  0.00  0.00    +0.120 A 
ATOM     13  C3  UNL     1      14.651   4.801  19.627  0.00  0.00    +0.046 A 
ATOM     14  C4  UNL     1      14.174   3.501  19.819  0.00  0.00    +0.009 A 
ATOM     15  C5  UNL     1      15.060   2.460  20.134  0.00  0.00    -0.030 A 
ATOM     16  C21 UNL     1      16.431   2.733  20.243  0.00  0.00    +0.009 A 
ATOM     17  C22 UNL     1      16.908   4.033  20.051  0.00  0.00    +0.046 A 
BRANCH  12  19
ATOM     18  C1  UNL     1      17.846   6.634  19.024  0.00  0.00    +0.277 C 
ATOM     19  O1  UNL     1      16.555   6.363  19.561  0.00  0.00    -0.495 OA
ENDBRANCH  12  19
ENDBRANCH  11  15
ENDBRANCH   5  11
ENDBRANCH   1   8
BRANCH   2  20
ATOM     20  C11 UNL     1      19.554   0.778  25.335  0.00  0.00    +0.055 A 
ATOM     21  C12 UNL     1      20.263   1.635  24.481  0.00  0.00    +0.123 A 
ATOM     22  N3  UNL     1      21.248   2.431  24.971  0.00  0.00    -0.262 NA
ATOM     23  C13 UNL     1      21.580   2.437  26.288  0.00  0.00    +0.119 A 
ATOM     24  C14 UNL     1      20.897   1.612  27.197  0.00  0.00    +0.004 A 
ATOM     25  C19 UNL     1      19.874   0.784  26.703  0.00  0.00    +0.024 A 
BRANCH  24  26
ATOM     26  C15 UNL     1      21.242   1.622  28.643  0.00  0.00    +0.021 A 
ATOM     27  C16 UNL     1      21.088   0.590  29.560  0.00  0.00    +0.143 A 
ATOM     28  N4  UNL     1      21.506   0.999  30.773  0.00  0.00    -0.179 NA
ATOM     29  N5  UNL     1      21.932   2.245  30.649  0.00  0.00    -0.274 N 
ATOM     30  C17 UNL     1      22.405   3.056  31.762  0.00  0.00    +0.172 C 
ATOM     31  C18 UNL     1      21.777   2.665  29.381  0.00  0.00    +0.116 A 
ENDBRANCH  24  26
ENDBRANCH   2  20
TORSDOF 6
ENDMDL
MODEL 5
REMARK VINA RESULT:    -6.250      2.936     10.592
REMARK INTER + INTRA:          -9.367
REMARK INTER:                  -8.518
REMARK INTRA:                  -0.849
REMARK UNBOUND:                -0.925
REMARK  Name = /home/qwerty/github/datacon2025hack/step_04_hit_selection/docking/ligands/lig_660.pdb
REMARK  8 active torsions:
REMARK  status: ('A' for Active; 'I' for Inactive)
REMARK    1  A    between atoms: C1_1  and  O1_2
REMARK    2  A    between atoms: O1_2  and  C2_3
REMARK    3  A    between atoms: C5_6  and  C6_7
REMARK    4  A    between atoms: C6_7  and  N1_8
REMARK    5  A    between atoms: C9_11  and  N2_12
REMARK    6  A    between atoms: C10_13  and  C11_15
REMARK    7  A    between atoms: C14_19  and  C15_20
REMARK    8  A    between atoms: N5_23  and  C17_24
REMARK                            x       y       z     vdW  Elec       q    Type
REMARK                         _______ _______ _______ _____ _____    ______ ____
ROOT
ATOM      1  N2  UNL     1       9.360  10.906  27.550  0.00  0.00    -0.300 N 
ATOM      2  C10 UNL     1       8.458  10.140  26.735  0.00  0.00    +0.246 C 
ATOM      3  O2  UNL     1       7.516   9.502  27.281  0.00  0.00    -0.270 OA
ATOM      4  H13 UNL     1      10.254  11.249  27.132  0.00  0.00    +0.150 HD
ENDROOT
BRANCH   1   8
ATOM      5  N1  UNL     1      10.648  12.437  30.295  0.00  0.00    -0.296 N 
ATOM      6  C7  UNL     1       9.616  13.383  29.915  0.00  0.00    +0.110 C 
ATOM      7  C8  UNL     1       8.526  12.559  29.203  0.00  0.00    +0.051 C 
ATOM      8  C9  UNL     1       9.098  11.144  28.973  0.00  0.00    +0.161 C 
ATOM      9  C20 UNL     1      10.360  11.166  29.746  0.00  0.00    +0.236 C 
ATOM     10  O3  UNL     1      11.111  10.165  29.895  0.00  0.00    -0.274 OA
BRANCH   5  11
ATOM     11  C6  UNL     1      11.860  12.786  31.033  0.00  0.00    +0.143 C 
BRANCH  11  15
ATOM     12  C2  UNL     1      11.039  12.643  35.273  0.00  0.00    +0.120 A 
ATOM     13  C3  UNL     1      11.257  11.453  34.552  0.00  0.00    +0.046 A 
ATOM     14  C4  UNL     1      11.532  11.499  33.182  0.00  0.00    +0.009 A 
ATOM     15  C5  UNL     1      11.598  12.731  32.513  0.00  0.00    -0.030 A 
ATOM     16  C21 UNL     1      11.372  13.916  33.230  0.00  0.00    +0.009 A 
ATOM     17  C22 UNL     1      11.098  13.869  34.600  0.00  0.00    +0.046 A 
BRANCH  12  19
ATOM     18  C1  UNL     1      10.889  11.517  37.500  0.00  0.00    +0.277 C 
ATOM     19  O1  UNL     1      10.760  12.650  36.647  0.00  0.00    -0.495 OA
ENDBRANCH  12  19
ENDBRANCH  11  15
ENDBRANCH   5  11
ENDBRANCH   1   8
BRANCH   2  20
ATOM     20  C11 UNL     1       8.622  10.075  25.264  0.00  0.00    +0.055 A 
ATOM     21  C12 UNL     1       7.500  10.140  24.425  0.00  0.00    +0.123 A 
ATOM     22  N3  UNL     1       7.649  10.084  23.076  0.00  0.00    -0.262 NA
ATOM     23  C13 UNL     1       8.869   9.971  22.490  0.00  0.00    +0.119 A 
ATOM     24  C14 UNL     1      10.032   9.916  23.275  0.00  0.00    +0.004 A 
ATOM     25  C19 UNL     1       9.893   9.974  24.673  0.00  0.00    +0.024 A 
BRANCH  24  26
ATOM     26  C15 UNL     1      11.373   9.808  22.644  0.00  0.00    +0.021 A 
ATOM     27  C16 UNL     1      11.821  10.435  21.488  0.00  0.00    +0.143 A 
ATOM     28  N4  UNL     1      13.093  10.067  21.240  0.00  0.00    -0.179 NA
ATOM     29  N5  UNL     1      13.467   9.245  22.207  0.00  0.00    -0.274 N 
ATOM     30  C17 UNL     1      14.762   8.583  22.253  0.00  0.00    +0.172 C 
ATOM     31  C18 UNL     1      12.452   9.050  23.068  0.00  0.00    +0.116 A 
ENDBRANCH  24  26
ENDBRANCH   2  20
TORSDOF 6
ENDMDL
MODEL 6
REMARK VINA RESULT:    -6.212      3.473      9.394
REMARK INTER + INTRA:          -9.316
REMARK INTER:                  -8.546
REMARK INTRA:                  -0.770
REMARK UNBOUND:                -0.925
REMARK  Name = /home/qwerty/github/datacon2025hack/step_04_hit_selection/docking/ligands/lig_660.pdb
REMARK  8 active torsions:
REMARK  status: ('A' for Active; 'I' for Inactive)
REMARK    1  A    between atoms: C1_1  and  O1_2
REMARK    2  A    between atoms: O1_2  and  C2_3
REMARK    3  A    between atoms: C5_6  and  C6_7
REMARK    4  A    between atoms: C6_7  and  N1_8
REMARK    5  A    between atoms: C9_11  and  N2_12
REMARK    6  A    between atoms: C10_13  and  C11_15
REMARK    7  A    between atoms: C14_19  and  C15_20
REMARK    8  A    between atoms: N5_23  and  C17_24
REMARK                            x       y       z     vdW  Elec       q    Type
REMARK                         _______ _______ _______ _____ _____    ______ ____
ROOT
ATOM      1  N2  UNL     1       9.208  10.945  27.293  0.00  0.00    -0.300 N 
ATOM      2  C10 UNL     1       8.431  10.068  26.462  0.00  0.00    +0.246 C 
ATOM      3  O2  UNL     1       7.583   9.299  26.991  0.00  0.00    -0.270 OA
ATOM      4  H13 UNL     1      10.050  11.414  26.888  0.00  0.00    +0.150 HD
ENDROOT
BRANCH   1   8
ATOM      5  N1  UNL     1       9.880  12.963  29.942  0.00  0.00    -0.296 N 
ATOM      6  C7  UNL     1       8.564  13.441  29.563  0.00  0.00    +0.110 C 
ATOM      7  C8  UNL     1       7.847  12.241  28.914  0.00  0.00    +0.051 C 
ATOM      8  C9  UNL     1       8.900  11.130  28.714  0.00  0.00    +0.161 C 
ATOM      9  C20 UNL     1      10.076  11.653  29.446  0.00  0.00    +0.236 C 
ATOM     10  O3  UNL     1      11.148  11.009  29.605  0.00  0.00    -0.274 OA
BRANCH   5  11
ATOM     11  C6  UNL     1      10.887  13.768  30.629  0.00  0.00    +0.143 C 
BRANCH  11  15
ATOM     12  C2  UNL     1      13.885  15.071  27.803  0.00  0.00    +0.120 A 
ATOM     13  C3  UNL     1      12.526  15.045  27.434  0.00  0.00    +0.046 A 
ATOM     14  C4  UNL     1      11.555  14.633  28.351  0.00  0.00    +0.009 A 
ATOM     15  C5  UNL     1      11.924  14.244  29.648  0.00  0.00    -0.030 A 
ATOM     16  C21 UNL     1      13.278  14.262  30.012  0.00  0.00    +0.009 A 
ATOM     17  C22 UNL     1      14.249  14.675  29.095  0.00  0.00    +0.046 A 
BRANCH  12  19
ATOM     18  C1  UNL     1      16.286  15.478  27.233  0.00  0.00    +0.277 C 
ATOM     19  O1  UNL     1      14.897  15.476  26.920  0.00  0.00    -0.495 OA
ENDBRANCH  12  19
ENDBRANCH  11  15
ENDBRANCH   5  11
ENDBRANCH   1   8
BRANCH   2  20
ATOM     20  C11 UNL     1       8.618  10.041  24.992  0.00  0.00    +0.055 A 
ATOM     21  C12 UNL     1       7.510  10.126  24.137  0.00  0.00    +0.123 A 
ATOM     22  N3  UNL     1       7.680  10.105  22.790  0.00  0.00    -0.262 NA
ATOM     23  C13 UNL     1       8.909  10.008  22.220  0.00  0.00    +0.119 A 
ATOM     24  C14 UNL     1      10.060   9.934  23.022  0.00  0.00    +0.004 A 
ATOM     25  C19 UNL     1       9.899   9.956  24.419  0.00  0.00    +0.024 A 
BRANCH  24  26
ATOM     26  C15 UNL     1      11.411   9.842  22.409  0.00  0.00    +0.021 A 
ATOM     27  C16 UNL     1      11.856  10.448  21.241  0.00  0.00    +0.143 A 
ATOM     28  N4  UNL     1      13.140  10.106  21.019  0.00  0.00    -0.179 NA
ATOM     29  N5  UNL     1      13.523   9.321  22.012  0.00  0.00    -0.274 N 
ATOM     30  C17 UNL     1      14.835   8.695  22.092  0.00  0.00    +0.172 C 
ATOM     31  C18 UNL     1      12.504   9.125  22.867  0.00  0.00    +0.116 A 
ENDBRANCH  24  26
ENDBRANCH   2  20
TORSDOF 6
ENDMDL
MODEL 7
REMARK VINA RESULT:    -6.165     13.393     17.141
REMARK INTER + INTRA:          -9.252
REMARK INTER:                  -8.953
REMARK INTRA:                  -0.299
REMARK UNBOUND:                -0.925
REMARK  Name = /home/qwerty/github/datacon2025hack/step_04_hit_selection/docking/ligands/lig_660.pdb
REMARK  8 active torsions:
REMARK  status: ('A' for Active; 'I' for Inactive)
REMARK    1  A    between atoms: C1_1  and  O1_2
REMARK    2  A    between atoms: O1_2  and  C2_3
REMARK    3  A    between atoms: C5_6  and  C6_7
REMARK    4  A    between atoms: C6_7  and  N1_8
REMARK    5  A    between atoms: C9_11  and  N2_12
REMARK    6  A    between atoms: C10_13  and  C11_15
REMARK    7  A    between atoms: C14_19  and  C15_20
REMARK    8  A    between atoms: N5_23  and  C17_24
REMARK                            x       y       z     vdW  Elec       q    Type
REMARK                         _______ _______ _______ _____ _____    ______ ____
ROOT
ATOM      1  N2  UNL     1      21.226   2.289  30.252  0.00  0.00    -0.300 N 
ATOM      2  C10 UNL     1      22.074   1.727  29.237  0.00  0.00    +0.246 C 
ATOM      3  O2  UNL     1      23.049   1.001  29.572  0.00  0.00    -0.270 OA
ATOM      4  H13 UNL     1      20.564   3.055  29.993  0.00  0.00    +0.150 HD
ENDROOT
BRANCH   1   8
ATOM      5  N1  UNL     1      19.435   2.104  33.132  0.00  0.00    -0.296 N 
ATOM      6  C7  UNL     1      19.394   0.721  32.697  0.00  0.00    +0.110 C 
ATOM      7  C8  UNL     1      20.679   0.495  31.877  0.00  0.00    +0.051 C 
ATOM      8  C9  UNL     1      21.330   1.877  31.655  0.00  0.00    +0.161 C 
ATOM      9  C20 UNL     1      20.529   2.766  32.527  0.00  0.00    +0.236 C 
ATOM     10  O3  UNL     1      20.782   3.987  32.708  0.00  0.00    -0.274 OA
BRANCH   5  11
ATOM     11  C6  UNL     1      18.423   2.738  33.974  0.00  0.00    +0.143 C 
BRANCH  11  15
ATOM     12  C2  UNL     1      16.956  -0.010  36.969  0.00  0.00    +0.120 A 
ATOM     13  C3  UNL     1      16.545  -0.137  35.628  0.00  0.00    +0.046 A 
ATOM     14  C4  UNL     1      17.027   0.746  34.656  0.00  0.00    +0.009 A 
ATOM     15  C5  UNL     1      17.926   1.764  35.007  0.00  0.00    -0.030 A 
ATOM     16  C21 UNL     1      18.329   1.895  36.345  0.00  0.00    +0.009 A 
ATOM     17  C22 UNL     1      17.847   1.011  37.315  0.00  0.00    +0.046 A 
BRANCH  12  19
ATOM     18  C1  UNL     1      16.663  -2.285  37.964  0.00  0.00    +0.277 C 
ATOM     19  O1  UNL     1      16.501  -0.870  37.979  0.00  0.00    -0.495 OA
ENDBRANCH  12  19
ENDBRANCH  11  15
ENDBRANCH   5  11
ENDBRANCH   1   8
BRANCH   2  20
ATOM     20  C11 UNL     1      21.828   1.994  27.800  0.00  0.00    +0.055 A 
ATOM     21  C12 UNL     1      22.656   2.880  27.095  0.00  0.00    +0.123 A 
ATOM     22  N3  UNL     1      22.435   3.124  25.778  0.00  0.00    -0.262 NA
ATOM     23  C13 UNL     1      21.425   2.528  25.094  0.00  0.00    +0.119 A 
ATOM     24  C14 UNL     1      20.569   1.619  25.740  0.00  0.00    +0.004 A 
ATOM     25  C19 UNL     1      20.788   1.356  27.104  0.00  0.00    +0.024 A 
BRANCH  24  26
ATOM     26  C15 UNL     1      19.469   0.949  24.998  0.00  0.00    +0.021 A 
ATOM     27  C16 UNL     1      18.662   1.490  24.006  0.00  0.00    +0.143 A 
ATOM     28  N4  UNL     1      17.774   0.565  23.594  0.00  0.00    -0.179 NA
ATOM     29  N5  UNL     1      18.003  -0.542  24.280  0.00  0.00    -0.274 N 
ATOM     30  C17 UNL     1      17.202  -1.752  24.160  0.00  0.00    +0.172 C 
ATOM     31  C18 UNL     1      19.011  -0.349  25.150  0.00  0.00    +0.116 A 
ENDBRANCH  24  26
ENDBRANCH   2  20
TORSDOF 6
ENDMDL
MODEL 8
REMARK VINA RESULT:    -6.093      9.510     12.590
REMARK INTER + INTRA:          -9.155
REMARK INTER:                  -8.286
REMARK INTRA:                  -0.869
REMARK UNBOUND:                -0.925
REMARK  Name = /home/qwerty/github/datacon2025hack/step_04_hit_selection/docking/ligands/lig_660.pdb
REMARK  8 active torsions:
REMARK  status: ('A' for Active; 'I' for Inactive)
REMARK    1  A    between atoms: C1_1  and  O1_2
REMARK    2  A    between atoms: O1_2  and  C2_3
REMARK    3  A    between atoms: C5_6  and  C6_7
REMARK    4  A    between atoms: C6_7  and  N1_8
REMARK    5  A    between atoms: C9_11  and  N2_12
REMARK    6  A    between atoms: C10_13  and  C11_15
REMARK    7  A    between atoms: C14_19  and  C15_20
REMARK    8  A    between atoms: N5_23  and  C17_24
REMARK                            x       y       z     vdW  Elec       q    Type
REMARK                         _______ _______ _______ _____ _____    ______ ____
ROOT
ATOM      1  N2  UNL     1      18.850   8.594  36.731  0.00  0.00    -0.300 N 
ATOM      2  C10 UNL     1      17.544   8.942  37.219  0.00  0.00    +0.246 C 
ATOM      3  O2  UNL     1      16.859   8.079  37.832  0.00  0.00    -0.270 OA
ATOM      4  H13 UNL     1      19.320   9.226  36.044  0.00  0.00    +0.150 HD
ENDROOT
BRANCH   1   8
ATOM      5  N1  UNL     1      21.398   6.526  35.852  0.00  0.00    -0.296 N 
ATOM      6  C7  UNL     1      21.979   7.202  36.997  0.00  0.00    +0.110 C 
ATOM      7  C8  UNL     1      20.796   7.594  37.903  0.00  0.00    +0.051 C 
ATOM      8  C9  UNL     1      19.500   7.335  37.105  0.00  0.00    +0.161 C 
ATOM      9  C20 UNL     1      19.987   6.615  35.907  0.00  0.00    +0.236 C 
ATOM     10  O3  UNL     1      19.231   6.138  35.018  0.00  0.00    -0.274 OA
BRANCH   5  11
ATOM     11  C6  UNL     1      22.167   5.949  34.752  0.00  0.00    +0.143 C 
BRANCH  11  15
ATOM     12  C2  UNL     1      23.995   9.046  32.356  0.00  0.00    +0.120 A 
ATOM     13  C3  UNL     1      22.598   9.018  32.532  0.00  0.00    +0.046 A 
ATOM     14  C4  UNL     1      22.007   8.021  33.315  0.00  0.00    +0.009 A 
ATOM     15  C5  UNL     1      22.799   7.044  33.935  0.00  0.00    -0.030 A 
ATOM     16  C21 UNL     1      24.190   7.068  33.752  0.00  0.00    +0.009 A 
ATOM     17  C22 UNL     1      24.781   8.065  32.970  0.00  0.00    +0.046 A 
BRANCH  12  19
ATOM     18  C1  UNL     1      24.066  10.636  30.427  0.00  0.00    +0.277 C 
ATOM     19  O1  UNL     1      24.635  10.024  31.580  0.00  0.00    -0.495 OA
ENDBRANCH  12  19
ENDBRANCH  11  15
ENDBRANCH   5  11
ENDBRANCH   1   8
BRANCH   2  20
ATOM     20  C11 UNL     1      16.982  10.297  37.004  0.00  0.00    +0.055 A 
ATOM     21  C12 UNL     1      17.836  11.394  36.818  0.00  0.00    +0.123 A 
ATOM     22  N3  UNL     1      17.323  12.635  36.617  0.00  0.00    -0.262 NA
ATOM     23  C13 UNL     1      15.984  12.864  36.582  0.00  0.00    +0.119 A 
ATOM     24  C14 UNL     1      15.077  11.804  36.747  0.00  0.00    +0.004 A 
ATOM     25  C19 UNL     1      15.595  10.514  36.955  0.00  0.00    +0.024 A 
BRANCH  24  26
ATOM     26  C15 UNL     1      13.611  12.042  36.696  0.00  0.00    +0.021 A 
ATOM     27  C16 UNL     1      12.597  11.187  37.110  0.00  0.00    +0.143 A 
ATOM     28  N4  UNL     1      11.402  11.764  36.883  0.00  0.00    -0.179 NA
ATOM     29  N5  UNL     1      11.626  12.956  36.357  0.00  0.00    -0.274 N 
ATOM     30  C17 UNL     1      10.574  13.860  35.915  0.00  0.00    +0.172 C 
ATOM     31  C18 UNL     1      12.948  13.158  36.214  0.00  0.00    +0.116 A 
ENDBRANCH  24  26
ENDBRANCH   2  20
TORSDOF 6
ENDMDL
MODEL 9
REMARK VINA RESULT:    -6.034      6.427      9.573
REMARK INTER + INTRA:          -9.076
REMARK INTER:                  -8.159
REMARK INTRA:                  -0.917
REMARK UNBOUND:                -0.925
REMARK  Name = /home/qwerty/github/datacon2025hack/step_04_hit_selection/docking/ligands/lig_660.pdb
REMARK  8 active torsions:
REMARK  status: ('A' for Active; 'I' for Inactive)
REMARK    1  A    between atoms: C1_1  and  O1_2
REMARK    2  A    between atoms: O1_2  and  C2_3
REMARK    3  A    between atoms: C5_6  and  C6_7
REMARK    4  A    between atoms: C6_7  and  N1_8
REMARK    5  A    between atoms: C9_11  and  N2_12
REMARK    6  A    between atoms: C10_13  and  C11_15
REMARK    7  A    between atoms: C14_19  and  C15_20
REMARK    8  A    between atoms: N5_23  and  C17_24
REMARK                            x       y       z     vdW  Elec       q    Type
REMARK                         _______ _______ _______ _____ _____    ______ ____
ROOT
ATOM      1  N2  UNL     1      15.368  12.207  35.977  0.00  0.00    -0.300 N 
ATOM      2  C10 UNL     1      16.626  12.660  36.504  0.00  0.00    +0.246 C 
ATOM      3  O2  UNL     1      16.641  13.428  37.504  0.00  0.00    -0.270 OA
ATOM      4  H13 UNL     1      15.346  11.759  35.033  0.00  0.00    +0.150 HD
ENDROOT
BRANCH   1   8
ATOM      5  N1  UNL     1      12.102  12.990  35.469  0.00  0.00    -0.296 N 
ATOM      6  C7  UNL     1      12.007  11.560  35.696  0.00  0.00    +0.110 C 
ATOM      7  C8  UNL     1      13.192  11.196  36.610  0.00  0.00    +0.051 C 
ATOM      8  C9  UNL     1      14.109  12.436  36.690  0.00  0.00    +0.161 C 
ATOM      9  C20 UNL     1      13.306  13.485  36.022  0.00  0.00    +0.236 C 
ATOM     10  O3  UNL     1      13.656  14.693  35.941  0.00  0.00    -0.274 OA
BRANCH   5  11
ATOM     11  C6  UNL     1      11.150  13.768  34.680  0.00  0.00    +0.143 C 
BRANCH  11  15
ATOM     12  C2  UNL     1      12.326  13.887  30.523  0.00  0.00    +0.120 A 
ATOM     13  C3  UNL     1      12.627  14.966  31.376  0.00  0.00    +0.046 A 
ATOM     14  C4  UNL     1      12.255  14.925  32.724  0.00  0.00    +0.009 A 
ATOM     15  C5  UNL     1      11.583  13.806  33.239  0.00  0.00    -0.030 A 
ATOM     16  C21 UNL     1      11.277  12.735  32.387  0.00  0.00    +0.009 A 
ATOM     17  C22 UNL     1      11.649  12.777  31.040  0.00  0.00    +0.046 A 
BRANCH  12  19
ATOM     18  C1  UNL     1      12.254  14.860  28.221  0.00  0.00    +0.277 C 
ATOM     19  O1  UNL     1      12.677  13.882  29.165  0.00  0.00    -0.495 OA
ENDBRANCH  12  19
ENDBRANCH  11  15
ENDBRANCH   5  11
ENDBRANCH   1   8
BRANCH   2  20
ATOM     20  C11 UNL     1      17.909  12.251  35.884  0.00  0.00    +0.055 A 
ATOM     21  C12 UNL     1      18.485  13.032  34.871  0.00  0.00    +0.123 A 
ATOM     22  N3  UNL     1      19.661  12.660  34.304  0.00  0.00    -0.262 NA
ATOM     23  C13 UNL     1      20.324  11.539  34.689  0.00  0.00    +0.119 A 
ATOM     24  C14 UNL     1      19.806  10.722  35.708  0.00  0.00    +0.004 A 
ATOM     25  C19 UNL     1      18.589  11.096  36.305  0.00  0.00    +0.024 A 
BRANCH  24  26
ATOM     26  C15 UNL     1      20.530   9.501  36.147  0.00  0.00    +0.021 A 
ATOM     27  C16 UNL     1      20.177   8.623  37.165  0.00  0.00    +0.143 A 
ATOM     28  N4  UNL     1      21.101   7.648  37.259  0.00  0.00    -0.179 NA
ATOM     29  N5  UNL     1      22.014   7.872  36.329  0.00  0.00    -0.274 N 
ATOM     30  C17 UNL     1      23.213   7.063  36.157  0.00  0.00    +0.172 C 
ATOM     31  C18 UNL     1      21.715   8.990  35.644  0.00  0.00    +0.116 A 
ENDBRANCH  24  26
ENDBRANCH   2  20
TORSDOF 6
ENDMDL
