MODEL 1
REMARK VINA RESULT:    -7.400      0.000      0.000
REMARK INTER + INTRA:         -10.453
REMARK INTER:                  -9.563
REMARK INTRA:                  -0.889
REMARK UNBOUND:                -0.889
REMARK  Name = /home/qwerty/github/datacon2025hack/step_04_hit_selection/docking/ligands/lig_345.pdb
REMARK  5 active torsions:
REMARK  status: ('A' for Active; 'I' for Inactive)
REMARK    1  A    between atoms: N1_3  and  C2_4
REMARK    2  A    between atoms: C4_6  and  N2_7
REMARK    3  A    between atoms: N2_7  and  C5_8
REMARK    4  A    between atoms: N4_18  and  C14_19
REMARK    5  A    between atoms: C17_22  and  C18_23
REMARK                            x       y       z     vdW  Elec       q    Type
REMARK                         _______ _______ _______ _____ _____    ______ ____
ROOT
ATOM      1  O1  UNL     1      14.251   1.705  20.410  0.00  0.00    -0.253 OA
ATOM      2  C1  UNL     1      13.982   2.186  21.547  0.00  0.00    +0.303 C 
ATOM      3  N1  UNL     1      12.813   3.002  21.715  0.00  0.00    -0.296 N 
ATOM      4  N3  UNL     1      14.843   1.888  22.664  0.00  0.00    -0.283 N 
ATOM      5  C12 UNL     1      14.848   2.742  23.857  0.00  0.00    +0.128 C 
ATOM      6  C13 UNL     1      16.263   2.851  24.437  0.00  0.00    +0.125 C 
ATOM      7  N4  UNL     1      16.904   1.534  24.582  0.00  0.00    -0.311 N 
ATOM      8  C24 UNL     1      16.273   0.348  23.989  0.00  0.00    +0.125 C 
ATOM      9  C25 UNL     1      15.677   0.679  22.616  0.00  0.00    +0.128 C 
ATOM     10  H1  UNL     1      12.453   3.167  22.682  0.00  0.00    +0.151 HD
ENDROOT
BRANCH   7  11
ATOM     11  C14 UNL     1      18.066   1.380  25.427  0.00  0.00    +0.144 A 
ATOM     12  C15 UNL     1      17.996   1.565  26.816  0.00  0.00    +0.047 A 
ATOM     13  C16 UNL     1      19.142   1.405  27.589  0.00  0.00    +0.033 A 
ATOM     14  C17 UNL     1      20.346   1.048  26.971  0.00  0.00    +0.096 A 
ATOM     15  N5  UNL     1      20.364   0.899  25.619  0.00  0.00    -0.147 NA
ATOM     16  N6  UNL     1      19.268   1.056  24.877  0.00  0.00    -0.134 NA
BRANCH  14  17
ATOM     17  C18 UNL     1      21.600   0.874  27.742  0.00  0.00    +0.040 A 
ATOM     18  C19 UNL     1      22.000  -0.420  28.123  0.00  0.00    +0.051 A 
ATOM     19  C20 UNL     1      23.181  -0.614  28.846  0.00  0.00    +0.124 A 
ATOM     20  F1  UNL     1      23.563  -1.867  29.196  0.00  0.00    -0.205 F 
ATOM     21  C21 UNL     1      23.970   0.480  29.205  0.00  0.00    +0.041 A 
ATOM     22  C22 UNL     1      23.574   1.771  28.852  0.00  0.00    +0.042 A 
ATOM     23  C23 UNL     1      22.394   1.975  28.128  0.00  0.00    +0.133 A 
ATOM     24  F2  UNL     1      22.010   3.247  27.854  0.00  0.00    -0.205 F 
ENDBRANCH  14  17
ENDBRANCH   7  11
BRANCH   3  25
ATOM     25  C2  UNL     1      11.976   3.392  20.577  0.00  0.00    +0.078 C 
ATOM     26  C3  UNL     1      12.496   4.640  19.868  0.00  0.00    +0.044 C 
ATOM     27  C4  UNL     1      11.259   5.411  20.332  0.00  0.00    +0.074 C 
ATOM     28  C11 UNL     1      10.732   4.155  21.022  0.00  0.00    +0.044 C 
BRANCH  27  29
ATOM     29  N2  UNL     1      11.569   6.480  21.290  0.00  0.00    -0.341 N 
ATOM     30  H6  UNL     1      11.752   6.225  22.287  0.00  0.00    +0.146 HD
BRANCH  29  31
ATOM     31  C5  UNL     1      11.675   7.867  20.922  0.00  0.00    +0.027 A 
ATOM     32  C6  UNL     1      12.622   8.680  21.569  0.00  0.00    +0.023 A 
ATOM     33  C7  UNL     1      12.745  10.032  21.234  0.00  0.00    +0.002 A 
ATOM     34  C8  UNL     1      11.921  10.587  20.252  0.00  0.00    +0.000 A 
ATOM     35  C9  UNL     1      10.977   9.790  19.601  0.00  0.00    +0.002 A 
ATOM     36  C10 UNL     1      10.850   8.438  19.932  0.00  0.00    +0.023 A 
ENDBRANCH  29  31
ENDBRANCH  27  29
ENDBRANCH   3  25
TORSDOF 5
ENDMDL
MODEL 2
REMARK VINA RESULT:    -7.126     10.464     12.629
REMARK INTER + INTRA:         -10.098
REMARK INTER:                  -9.168
REMARK INTRA:                  -0.930
REMARK UNBOUND:                -0.889
REMARK  Name = /home/qwerty/github/datacon2025hack/step_04_hit_selection/docking/ligands/lig_345.pdb
REMARK  5 active torsions:
REMARK  status: ('A' for Active; 'I' for Inactive)
REMARK    1  A    between atoms: N1_3  and  C2_4
REMARK    2  A    between atoms: C4_6  and  N2_7
REMARK    3  A    between atoms: N2_7  and  C5_8
REMARK    4  A    between atoms: N4_18  and  C14_19
REMARK    5  A    between atoms: C17_22  and  C18_23
REMARK                            x       y       z     vdW  Elec       q    Type
REMARK                         _______ _______ _______ _____ _____    ______ ____
ROOT
ATOM      1  O1  UNL     1      20.057   9.427  37.171  0.00  0.00    -0.253 OA
ATOM      2  C1  UNL     1      19.461   9.402  36.057  0.00  0.00    +0.303 C 
ATOM      3  N1  UNL     1      18.372  10.305  35.814  0.00  0.00    -0.296 N 
ATOM      4  N3  UNL     1      19.900   8.481  35.039  0.00  0.00    -0.283 N 
ATOM      5  C12 UNL     1      19.008   8.097  33.939  0.00  0.00    +0.128 C 
ATOM      6  C13 UNL     1      19.221   6.626  33.560  0.00  0.00    +0.125 C 
ATOM      7  N4  UNL     1      20.645   6.303  33.380  0.00  0.00    -0.311 N 
ATOM      8  C24 UNL     1      21.670   7.279  33.776  0.00  0.00    +0.125 C 
ATOM      9  C25 UNL     1      21.279   7.975  35.084  0.00  0.00    +0.128 C 
ATOM     10  H1  UNL     1      18.069  10.468  34.827  0.00  0.00    +0.151 HD
ENDROOT
BRANCH   7  11
ATOM     11  C14 UNL     1      21.035   5.098  32.682  0.00  0.00    +0.144 A 
ATOM     12  C15 UNL     1      21.506   3.971  33.370  0.00  0.00    +0.047 A 
ATOM     13  C16 UNL     1      21.869   2.833  32.655  0.00  0.00    +0.033 A 
ATOM     14  C17 UNL     1      21.746   2.827  31.261  0.00  0.00    +0.096 A 
ATOM     15  N5  UNL     1      21.301   3.953  30.641  0.00  0.00    -0.147 NA
ATOM     16  N6  UNL     1      20.958   5.045  31.325  0.00  0.00    -0.134 NA
BRANCH  14  17
ATOM     17  C18 UNL     1      22.127   1.647  30.447  0.00  0.00    +0.040 A 
ATOM     18  C19 UNL     1      23.460   1.509  30.017  0.00  0.00    +0.051 A 
ATOM     19  C20 UNL     1      23.849   0.405  29.254  0.00  0.00    +0.124 A 
ATOM     20  F1  UNL     1      25.139   0.276  28.857  0.00  0.00    -0.205 F 
ATOM     21  C21 UNL     1      22.912  -0.569  28.902  0.00  0.00    +0.041 A 
ATOM     22  C22 UNL     1      21.583  -0.434  29.304  0.00  0.00    +0.042 A 
ATOM     23  C23 UNL     1      21.184   0.668  30.068  0.00  0.00    +0.133 A 
ATOM     24  F2  UNL     1      19.872   0.797  30.390  0.00  0.00    -0.205 F 
ENDBRANCH  14  17
ENDBRANCH   7  11
BRANCH   3  25
ATOM     25  C2  UNL     1      17.851  11.185  36.865  0.00  0.00    +0.078 C 
ATOM     26  C3  UNL     1      16.598  10.622  37.530  0.00  0.00    +0.044 C 
ATOM     27  C4  UNL     1      15.776  11.767  36.935  0.00  0.00    +0.074 C 
ATOM     28  C11 UNL     1      17.036  12.338  36.287  0.00  0.00    +0.044 C 
BRANCH  27  29
ATOM     29  N2  UNL     1      14.797  11.317  35.937  0.00  0.00    -0.341 N 
ATOM     30  H6  UNL     1      15.076  10.574  35.257  0.00  0.00    +0.146 HD
BRANCH  29  31
ATOM     31  C5  UNL     1      13.449  11.819  35.868  0.00  0.00    +0.027 A 
ATOM     32  C6  UNL     1      13.062  12.599  34.765  0.00  0.00    +0.023 A 
ATOM     33  C7  UNL     1      11.760  13.101  34.673  0.00  0.00    +0.002 A 
ATOM     34  C8  UNL     1      10.834  12.833  35.682  0.00  0.00    +0.000 A 
ATOM     35  C9  UNL     1      11.206  12.059  36.784  0.00  0.00    +0.002 A 
ATOM     36  C10 UNL     1      12.505  11.554  36.881  0.00  0.00    +0.023 A 
ENDBRANCH  29  31
ENDBRANCH  27  29
ENDBRANCH   3  25
TORSDOF 5
ENDMDL
MODEL 3
REMARK VINA RESULT:    -7.087      7.022     11.948
REMARK INTER + INTRA:         -10.047
REMARK INTER:                  -9.106
REMARK INTRA:                  -0.941
REMARK UNBOUND:                -0.889
REMARK  Name = /home/qwerty/github/datacon2025hack/step_04_hit_selection/docking/ligands/lig_345.pdb
REMARK  5 active torsions:
REMARK  status: ('A' for Active; 'I' for Inactive)
REMARK    1  A    between atoms: N1_3  and  C2_4
REMARK    2  A    between atoms: C4_6  and  N2_7
REMARK    3  A    between atoms: N2_7  and  C5_8
REMARK    4  A    between atoms: N4_18  and  C14_19
REMARK    5  A    between atoms: C17_22  and  C18_23
REMARK                            x       y       z     vdW  Elec       q    Type
REMARK                         _______ _______ _______ _____ _____    ______ ____
ROOT
ATOM      1  O1  UNL     1      21.777   2.920  33.611  0.00  0.00    -0.253 OA
ATOM      2  C1  UNL     1      21.958   3.669  32.610  0.00  0.00    +0.303 C 
ATOM      3  N1  UNL     1      22.469   4.997  32.799  0.00  0.00    -0.296 N 
ATOM      4  N3  UNL     1      21.667   3.169  31.289  0.00  0.00    -0.283 N 
ATOM      5  C12 UNL     1      21.431   4.091  30.172  0.00  0.00    +0.128 C 
ATOM      6  C13 UNL     1      20.358   3.534  29.231  0.00  0.00    +0.125 C 
ATOM      7  N4  UNL     1      20.615   2.131  28.868  0.00  0.00    -0.311 N 
ATOM      8  C24 UNL     1      21.664   1.378  29.568  0.00  0.00    +0.125 C 
ATOM      9  C25 UNL     1      21.670   1.717  31.062  0.00  0.00    +0.128 C 
ATOM     10  H1  UNL     1      22.866   5.502  31.974  0.00  0.00    +0.151 HD
ENDROOT
BRANCH   7  11
ATOM     11  C14 UNL     1      19.946   1.539  27.731  0.00  0.00    +0.144 A 
ATOM     12  C15 UNL     1      20.657   1.115  26.599  0.00  0.00    +0.047 A 
ATOM     13  C16 UNL     1      19.970   0.550  25.529  0.00  0.00    +0.033 A 
ATOM     14  C17 UNL     1      18.580   0.401  25.603  0.00  0.00    +0.096 A 
ATOM     15  N5  UNL     1      17.937   0.846  26.716  0.00  0.00    -0.147 NA
ATOM     16  N6  UNL     1      18.594   1.391  27.740  0.00  0.00    -0.134 NA
BRANCH  14  17
ATOM     17  C18 UNL     1      17.795  -0.184  24.490  0.00  0.00    +0.040 A 
ATOM     18  C19 UNL     1      17.381   0.644  23.430  0.00  0.00    +0.051 A 
ATOM     19  C20 UNL     1      16.645   0.118  22.365  0.00  0.00    +0.124 A 
ATOM     20  F1  UNL     1      16.263   0.924  21.342  0.00  0.00    -0.205 F 
ATOM     21  C21 UNL     1      16.304  -1.235  22.349  0.00  0.00    +0.041 A 
ATOM     22  C22 UNL     1      16.690  -2.063  23.404  0.00  0.00    +0.042 A 
ATOM     23  C23 UNL     1      17.427  -1.546  24.474  0.00  0.00    +0.133 A 
ATOM     24  F2  UNL     1      17.734  -2.367  25.510  0.00  0.00    -0.205 F 
ENDBRANCH  14  17
ENDBRANCH   7  11
BRANCH   3  25
ATOM     25  C2  UNL     1      22.684   5.557  34.137  0.00  0.00    +0.078 C 
ATOM     26  C3  UNL     1      21.440   6.247  34.689  0.00  0.00    +0.044 C 
ATOM     27  C4  UNL     1      22.162   7.593  34.614  0.00  0.00    +0.074 C 
ATOM     28  C11 UNL     1      23.412   6.896  34.081  0.00  0.00    +0.044 C 
BRANCH  27  29
ATOM     29  N2  UNL     1      21.576   8.509  33.627  0.00  0.00    -0.341 N 
ATOM     30  H6  UNL     1      21.550   8.219  32.623  0.00  0.00    +0.146 HD
BRANCH  29  31
ATOM     31  C5  UNL     1      20.995   9.780  33.973  0.00  0.00    +0.027 A 
ATOM     32  C6  UNL     1      20.984  10.189  35.318  0.00  0.00    +0.023 A 
ATOM     33  C7  UNL     1      20.424  11.416  35.683  0.00  0.00    +0.002 A 
ATOM     34  C8  UNL     1      19.866  12.247  34.710  0.00  0.00    +0.000 A 
ATOM     35  C9  UNL     1      19.871  11.854  33.369  0.00  0.00    +0.002 A 
ATOM     36  C10 UNL     1      20.429  10.628  32.999  0.00  0.00    +0.023 A 
ENDBRANCH  29  31
ENDBRANCH  27  29
ENDBRANCH   3  25
TORSDOF 5
ENDMDL
MODEL 4
REMARK VINA RESULT:    -7.052      9.353     12.393
REMARK INTER + INTRA:         -10.002
REMARK INTER:                  -9.626
REMARK INTRA:                  -0.376
REMARK UNBOUND:                -0.889
REMARK  Name = /home/qwerty/github/datacon2025hack/step_04_hit_selection/docking/ligands/lig_345.pdb
REMARK  5 active torsions:
REMARK  status: ('A' for Active; 'I' for Inactive)
REMARK    1  A    between atoms: N1_3  and  C2_4
REMARK    2  A    between atoms: C4_6  and  N2_7
REMARK    3  A    between atoms: N2_7  and  C5_8
REMARK    4  A    between atoms: N4_18  and  C14_19
REMARK    5  A    between atoms: C17_22  and  C18_23
REMARK                            x       y       z     vdW  Elec       q    Type
REMARK                         _______ _______ _______ _____ _____    ______ ____
ROOT
ATOM      1  O1  UNL     1      19.541  14.102  19.880  0.00  0.00    -0.253 OA
ATOM      2  C1  UNL     1      20.362  13.174  19.636  0.00  0.00    +0.303 C 
ATOM      3  N1  UNL     1      21.683  13.497  19.174  0.00  0.00    -0.296 N 
ATOM      4  N3  UNL     1      19.967  11.804  19.847  0.00  0.00    -0.283 N 
ATOM      5  C12 UNL     1      20.680  10.706  19.184  0.00  0.00    +0.128 C 
ATOM      6  C13 UNL     1      19.705   9.588  18.795  0.00  0.00    +0.125 C 
ATOM      7  N4  UNL     1      18.826   9.207  19.912  0.00  0.00    -0.311 N 
ATOM      8  C24 UNL     1      18.802  10.025  21.132  0.00  0.00    +0.125 C 
ATOM      9  C25 UNL     1      18.875  11.516  20.787  0.00  0.00    +0.128 C 
ATOM     10  H1  UNL     1      22.427  12.765  19.235  0.00  0.00    +0.151 HD
ENDROOT
BRANCH   7  11
ATOM     11  C14 UNL     1      18.102   7.956  19.874  0.00  0.00    +0.144 A 
ATOM     12  C15 UNL     1      18.043   7.176  18.710  0.00  0.00    +0.047 A 
ATOM     13  C16 UNL     1      17.333   5.979  18.721  0.00  0.00    +0.033 A 
ATOM     14  C17 UNL     1      16.700   5.564  19.898  0.00  0.00    +0.096 A 
ATOM     15  N5  UNL     1      16.772   6.367  20.994  0.00  0.00    -0.147 NA
ATOM     16  N6  UNL     1      17.448   7.516  20.982  0.00  0.00    -0.134 NA
BRANCH  14  17
ATOM     17  C18 UNL     1      15.922   4.304  19.966  0.00  0.00    +0.040 A 
ATOM     18  C19 UNL     1      16.605   3.078  20.067  0.00  0.00    +0.051 A 
ATOM     19  C20 UNL     1      15.896   1.875  20.138  0.00  0.00    +0.124 A 
ATOM     20  F1  UNL     1      16.565   0.700  20.249  0.00  0.00    -0.205 F 
ATOM     21  C21 UNL     1      14.501   1.880  20.100  0.00  0.00    +0.041 A 
ATOM     22  C22 UNL     1      13.812   3.088  19.978  0.00  0.00    +0.042 A 
ATOM     23  C23 UNL     1      14.512   4.297  19.906  0.00  0.00    +0.133 A 
ATOM     24  F2  UNL     1      13.812   5.445  19.729  0.00  0.00    -0.205 F 
ENDBRANCH  14  17
ENDBRANCH   7  11
BRANCH   3  25
ATOM     25  C2  UNL     1      22.075  14.875  18.865  0.00  0.00    +0.078 C 
ATOM     26  C3  UNL     1      23.545  14.989  18.468  0.00  0.00    +0.044 C 
ATOM     27  C4  UNL     1      23.822  15.784  19.746  0.00  0.00    +0.074 C 
ATOM     28  C11 UNL     1      22.346  15.684  20.130  0.00  0.00    +0.044 C 
BRANCH  27  29
ATOM     29  N2  UNL     1      24.688  15.071  20.693  0.00  0.00    -0.341 N 
ATOM     30  H6  UNL     1      25.571  14.637  20.339  0.00  0.00    +0.146 HD
BRANCH  29  31
ATOM     31  C5  UNL     1      24.408  14.970  22.101  0.00  0.00    +0.027 A 
ATOM     32  C6  UNL     1      24.756  16.034  22.950  0.00  0.00    +0.023 A 
ATOM     33  C7  UNL     1      24.497  15.962  24.322  0.00  0.00    +0.002 A 
ATOM     34  C8  UNL     1      23.893  14.825  24.861  0.00  0.00    +0.000 A 
ATOM     35  C9  UNL     1      23.542  13.759  24.029  0.00  0.00    +0.002 A 
ATOM     36  C10 UNL     1      23.798  13.826  22.656  0.00  0.00    +0.023 A 
ENDBRANCH  29  31
ENDBRANCH  27  29
ENDBRANCH   3  25
TORSDOF 5
ENDMDL
MODEL 5
REMARK VINA RESULT:    -7.049      2.036      2.449
REMARK INTER + INTRA:          -9.999
REMARK INTER:                  -9.059
REMARK INTRA:                  -0.940
REMARK UNBOUND:                -0.889
REMARK  Name = /home/qwerty/github/datacon2025hack/step_04_hit_selection/docking/ligands/lig_345.pdb
REMARK  5 active torsions:
REMARK  status: ('A' for Active; 'I' for Inactive)
REMARK    1  A    between atoms: N1_3  and  C2_4
REMARK    2  A    between atoms: C4_6  and  N2_7
REMARK    3  A    between atoms: N2_7  and  C5_8
REMARK    4  A    between atoms: N4_18  and  C14_19
REMARK    5  A    between atoms: C17_22  and  C18_23
REMARK                            x       y       z     vdW  Elec       q    Type
REMARK                         _______ _______ _______ _____ _____    ______ ____
ROOT
ATOM      1  O1  UNL     1      13.241   2.531  20.310  0.00  0.00    -0.253 OA
ATOM      2  C1  UNL     1      12.887   2.827  21.485  0.00  0.00    +0.303 C 
ATOM      3  N1  UNL     1      11.649   3.522  21.701  0.00  0.00    -0.296 N 
ATOM      4  N3  UNL     1      13.722   2.443  22.595  0.00  0.00    -0.283 N 
ATOM      5  C12 UNL     1      13.607   3.121  23.892  0.00  0.00    +0.128 C 
ATOM      6  C13 UNL     1      14.983   3.255  24.555  0.00  0.00    +0.125 C 
ATOM      7  N4  UNL     1      15.723   1.983  24.554  0.00  0.00    -0.311 N 
ATOM      8  C24 UNL     1      15.217   0.846  23.773  0.00  0.00    +0.125 C 
ATOM      9  C25 UNL     1      14.653   1.319  22.429  0.00  0.00    +0.128 C 
ATOM     10  H1  UNL     1      11.237   3.523  22.661  0.00  0.00    +0.151 HD
ENDROOT
BRANCH   7  11
ATOM     11  C14 UNL     1      16.858   1.801  25.431  0.00  0.00    +0.144 A 
ATOM     12  C15 UNL     1      17.793   0.777  25.220  0.00  0.00    +0.047 A 
ATOM     13  C16 UNL     1      18.870   0.641  26.091  0.00  0.00    +0.033 A 
ATOM     14  C17 UNL     1      19.013   1.538  27.156  0.00  0.00    +0.096 A 
ATOM     15  N5  UNL     1      18.068   2.502  27.326  0.00  0.00    -0.147 NA
ATOM     16  N6  UNL     1      17.033   2.629  26.495  0.00  0.00    -0.134 NA
BRANCH  14  17
ATOM     17  C18 UNL     1      20.134   1.435  28.120  0.00  0.00    +0.040 A 
ATOM     18  C19 UNL     1      21.451   1.644  27.670  0.00  0.00    +0.051 A 
ATOM     19  C20 UNL     1      22.527   1.560  28.558  0.00  0.00    +0.124 A 
ATOM     20  F1  UNL     1      23.790   1.776  28.115  0.00  0.00    -0.205 F 
ATOM     21  C21 UNL     1      22.303   1.256  29.902  0.00  0.00    +0.041 A 
ATOM     22  C22 UNL     1      21.004   1.026  30.358  0.00  0.00    +0.042 A 
ATOM     23  C23 UNL     1      19.921   1.109  29.476  0.00  0.00    +0.133 A 
ATOM     24  F2  UNL     1      18.680   0.821  29.941  0.00  0.00    -0.205 F 
ENDBRANCH  14  17
ENDBRANCH   7  11
BRANCH   3  25
ATOM     25  C2  UNL     1      10.831   4.002  20.583  0.00  0.00    +0.078 C 
ATOM     26  C3  UNL     1      11.206   5.417  20.148  0.00  0.00    +0.044 C 
ATOM     27  C4  UNL     1       9.847   5.920  20.636  0.00  0.00    +0.074 C 
ATOM     28  C11 UNL     1       9.467   4.500  21.051  0.00  0.00    +0.044 C 
BRANCH  27  29
ATOM     29  N2  UNL     1       9.945   6.825  21.789  0.00  0.00    -0.341 N 
ATOM     30  H6  UNL     1      10.474   6.509  22.634  0.00  0.00    +0.146 HD
BRANCH  29  31
ATOM     31  C5  UNL     1       9.382   8.150  21.806  0.00  0.00    +0.027 A 
ATOM     32  C6  UNL     1       9.686   9.040  20.761  0.00  0.00    +0.023 A 
ATOM     33  C7  UNL     1       9.156  10.333  20.753  0.00  0.00    +0.002 A 
ATOM     34  C8  UNL     1       8.320  10.753  21.789  0.00  0.00    +0.000 A 
ATOM     35  C9  UNL     1       8.010   9.879  22.834  0.00  0.00    +0.002 A 
ATOM     36  C10 UNL     1       8.537   8.585  22.847  0.00  0.00    +0.023 A 
ENDBRANCH  29  31
ENDBRANCH  27  29
ENDBRANCH   3  25
TORSDOF 5
ENDMDL
MODEL 6
REMARK VINA RESULT:    -7.040     10.582     15.066
REMARK INTER + INTRA:          -9.987
REMARK INTER:                  -9.107
REMARK INTRA:                  -0.880
REMARK UNBOUND:                -0.889
REMARK  Name = /home/qwerty/github/datacon2025hack/step_04_hit_selection/docking/ligands/lig_345.pdb
REMARK  5 active torsions:
REMARK  status: ('A' for Active; 'I' for Inactive)
REMARK    1  A    between atoms: N1_3  and  C2_4
REMARK    2  A    between atoms: C4_6  and  N2_7
REMARK    3  A    between atoms: N2_7  and  C5_8
REMARK    4  A    between atoms: N4_18  and  C14_19
REMARK    5  A    between atoms: C17_22  and  C18_23
REMARK                            x       y       z     vdW  Elec       q    Type
REMARK                         _______ _______ _______ _____ _____    ______ ____
ROOT
ATOM      1  O1  UNL     1       7.087   0.805  28.185  0.00  0.00    -0.253 OA
ATOM      2  C1  UNL     1       8.051   1.271  28.855  0.00  0.00    +0.303 C 
ATOM      3  N1  UNL     1       8.806   0.402  29.713  0.00  0.00    -0.296 N 
ATOM      4  N3  UNL     1       8.392   2.666  28.730  0.00  0.00    -0.283 N 
ATOM      5  C12 UNL     1       9.172   3.345  29.771  0.00  0.00    +0.128 C 
ATOM      6  C13 UNL     1       8.696   4.791  29.945  0.00  0.00    +0.125 C 
ATOM      7  N4  UNL     1       8.585   5.496  28.657  0.00  0.00    -0.311 N 
ATOM      8  C24 UNL     1       8.706   4.742  27.402  0.00  0.00    +0.125 C 
ATOM      9  C25 UNL     1       7.998   3.388  27.512  0.00  0.00    +0.128 C 
ATOM     10  H1  UNL     1       9.745   0.719  30.044  0.00  0.00    +0.151 HD
ENDROOT
BRANCH   7  11
ATOM     11  C14 UNL     1       8.508   6.939  28.622  0.00  0.00    +0.144 A 
ATOM     12  C15 UNL     1       7.390   7.602  28.097  0.00  0.00    +0.047 A 
ATOM     13  C16 UNL     1       7.360   8.994  28.084  0.00  0.00    +0.033 A 
ATOM     14  C17 UNL     1       8.441   9.710  28.610  0.00  0.00    +0.096 A 
ATOM     15  N5  UNL     1       9.509   9.019  29.090  0.00  0.00    -0.147 NA
ATOM     16  N6  UNL     1       9.540   7.686  29.098  0.00  0.00    -0.134 NA
BRANCH  14  17
ATOM     17  C18 UNL     1       8.469  11.193  28.613  0.00  0.00    +0.040 A 
ATOM     18  C19 UNL     1       7.635  11.895  29.502  0.00  0.00    +0.051 A 
ATOM     19  C20 UNL     1       7.645  13.293  29.531  0.00  0.00    +0.124 A 
ATOM     20  F1  UNL     1       6.845  13.958  30.402  0.00  0.00    -0.205 F 
ATOM     21  C21 UNL     1       8.479  14.005  28.669  0.00  0.00    +0.041 A 
ATOM     22  C22 UNL     1       9.297  13.322  27.768  0.00  0.00    +0.042 A 
ATOM     23  C23 UNL     1       9.294  11.923  27.731  0.00  0.00    +0.133 A 
ATOM     24  F2  UNL     1      10.057  11.295  26.802  0.00  0.00    -0.205 F 
ENDBRANCH  14  17
ENDBRANCH   7  11
BRANCH   3  25
ATOM     25  C2  UNL     1       8.421  -0.996  29.925  0.00  0.00    +0.078 C 
ATOM     26  C3  UNL     1       7.722  -1.214  31.265  0.00  0.00    +0.044 C 
ATOM     27  C4  UNL     1       8.912  -2.048  31.742  0.00  0.00    +0.074 C 
ATOM     28  C11 UNL     1       9.599  -1.845  30.393  0.00  0.00    +0.044 C 
BRANCH  27  29
ATOM     29  N2  UNL     1       9.656  -1.419  32.841  0.00  0.00    -0.341 N 
ATOM     30  H6  UNL     1      10.373  -0.693  32.613  0.00  0.00    +0.146 HD
BRANCH  29  31
ATOM     31  C5  UNL     1       9.423  -1.719  34.229  0.00  0.00    +0.027 A 
ATOM     32  C6  UNL     1       8.544  -2.761  34.570  0.00  0.00    +0.023 A 
ATOM     33  C7  UNL     1       8.297  -3.074  35.909  0.00  0.00    +0.002 A 
ATOM     34  C8  UNL     1       8.922  -2.346  36.924  0.00  0.00    +0.000 A 
ATOM     35  C9  UNL     1       9.799  -1.308  36.600  0.00  0.00    +0.002 A 
ATOM     36  C10 UNL     1      10.049  -0.992  35.262  0.00  0.00    +0.023 A 
ENDBRANCH  29  31
ENDBRANCH  27  29
ENDBRANCH   3  25
TORSDOF 5
ENDMDL
MODEL 7
REMARK VINA RESULT:    -7.016      7.016      8.122
REMARK INTER + INTRA:          -9.956
REMARK INTER:                  -9.252
REMARK INTRA:                  -0.704
REMARK UNBOUND:                -0.889
REMARK  Name = /home/qwerty/github/datacon2025hack/step_04_hit_selection/docking/ligands/lig_345.pdb
REMARK  5 active torsions:
REMARK  status: ('A' for Active; 'I' for Inactive)
REMARK    1  A    between atoms: N1_3  and  C2_4
REMARK    2  A    between atoms: C4_6  and  N2_7
REMARK    3  A    between atoms: N2_7  and  C5_8
REMARK    4  A    between atoms: N4_18  and  C14_19
REMARK    5  A    between atoms: C17_22  and  C18_23
REMARK                            x       y       z     vdW  Elec       q    Type
REMARK                         _______ _______ _______ _____ _____    ______ ____
ROOT
ATOM      1  O1  UNL     1      20.783   8.305  19.031  0.00  0.00    -0.253 OA
ATOM      2  C1  UNL     1      20.060   8.552  20.036  0.00  0.00    +0.303 C 
ATOM      3  N1  UNL     1      19.328   9.785  20.100  0.00  0.00    -0.296 N 
ATOM      4  N3  UNL     1      19.964   7.579  21.096  0.00  0.00    -0.283 N 
ATOM      5  C12 UNL     1      19.525   7.973  22.440  0.00  0.00    +0.128 C 
ATOM      6  C13 UNL     1      20.283   7.178  23.509  0.00  0.00    +0.125 C 
ATOM      7  N4  UNL     1      20.284   5.734  23.227  0.00  0.00    -0.311 N 
ATOM      8  C24 UNL     1      19.800   5.245  21.930  0.00  0.00    +0.125 C 
ATOM      9  C25 UNL     1      20.255   6.170  20.796  0.00  0.00    +0.128 C 
ATOM     10  H1  UNL     1      18.540   9.864  20.782  0.00  0.00    +0.151 HD
ENDROOT
BRANCH   7  11
ATOM     11  C14 UNL     1      20.618   4.789  24.270  0.00  0.00    +0.144 A 
ATOM     12  C15 UNL     1      20.711   3.414  24.013  0.00  0.00    +0.047 A 
ATOM     13  C16 UNL     1      21.036   2.543  25.049  0.00  0.00    +0.033 A 
ATOM     14  C17 UNL     1      21.278   3.054  26.329  0.00  0.00    +0.096 A 
ATOM     15  N5  UNL     1      21.156   4.394  26.529  0.00  0.00    -0.147 NA
ATOM     16  N6  UNL     1      20.841   5.228  25.538  0.00  0.00    -0.134 NA
BRANCH  14  17
ATOM     17  C18 UNL     1      21.617   2.173  27.472  0.00  0.00    +0.040 A 
ATOM     18  C19 UNL     1      22.969   1.956  27.796  0.00  0.00    +0.051 A 
ATOM     19  C20 UNL     1      23.318   1.134  28.873  0.00  0.00    +0.124 A 
ATOM     20  F1  UNL     1      24.624   0.943  29.183  0.00  0.00    -0.205 F 
ATOM     21  C21 UNL     1      22.324   0.513  29.631  0.00  0.00    +0.041 A 
ATOM     22  C22 UNL     1      20.980   0.703  29.307  0.00  0.00    +0.042 A 
ATOM     23  C23 UNL     1      20.621   1.523  28.231  0.00  0.00    +0.133 A 
ATOM     24  F2  UNL     1      19.308   1.638  27.910  0.00  0.00    -0.205 F 
ENDBRANCH  14  17
ENDBRANCH   7  11
BRANCH   3  25
ATOM     25  C2  UNL     1      19.481  10.826  19.079  0.00  0.00    +0.078 C 
ATOM     26  C3  UNL     1      20.858  11.486  19.120  0.00  0.00    +0.044 C 
ATOM     27  C4  UNL     1      20.209  12.797  19.566  0.00  0.00    +0.074 C 
ATOM     28  C11 UNL     1      18.831  12.139  19.505  0.00  0.00    +0.044 C 
BRANCH  27  29
ATOM     29  N2  UNL     1      20.575  13.187  20.933  0.00  0.00    -0.341 N 
ATOM     30  H6  UNL     1      19.891  13.016  21.706  0.00  0.00    +0.146 HD
BRANCH  29  31
ATOM     31  C5  UNL     1      21.849  13.761  21.279  0.00  0.00    +0.027 A 
ATOM     32  C6  UNL     1      22.141  15.076  20.881  0.00  0.00    +0.023 A 
ATOM     33  C7  UNL     1      23.371  15.659  21.201  0.00  0.00    +0.002 A 
ATOM     34  C8  UNL     1      24.323  14.932  21.918  0.00  0.00    +0.000 A 
ATOM     35  C9  UNL     1      24.046  13.623  22.320  0.00  0.00    +0.002 A 
ATOM     36  C10 UNL     1      22.817  13.036  22.004  0.00  0.00    +0.023 A 
ENDBRANCH  29  31
ENDBRANCH  27  29
ENDBRANCH   3  25
TORSDOF 5
ENDMDL
MODEL 8
REMARK VINA RESULT:    -6.983     12.528     15.692
REMARK INTER + INTRA:          -9.913
REMARK INTER:                  -8.961
REMARK INTRA:                  -0.952
REMARK UNBOUND:                -0.889
REMARK  Name = /home/qwerty/github/datacon2025hack/step_04_hit_selection/docking/ligands/lig_345.pdb
REMARK  5 active torsions:
REMARK  status: ('A' for Active; 'I' for Inactive)
REMARK    1  A    between atoms: N1_3  and  C2_4
REMARK    2  A    between atoms: C4_6  and  N2_7
REMARK    3  A    between atoms: N2_7  and  C5_8
REMARK    4  A    between atoms: N4_18  and  C14_19
REMARK    5  A    between atoms: C17_22  and  C18_23
REMARK                            x       y       z     vdW  Elec       q    Type
REMARK                         _______ _______ _______ _____ _____    ______ ____
ROOT
ATOM      1  O1  UNL     1      20.665  15.066  29.667  0.00  0.00    -0.253 OA
ATOM      2  C1  UNL     1      20.250  14.401  28.677  0.00  0.00    +0.303 C 
ATOM      3  N1  UNL     1      21.146  14.100  27.596  0.00  0.00    -0.296 N 
ATOM      4  N3  UNL     1      18.886  13.935  28.658  0.00  0.00    -0.283 N 
ATOM      5  C12 UNL     1      18.235  13.566  27.396  0.00  0.00    +0.128 C 
ATOM      6  C13 UNL     1      16.755  13.963  27.416  0.00  0.00    +0.125 C 
ATOM      7  N4  UNL     1      16.079  13.518  28.645  0.00  0.00    -0.311 N 
ATOM      8  C24 UNL     1      16.873  12.981  29.759  0.00  0.00    +0.125 C 
ATOM      9  C25 UNL     1      18.171  13.777  29.932  0.00  0.00    +0.128 C 
ATOM     10  H1  UNL     1      20.885  13.339  26.928  0.00  0.00    +0.151 HD
ENDROOT
BRANCH   7  11
ATOM     11  C14 UNL     1      14.635  13.468  28.705  0.00  0.00    +0.144 A 
ATOM     12  C15 UNL     1      13.919  14.112  29.724  0.00  0.00    +0.047 A 
ATOM     13  C16 UNL     1      12.530  14.036  29.739  0.00  0.00    +0.033 A 
ATOM     14  C17 UNL     1      11.866  13.330  28.729  0.00  0.00    +0.096 A 
ATOM     15  N5  UNL     1      12.609  12.709  27.774  0.00  0.00    -0.147 NA
ATOM     16  N6  UNL     1      13.941  12.777  27.762  0.00  0.00    -0.134 NA
BRANCH  14  17
ATOM     17  C18 UNL     1      10.389  13.208  28.701  0.00  0.00    +0.040 A 
ATOM     18  C19 UNL     1       9.651  13.988  27.792  0.00  0.00    +0.051 A 
ATOM     19  C20 UNL     1       8.257  13.888  27.739  0.00  0.00    +0.124 A 
ATOM     20  F1  UNL     1       7.558  14.636  26.850  0.00  0.00    -0.205 F 
ATOM     21  C21 UNL     1       7.584  13.017  28.598  0.00  0.00    +0.041 A 
ATOM     22  C22 UNL     1       8.303  12.253  29.518  0.00  0.00    +0.042 A 
ATOM     23  C23 UNL     1       9.698  12.346  29.579  0.00  0.00    +0.133 A 
ATOM     24  F2  UNL     1      10.357  11.633  30.525  0.00  0.00    -0.205 F 
ENDBRANCH  14  17
ENDBRANCH   7  11
BRANCH   3  25
ATOM     25  C2  UNL     1      22.508  14.640  27.552  0.00  0.00    +0.078 C 
ATOM     26  C3  UNL     1      22.573  16.006  26.873  0.00  0.00    +0.044 C 
ATOM     27  C4  UNL     1      23.374  15.390  25.725  0.00  0.00    +0.074 C 
ATOM     28  C11 UNL     1      23.323  14.029  26.416  0.00  0.00    +0.044 C 
BRANCH  27  29
ATOM     29  N2  UNL     1      22.647  15.389  24.449  0.00  0.00    -0.341 N 
ATOM     30  H6  UNL     1      21.645  15.089  24.440  0.00  0.00    +0.146 HD
BRANCH  29  31
ATOM     31  C5  UNL     1      23.230  15.817  23.204  0.00  0.00    +0.027 A 
ATOM     32  C6  UNL     1      24.627  15.783  23.052  0.00  0.00    +0.023 A 
ATOM     33  C7  UNL     1      25.221  16.195  21.855  0.00  0.00    +0.002 A 
ATOM     34  C8  UNL     1      24.427  16.650  20.801  0.00  0.00    +0.000 A 
ATOM     35  C9  UNL     1      23.037  16.689  20.939  0.00  0.00    +0.002 A 
ATOM     36  C10 UNL     1      22.438  16.277  22.133  0.00  0.00    +0.023 A 
ENDBRANCH  29  31
ENDBRANCH  27  29
ENDBRANCH   3  25
TORSDOF 5
ENDMDL
MODEL 9
REMARK VINA RESULT:    -6.956     10.123     14.581
REMARK INTER + INTRA:          -9.878
REMARK INTER:                  -9.059
REMARK INTRA:                  -0.820
REMARK UNBOUND:                -0.889
REMARK  Name = /home/qwerty/github/datacon2025hack/step_04_hit_selection/docking/ligands/lig_345.pdb
REMARK  5 active torsions:
REMARK  status: ('A' for Active; 'I' for Inactive)
REMARK    1  A    between atoms: N1_3  and  C2_4
REMARK    2  A    between atoms: C4_6  and  N2_7
REMARK    3  A    between atoms: N2_7  and  C5_8
REMARK    4  A    between atoms: N4_18  and  C14_19
REMARK    5  A    between atoms: C17_22  and  C18_23
REMARK                            x       y       z     vdW  Elec       q    Type
REMARK                         _______ _______ _______ _____ _____    ______ ____
ROOT
ATOM      1  O1  UNL     1       5.594   0.699  28.581  0.00  0.00    -0.253 OA
ATOM      2  C1  UNL     1       6.436   1.532  29.020  0.00  0.00    +0.303 C 
ATOM      3  N1  UNL     1       6.739   1.565  30.423  0.00  0.00    -0.296 N 
ATOM      4  N3  UNL     1       7.096   2.424  28.100  0.00  0.00    -0.283 N 
ATOM      5  C12 UNL     1       7.717   3.667  28.573  0.00  0.00    +0.128 C 
ATOM      6  C13 UNL     1       7.542   4.785  27.538  0.00  0.00    +0.125 C 
ATOM      7  N4  UNL     1       7.919   4.349  26.184  0.00  0.00    -0.311 N 
ATOM      8  C24 UNL     1       8.185   2.928  25.924  0.00  0.00    +0.125 C 
ATOM      9  C25 UNL     1       7.191   2.042  26.684  0.00  0.00    +0.128 C 
ATOM     10  H1  UNL     1       7.609   2.052  30.735  0.00  0.00    +0.151 HD
ENDROOT
BRANCH   7  11
ATOM     11  C14 UNL     1       8.173   5.326  25.149  0.00  0.00    +0.144 A 
ATOM     12  C15 UNL     1       7.996   5.022  23.792  0.00  0.00    +0.047 A 
ATOM     13  C16 UNL     1       8.252   5.996  22.832  0.00  0.00    +0.033 A 
ATOM     14  C17 UNL     1       8.669   7.270  23.235  0.00  0.00    +0.096 A 
ATOM     15  N5  UNL     1       8.844   7.507  24.563  0.00  0.00    -0.147 NA
ATOM     16  N6  UNL     1       8.603   6.573  25.484  0.00  0.00    -0.134 NA
BRANCH  14  17
ATOM     17  C18 UNL     1       8.967   8.342  22.257  0.00  0.00    +0.040 A 
ATOM     18  C19 UNL     1       9.993   8.149  21.313  0.00  0.00    +0.051 A 
ATOM     19  C20 UNL     1      10.291   9.141  20.374  0.00  0.00    +0.124 A 
ATOM     20  F1  UNL     1      11.273   8.937  19.462  0.00  0.00    -0.205 F 
ATOM     21  C21 UNL     1       9.577  10.340  20.372  0.00  0.00    +0.041 A 
ATOM     22  C22 UNL     1       8.571  10.554  21.316  0.00  0.00    +0.042 A 
ATOM     23  C23 UNL     1       8.266   9.567  22.259  0.00  0.00    +0.133 A 
ATOM     24  F2  UNL     1       7.323   9.833  23.198  0.00  0.00    -0.205 F 
ENDBRANCH  14  17
ENDBRANCH   7  11
BRANCH   3  25
ATOM     25  C2  UNL     1       6.014   0.732  31.387  0.00  0.00    +0.078 C 
ATOM     26  C3  UNL     1       5.804   1.434  32.726  0.00  0.00    +0.044 C 
ATOM     27  C4  UNL     1       6.739   0.425  33.395  0.00  0.00    +0.074 C 
ATOM     28  C11 UNL     1       6.931  -0.287  32.057  0.00  0.00    +0.044 C 
BRANCH  27  29
ATOM     29  N2  UNL     1       7.986   1.027  33.883  0.00  0.00    -0.341 N 
ATOM     30  H6  UNL     1       8.762   1.199  33.204  0.00  0.00    +0.146 HD
BRANCH  29  31
ATOM     31  C5  UNL     1       8.187   1.434  35.250  0.00  0.00    +0.027 A 
ATOM     32  C6  UNL     1       7.122   1.330  36.162  0.00  0.00    +0.023 A 
ATOM     33  C7  UNL     1       7.288   1.720  37.494  0.00  0.00    +0.002 A 
ATOM     34  C8  UNL     1       8.517   2.221  37.928  0.00  0.00    +0.000 A 
ATOM     35  C9  UNL     1       9.583   2.330  37.032  0.00  0.00    +0.002 A 
ATOM     36  C10 UNL     1       9.423   1.941  35.699  0.00  0.00    +0.023 A 
ENDBRANCH  29  31
ENDBRANCH  27  29
ENDBRANCH   3  25
TORSDOF 5
ENDMDL
