MODEL 1
REMARK VINA RESULT:    -6.922      0.000      0.000
REMARK INTER + INTRA:          -9.594
REMARK INTER:                  -8.540
REMARK INTRA:                  -1.054
REMARK UNBOUND:                -1.054
REMARK  Name = /home/qwerty/github/datacon2025hack/step_04_hit_selection/docking/ligands/lig_622.pdb
REMARK  4 active torsions:
REMARK  status: ('A' for Active; 'I' for Inactive)
REMARK    1  A    between atoms: C1_2  and  C11_15
REMARK    2  A    between atoms: N1_3  and  C2_4
REMARK    3  A    between atoms: C7_9  and  C8_10
REMARK    4  A    between atoms: C15_20  and  C16_21
REMARK                            x       y       z     vdW  Elec       q    Type
REMARK                         _______ _______ _______ _____ _____    ______ ____
ROOT
ATOM      1  C11 UNL     1      13.054   4.991  20.937  0.00  0.00    +0.073 A 
ATOM      2  C12 UNL     1      13.745   4.612  19.758  0.00  0.00    +0.127 A 
ATOM      3  N3  UNL     1      14.315   3.377  19.649  0.00  0.00    -0.235 NA
ATOM      4  C13 UNL     1      14.205   2.515  20.686  0.00  0.00    +0.156 A 
ATOM      5  C14 UNL     1      14.704   1.239  20.787  0.00  0.00    +0.073 A 
ATOM      6  C15 UNL     1      14.283   0.843  22.057  0.00  0.00    +0.069 A 
ATOM      7  N5  UNL     1      13.589   1.840  22.664  0.00  0.00    -0.170 NA
ATOM      8  N6  UNL     1      13.554   2.842  21.805  0.00  0.00    -0.221 N 
ATOM      9  C21 UNL     1      12.965   4.048  21.981  0.00  0.00    +0.129 A 
ENDROOT
BRANCH   6  10
ATOM     10  C16 UNL     1      14.598  -0.478  22.704  0.00  0.00    +0.042 C 
ATOM     11  C17 UNL     1      14.437  -0.398  24.229  0.00  0.00    +0.025 C 
ATOM     12  C18 UNL     1      14.708  -1.767  24.893  0.00  0.00    +0.081 C 
ATOM     13  N4  UNL     1      15.578  -2.652  24.092  0.00  0.00    -0.316 NA
ATOM     14  C19 UNL     1      16.621  -1.902  23.381  0.00  0.00    +0.081 C 
ATOM     15  C20 UNL     1      16.020  -0.946  22.329  0.00  0.00    +0.025 C 
ATOM     16  H15 UNL     1      14.993  -3.166  23.391  0.00  0.00    +0.122 HD
ENDBRANCH   6  10
BRANCH   1  18
ATOM     17  O1  UNL     1      12.649   7.022  22.092  0.00  0.00    -0.270 OA
ATOM     18  C1  UNL     1      12.416   6.322  21.069  0.00  0.00    +0.251 C 
ATOM     19  N1  UNL     1      11.547   6.830  20.043  0.00  0.00    -0.281 N 
ATOM     20  H1  UNL     1      11.681   6.492  19.064  0.00  0.00    +0.155 HD
BRANCH  19  21
ATOM     21  C2  UNL     1      10.741   8.002  20.238  0.00  0.00    +0.044 A 
ATOM     22  C3  UNL     1      11.238   9.238  19.797  0.00  0.00    +0.024 A 
ATOM     23  C4  UNL     1      10.532  10.416  20.046  0.00  0.00    +0.002 A 
ATOM     24  C5  UNL     1       9.322  10.373  20.736  0.00  0.00    +0.001 A 
ATOM     25  C6  UNL     1       8.799   9.148  21.158  0.00  0.00    +0.013 A 
ATOM     26  C7  UNL     1       9.483   7.949  20.893  0.00  0.00    +0.040 A 
BRANCH  26  27
ATOM     27  C8  UNL     1       8.831   6.676  21.273  0.00  0.00    +0.157 A 
ATOM     28  C9  UNL     1       8.279   6.338  22.492  0.00  0.00    +0.161 A 
ATOM     29  N2  UNL     1       7.819   5.075  22.426  0.00  0.00    -0.224 NA
ATOM     30  C10 UNL     1       8.116   4.693  21.166  0.00  0.00    +0.308 A 
ATOM     31  O2  UNL     1       8.721   5.637  20.483  0.00  0.00    -0.442 OA
ENDBRANCH  26  27
ENDBRANCH  19  21
ENDBRANCH   1  18
TORSDOF 4
ENDMDL
MODEL 2
REMARK VINA RESULT:    -6.888     13.662     15.051
REMARK INTER + INTRA:          -9.553
REMARK INTER:                  -8.530
REMARK INTRA:                  -1.023
REMARK UNBOUND:                -1.054
REMARK  Name = /home/qwerty/github/datacon2025hack/step_04_hit_selection/docking/ligands/lig_622.pdb
REMARK  4 active torsions:
REMARK  status: ('A' for Active; 'I' for Inactive)
REMARK    1  A    between atoms: C1_2  and  C11_15
REMARK    2  A    between atoms: N1_3  and  C2_4
REMARK    3  A    between atoms: C7_9  and  C8_10
REMARK    4  A    between atoms: C15_20  and  C16_21
REMARK                            x       y       z     vdW  Elec       q    Type
REMARK                         _______ _______ _______ _____ _____    ______ ____
ROOT
ATOM      1  C11 UNL     1      12.115  12.567  33.387  0.00  0.00    +0.073 A 
ATOM      2  C12 UNL     1      11.562  13.113  34.573  0.00  0.00    +0.127 A 
ATOM      3  N3  UNL     1      12.288  13.148  35.729  0.00  0.00    -0.235 NA
ATOM      4  C13 UNL     1      13.548  12.656  35.722  0.00  0.00    +0.156 A 
ATOM      5  C14 UNL     1      14.439  12.590  36.766  0.00  0.00    +0.073 A 
ATOM      6  C15 UNL     1      15.559  12.001  36.177  0.00  0.00    +0.069 A 
ATOM      7  N5  UNL     1      15.326  11.730  34.868  0.00  0.00    -0.170 NA
ATOM      8  N6  UNL     1      14.096  12.144  34.618  0.00  0.00    -0.221 N 
ATOM      9  C21 UNL     1      13.436  12.078  33.438  0.00  0.00    +0.129 A 
ENDROOT
BRANCH   6  10
ATOM     10  C16 UNL     1      16.835  11.651  36.893  0.00  0.00    +0.042 C 
ATOM     11  C17 UNL     1      17.947  11.294  35.898  0.00  0.00    +0.025 C 
ATOM     12  C18 UNL     1      19.274  10.984  36.629  0.00  0.00    +0.081 C 
ATOM     13  N4  UNL     1      19.092  10.537  38.024  0.00  0.00    -0.316 NA
ATOM     14  C19 UNL     1      17.894   9.703  38.182  0.00  0.00    +0.081 C 
ATOM     15  C20 UNL     1      16.603  10.497  37.891  0.00  0.00    +0.025 C 
ATOM     16  H15 UNL     1      19.005  11.376  38.646  0.00  0.00    +0.122 HD
ENDBRANCH   6  10
BRANCH   1  18
ATOM     17  O1  UNL     1      11.090  11.421  31.581  0.00  0.00    -0.270 OA
ATOM     18  C1  UNL     1      11.349  12.532  32.118  0.00  0.00    +0.251 C 
ATOM     19  N1  UNL     1      10.889  13.745  31.500  0.00  0.00    -0.281 N 
ATOM     20  H1  UNL     1      10.717  14.580  32.105  0.00  0.00    +0.155 HD
BRANCH  19  21
ATOM     21  C2  UNL     1      10.348  13.766  30.169  0.00  0.00    +0.044 A 
ATOM     22  C3  UNL     1       8.978  13.516  30.000  0.00  0.00    +0.024 A 
ATOM     23  C4  UNL     1       8.425  13.434  28.721  0.00  0.00    +0.002 A 
ATOM     24  C5  UNL     1       9.234  13.605  27.598  0.00  0.00    +0.001 A 
ATOM     25  C6  UNL     1      10.594  13.882  27.750  0.00  0.00    +0.013 A 
ATOM     26  C7  UNL     1      11.164  13.994  29.031  0.00  0.00    +0.040 A 
BRANCH  26  27
ATOM     27  C8  UNL     1      12.586  14.390  29.129  0.00  0.00    +0.157 A 
ATOM     28  C9  UNL     1      13.589  14.184  28.204  0.00  0.00    +0.161 A 
ATOM     29  N2  UNL     1      14.742  14.670  28.698  0.00  0.00    -0.224 NA
ATOM     30  C10 UNL     1      14.393  15.149  29.911  0.00  0.00    +0.308 A 
ATOM     31  O2  UNL     1      13.118  14.979  30.172  0.00  0.00    -0.442 OA
ENDBRANCH  26  27
ENDBRANCH  19  21
ENDBRANCH   1  18
TORSDOF 4
ENDMDL
MODEL 3
REMARK VINA RESULT:    -6.824     16.250     17.148
REMARK INTER + INTRA:          -9.473
REMARK INTER:                  -8.450
REMARK INTRA:                  -1.022
REMARK UNBOUND:                -1.054
REMARK  Name = /home/qwerty/github/datacon2025hack/step_04_hit_selection/docking/ligands/lig_622.pdb
REMARK  4 active torsions:
REMARK  status: ('A' for Active; 'I' for Inactive)
REMARK    1  A    between atoms: C1_2  and  C11_15
REMARK    2  A    between atoms: N1_3  and  C2_4
REMARK    3  A    between atoms: C7_9  and  C8_10
REMARK    4  A    between atoms: C15_20  and  C16_21
REMARK                            x       y       z     vdW  Elec       q    Type
REMARK                         _______ _______ _______ _____ _____    ______ ____
ROOT
ATOM      1  C11 UNL     1      16.574   9.788  36.685  0.00  0.00    +0.073 A 
ATOM      2  C12 UNL     1      17.003   9.418  37.985  0.00  0.00    +0.127 A 
ATOM      3  N3  UNL     1      18.293   9.035  38.211  0.00  0.00    -0.235 NA
ATOM      4  C13 UNL     1      19.160   9.018  37.173  0.00  0.00    +0.156 A 
ATOM      5  C14 UNL     1      20.488   8.664  37.181  0.00  0.00    +0.073 A 
ATOM      6  C15 UNL     1      20.862   8.844  35.849  0.00  0.00    +0.069 A 
ATOM      7  N5  UNL     1      19.806   9.267  35.107  0.00  0.00    -0.170 NA
ATOM      8  N6  UNL     1      18.787   9.369  35.941  0.00  0.00    -0.221 N 
ATOM      9  C21 UNL     1      17.525   9.760  35.644  0.00  0.00    +0.129 A 
ENDROOT
BRANCH   6  10
ATOM     10  C16 UNL     1      22.225   8.554  35.282  0.00  0.00    +0.042 C 
ATOM     11  C17 UNL     1      22.182   8.485  33.749  0.00  0.00    +0.025 C 
ATOM     12  C18 UNL     1      23.591   8.240  33.160  0.00  0.00    +0.081 C 
ATOM     13  N4  UNL     1      24.518   7.576  34.099  0.00  0.00    -0.316 NA
ATOM     14  C19 UNL     1      23.833   6.586  34.939  0.00  0.00    +0.081 C 
ATOM     15  C20 UNL     1      22.796   7.248  35.872  0.00  0.00    +0.025 C 
ATOM     16  H15 UNL     1      24.958   8.298  34.717  0.00  0.00    +0.122 HD
ENDBRANCH   6  10
BRANCH   1  18
ATOM     17  O1  UNL     1      14.614   9.864  35.352  0.00  0.00    -0.270 OA
ATOM     18  C1  UNL     1      15.183  10.221  36.420  0.00  0.00    +0.251 C 
ATOM     19  N1  UNL     1      14.467  11.031  37.368  0.00  0.00    -0.281 N 
ATOM     20  H1  UNL     1      14.735  10.972  38.376  0.00  0.00    +0.155 HD
BRANCH  19  21
ATOM     21  C2  UNL     1      13.213  11.652  37.048  0.00  0.00    +0.044 A 
ATOM     22  C3  UNL     1      12.029  10.962  37.347  0.00  0.00    +0.024 A 
ATOM     23  C4  UNL     1      10.790  11.484  36.972  0.00  0.00    +0.002 A 
ATOM     24  C5  UNL     1      10.720  12.702  36.296  0.00  0.00    +0.001 A 
ATOM     25  C6  UNL     1      11.887  13.415  36.016  0.00  0.00    +0.013 A 
ATOM     26  C7  UNL     1      13.142  12.918  36.409  0.00  0.00    +0.040 A 
BRANCH  26  27
ATOM     27  C8  UNL     1      14.332  13.765  36.176  0.00  0.00    +0.157 A 
ATOM     28  C9  UNL     1      14.552  15.056  36.612  0.00  0.00    +0.161 A 
ATOM     29  N2  UNL     1      15.747  15.472  36.155  0.00  0.00    -0.224 NA
ATOM     30  C10 UNL     1      16.205  14.415  35.452  0.00  0.00    +0.308 A 
ATOM     31  O2  UNL     1      15.367  13.405  35.457  0.00  0.00    -0.442 OA
ENDBRANCH  26  27
ENDBRANCH  19  21
ENDBRANCH   1  18
TORSDOF 4
ENDMDL
MODEL 4
REMARK VINA RESULT:    -6.745     13.751     16.862
REMARK INTER + INTRA:          -9.376
REMARK INTER:                  -8.351
REMARK INTRA:                  -1.025
REMARK UNBOUND:                -1.054
REMARK  Name = /home/qwerty/github/datacon2025hack/step_04_hit_selection/docking/ligands/lig_622.pdb
REMARK  4 active torsions:
REMARK  status: ('A' for Active; 'I' for Inactive)
REMARK    1  A    between atoms: C1_2  and  C11_15
REMARK    2  A    between atoms: N1_3  and  C2_4
REMARK    3  A    between atoms: C7_9  and  C8_10
REMARK    4  A    between atoms: C15_20  and  C16_21
REMARK                            x       y       z     vdW  Elec       q    Type
REMARK                         _______ _______ _______ _____ _____    ______ ____
ROOT
ATOM      1  C11 UNL     1      22.085   5.651  32.678  0.00  0.00    +0.073 A 
ATOM      2  C12 UNL     1      23.325   5.958  33.293  0.00  0.00    +0.127 A 
ATOM      3  N3  UNL     1      23.421   6.972  34.202  0.00  0.00    -0.235 NA
ATOM      4  C13 UNL     1      22.310   7.677  34.511  0.00  0.00    +0.156 A 
ATOM      5  C14 UNL     1      22.188   8.729  35.387  0.00  0.00    +0.073 A 
ATOM      6  C15 UNL     1      20.831   9.046  35.300  0.00  0.00    +0.069 A 
ATOM      7  N5  UNL     1      20.204   8.230  34.414  0.00  0.00    -0.170 NA
ATOM      8  N6  UNL     1      21.128   7.405  33.954  0.00  0.00    -0.221 N 
ATOM      9  C21 UNL     1      20.959   6.414  33.047  0.00  0.00    +0.129 A 
ENDROOT
BRANCH   6  10
ATOM     10  C16 UNL     1      20.153  10.171  36.032  0.00  0.00    +0.042 C 
ATOM     11  C17 UNL     1      18.625  10.052  35.935  0.00  0.00    +0.025 C 
ATOM     12  C18 UNL     1      17.924  11.178  36.730  0.00  0.00    +0.081 C 
ATOM     13  N4  UNL     1      18.756  12.384  36.907  0.00  0.00    -0.316 NA
ATOM     14  C19 UNL     1      19.590  12.655  35.730  0.00  0.00    +0.081 C 
ATOM     15  C20 UNL     1      20.629  11.538  35.496  0.00  0.00    +0.025 C 
ATOM     16  H15 UNL     1      19.379  12.254  37.740  0.00  0.00    +0.122 HD
ENDBRANCH   6  10
BRANCH   1  18
ATOM     17  O1  UNL     1      21.406   4.764  30.586  0.00  0.00    -0.270 OA
ATOM     18  C1  UNL     1      21.956   4.545  31.700  0.00  0.00    +0.251 C 
ATOM     19  N1  UNL     1      22.460   3.232  31.998  0.00  0.00    -0.281 N 
ATOM     20  H1  UNL     1      23.252   3.143  32.673  0.00  0.00    +0.155 HD
BRANCH  19  21
ATOM     21  C2  UNL     1      22.154   2.094  31.178  0.00  0.00    +0.044 A 
ATOM     22  C3  UNL     1      23.026   1.772  30.127  0.00  0.00    +0.024 A 
ATOM     23  C4  UNL     1      22.723   0.731  29.247  0.00  0.00    +0.002 A 
ATOM     24  C5  UNL     1      21.548  -0.001  29.409  0.00  0.00    +0.001 A 
ATOM     25  C6  UNL     1      20.682   0.289  30.466  0.00  0.00    +0.013 A 
ATOM     26  C7  UNL     1      20.984   1.316  31.378  0.00  0.00    +0.040 A 
BRANCH  26  27
ATOM     27  C8  UNL     1      20.082   1.508  32.535  0.00  0.00    +0.157 A 
ATOM     28  C9  UNL     1      18.753   1.152  32.642  0.00  0.00    +0.161 A 
ATOM     29  N2  UNL     1      18.296   1.534  33.849  0.00  0.00    -0.224 NA
ATOM     30  C10 UNL     1      19.369   2.114  34.427  0.00  0.00    +0.308 A 
ATOM     31  O2  UNL     1      20.427   2.106  33.649  0.00  0.00    -0.442 OA
ENDBRANCH  26  27
ENDBRANCH  19  21
ENDBRANCH   1  18
TORSDOF 4
ENDMDL
MODEL 5
REMARK VINA RESULT:    -6.612      7.029     11.089
REMARK INTER + INTRA:          -9.212
REMARK INTER:                  -8.172
REMARK INTRA:                  -1.039
REMARK UNBOUND:                -1.054
REMARK  Name = /home/qwerty/github/datacon2025hack/step_04_hit_selection/docking/ligands/lig_622.pdb
REMARK  4 active torsions:
REMARK  status: ('A' for Active; 'I' for Inactive)
REMARK    1  A    between atoms: C1_2  and  C11_15
REMARK    2  A    between atoms: N1_3  and  C2_4
REMARK    3  A    between atoms: C7_9  and  C8_10
REMARK    4  A    between atoms: C15_20  and  C16_21
REMARK                            x       y       z     vdW  Elec       q    Type
REMARK                         _______ _______ _______ _____ _____    ______ ____
ROOT
ATOM      1  C11 UNL     1       9.016  10.686  26.621  0.00  0.00    +0.073 A 
ATOM      2  C12 UNL     1       8.257  11.280  27.661  0.00  0.00    +0.127 A 
ATOM      3  N3  UNL     1       8.767  12.310  28.398  0.00  0.00    -0.235 NA
ATOM      4  C13 UNL     1      10.011  12.759  28.116  0.00  0.00    +0.156 A 
ATOM      5  C14 UNL     1      10.709  13.771  28.730  0.00  0.00    +0.073 A 
ATOM      6  C15 UNL     1      11.912  13.788  28.024  0.00  0.00    +0.069 A 
ATOM      7  N5  UNL     1      11.916  12.831  27.061  0.00  0.00    -0.170 NA
ATOM      8  N6  UNL     1      10.745  12.225  27.137  0.00  0.00    -0.221 N 
ATOM      9  C21 UNL     1      10.303  11.203  26.367  0.00  0.00    +0.129 A 
ENDROOT
BRANCH   6  10
ATOM     10  C16 UNL     1      13.078  14.692  28.316  0.00  0.00    +0.042 C 
ATOM     11  C17 UNL     1      14.150  14.581  27.223  0.00  0.00    +0.025 C 
ATOM     12  C18 UNL     1      15.327  15.548  27.492  0.00  0.00    +0.081 C 
ATOM     13  N4  UNL     1      15.479  15.913  28.915  0.00  0.00    -0.316 NA
ATOM     14  C19 UNL     1      15.162  14.792  29.808  0.00  0.00    +0.081 C 
ATOM     15  C20 UNL     1      13.678  14.380  29.703  0.00  0.00    +0.025 C 
ATOM     16  H15 UNL     1      14.839  16.713  29.135  0.00  0.00    +0.122 HD
ENDBRANCH   6  10
BRANCH   1  18
ATOM     17  O1  UNL     1       7.227   9.448  25.678  0.00  0.00    -0.270 OA
ATOM     18  C1  UNL     1       8.476   9.578  25.801  0.00  0.00    +0.251 C 
ATOM     19  N1  UNL     1       9.354   8.656  25.133  0.00  0.00    -0.281 N 
ATOM     20  H1  UNL     1      10.313   8.979  24.874  0.00  0.00    +0.155 HD
BRANCH  19  21
ATOM     21  C2  UNL     1       8.872   7.448  24.523  0.00  0.00    +0.044 A 
ATOM     22  C3  UNL     1       8.674   6.322  25.335  0.00  0.00    +0.024 A 
ATOM     23  C4  UNL     1       8.294   5.101  24.774  0.00  0.00    +0.002 A 
ATOM     24  C5  UNL     1       8.106   4.994  23.397  0.00  0.00    +0.001 A 
ATOM     25  C6  UNL     1       8.273   6.113  22.578  0.00  0.00    +0.013 A 
ATOM     26  C7  UNL     1       8.629   7.356  23.128  0.00  0.00    +0.040 A 
BRANCH  26  27
ATOM     27  C8  UNL     1       8.689   8.527  22.225  0.00  0.00    +0.157 A 
ATOM     28  C9  UNL     1       9.544   8.733  21.161  0.00  0.00    +0.161 A 
ATOM     29  N2  UNL     1       9.288   9.941  20.625  0.00  0.00    -0.224 NA
ATOM     30  C10 UNL     1       8.286  10.423  21.391  0.00  0.00    +0.308 A 
ATOM     31  O2  UNL     1       7.934   9.591  22.343  0.00  0.00    -0.442 OA
ENDBRANCH  26  27
ENDBRANCH  19  21
ENDBRANCH   1  18
TORSDOF 4
ENDMDL
MODEL 6
REMARK VINA RESULT:    -6.553     15.817     16.527
REMARK INTER + INTRA:          -9.139
REMARK INTER:                  -8.314
REMARK INTRA:                  -0.825
REMARK UNBOUND:                -1.054
REMARK  Name = /home/qwerty/github/datacon2025hack/step_04_hit_selection/docking/ligands/lig_622.pdb
REMARK  4 active torsions:
REMARK  status: ('A' for Active; 'I' for Inactive)
REMARK    1  A    between atoms: C1_2  and  C11_15
REMARK    2  A    between atoms: N1_3  and  C2_4
REMARK    3  A    between atoms: C7_9  and  C8_10
REMARK    4  A    between atoms: C15_20  and  C16_21
REMARK                            x       y       z     vdW  Elec       q    Type
REMARK                         _______ _______ _______ _____ _____    ______ ____
ROOT
ATOM      1  C11 UNL     1      16.093  11.736  36.254  0.00  0.00    +0.073 A 
ATOM      2  C12 UNL     1      15.942  11.036  37.478  0.00  0.00    +0.127 A 
ATOM      3  N3  UNL     1      16.935  10.221  37.942  0.00  0.00    -0.235 NA
ATOM      4  C13 UNL     1      18.069  10.097  37.216  0.00  0.00    +0.156 A 
ATOM      5  C14 UNL     1      19.177   9.334  37.496  0.00  0.00    +0.073 A 
ATOM      6  C15 UNL     1      20.016   9.602  36.413  0.00  0.00    +0.069 A 
ATOM      7  N5  UNL     1      19.422  10.463  35.548  0.00  0.00    -0.170 NA
ATOM      8  N6  UNL     1      18.241  10.750  36.065  0.00  0.00    -0.221 N 
ATOM      9  C21 UNL     1      17.301  11.574  35.546  0.00  0.00    +0.129 A 
ENDROOT
BRANCH   6  10
ATOM     10  C16 UNL     1      21.369   8.983  36.188  0.00  0.00    +0.042 C 
ATOM     11  C17 UNL     1      21.597   8.680  34.701  0.00  0.00    +0.025 C 
ATOM     12  C18 UNL     1      23.007   8.093  34.459  0.00  0.00    +0.081 C 
ATOM     13  N4  UNL     1      23.583   7.429  35.646  0.00  0.00    -0.316 NA
ATOM     14  C19 UNL     1      22.563   6.726  36.433  0.00  0.00    +0.081 C 
ATOM     15  C20 UNL     1      21.534   7.705  37.037  0.00  0.00    +0.025 C 
ATOM     16  H15 UNL     1      24.044   8.148  36.253  0.00  0.00    +0.122 HD
ENDBRANCH   6  10
BRANCH   1  18
ATOM     17  O1  UNL     1      14.816  13.733  36.322  0.00  0.00    -0.270 OA
ATOM     18  C1  UNL     1      15.034  12.636  35.739  0.00  0.00    +0.251 C 
ATOM     19  N1  UNL     1      14.262  12.282  34.580  0.00  0.00    -0.281 N 
ATOM     20  H1  UNL     1      14.689  11.641  33.873  0.00  0.00    +0.155 HD
BRANCH  19  21
ATOM     21  C2  UNL     1      13.089  13.013  34.191  0.00  0.00    +0.044 A 
ATOM     22  C3  UNL     1      13.202  13.962  33.165  0.00  0.00    +0.024 A 
ATOM     23  C4  UNL     1      12.112  14.762  32.815  0.00  0.00    +0.002 A 
ATOM     24  C5  UNL     1      10.898  14.620  33.486  0.00  0.00    +0.001 A 
ATOM     25  C6  UNL     1      10.762  13.661  34.492  0.00  0.00    +0.013 A 
ATOM     26  C7  UNL     1      11.840  12.829  34.839  0.00  0.00    +0.040 A 
BRANCH  26  27
ATOM     27  C8  UNL     1      11.605  11.763  35.839  0.00  0.00    +0.157 A 
ATOM     28  C9  UNL     1      11.282  10.441  35.608  0.00  0.00    +0.161 A 
ATOM     29  N2  UNL     1      11.124   9.820  36.791  0.00  0.00    -0.224 NA
ATOM     30  C10 UNL     1      11.354  10.794  37.697  0.00  0.00    +0.308 A 
ATOM     31  O2  UNL     1      11.632  11.948  37.135  0.00  0.00    -0.442 OA
ENDBRANCH  26  27
ENDBRANCH  19  21
ENDBRANCH   1  18
TORSDOF 4
ENDMDL
MODEL 7
REMARK VINA RESULT:    -6.438      6.080      9.085
REMARK INTER + INTRA:          -8.997
REMARK INTER:                  -8.118
REMARK INTRA:                  -0.879
REMARK UNBOUND:                -1.054
REMARK  Name = /home/qwerty/github/datacon2025hack/step_04_hit_selection/docking/ligands/lig_622.pdb
REMARK  4 active torsions:
REMARK  status: ('A' for Active; 'I' for Inactive)
REMARK    1  A    between atoms: C1_2  and  C11_15
REMARK    2  A    between atoms: N1_3  and  C2_4
REMARK    3  A    between atoms: C7_9  and  C8_10
REMARK    4  A    between atoms: C15_20  and  C16_21
REMARK                            x       y       z     vdW  Elec       q    Type
REMARK                         _______ _______ _______ _____ _____    ______ ____
ROOT
ATOM      1  C11 UNL     1      18.729   1.969  24.847  0.00  0.00    +0.073 A 
ATOM      2  C12 UNL     1      20.127   2.014  24.618  0.00  0.00    +0.127 A 
ATOM      3  N3  UNL     1      21.009   1.804  25.638  0.00  0.00    -0.235 NA
ATOM      4  C13 UNL     1      20.526   1.547  26.875  0.00  0.00    +0.156 A 
ATOM      5  C14 UNL     1      21.231   1.314  28.031  0.00  0.00    +0.073 A 
ATOM      6  C15 UNL     1      20.220   1.110  28.972  0.00  0.00    +0.069 A 
ATOM      7  N5  UNL     1      18.997   1.230  28.395  0.00  0.00    -0.170 NA
ATOM      8  N6  UNL     1      19.214   1.491  27.118  0.00  0.00    -0.221 N 
ATOM      9  C21 UNL     1      18.284   1.688  26.155  0.00  0.00    +0.129 A 
ENDROOT
BRANCH   6  10
ATOM     10  C16 UNL     1      20.436   0.853  30.438  0.00  0.00    +0.042 C 
ATOM     11  C17 UNL     1      19.100   0.658  31.168  0.00  0.00    +0.025 C 
ATOM     12  C18 UNL     1      19.321   0.342  32.665  0.00  0.00    +0.081 C 
ATOM     13  N4  UNL     1      20.608   0.839  33.192  0.00  0.00    -0.316 NA
ATOM     14  C19 UNL     1      20.986   2.126  32.596  0.00  0.00    +0.081 C 
ATOM     15  C20 UNL     1      21.247   1.999  31.080  0.00  0.00    +0.025 C 
ATOM     16  H15 UNL     1      21.358   0.137  32.986  0.00  0.00    +0.122 HD
ENDBRANCH   6  10
BRANCH   1  18
ATOM     17  O1  UNL     1      17.310   3.340  23.531  0.00  0.00    -0.270 OA
ATOM     18  C1  UNL     1      17.755   2.180  23.751  0.00  0.00    +0.251 C 
ATOM     19  N1  UNL     1      17.320   1.085  22.928  0.00  0.00    -0.281 N 
ATOM     20  H1  UNL     1      17.957   0.265  22.810  0.00  0.00    +0.155 HD
BRANCH  19  21
ATOM     21  C2  UNL     1      16.219   1.207  22.015  0.00  0.00    +0.044 A 
ATOM     22  C3  UNL     1      16.412   1.927  20.826  0.00  0.00    +0.024 A 
ATOM     23  C4  UNL     1      15.348   2.151  19.951  0.00  0.00    +0.002 A 
ATOM     24  C5  UNL     1      14.079   1.656  20.253  0.00  0.00    +0.001 A 
ATOM     25  C6  UNL     1      13.876   0.914  21.419  0.00  0.00    +0.013 A 
ATOM     26  C7  UNL     1      14.942   0.656  22.298  0.00  0.00    +0.040 A 
BRANCH  26  27
ATOM     27  C8  UNL     1      14.689  -0.222  23.462  0.00  0.00    +0.157 A 
ATOM     28  C9  UNL     1      13.735  -0.068  24.448  0.00  0.00    +0.161 A 
ATOM     29  N2  UNL     1      13.864  -1.069  25.338  0.00  0.00    -0.224 NA
ATOM     30  C10 UNL     1      14.898  -1.791  24.858  0.00  0.00    +0.308 A 
ATOM     31  O2  UNL     1      15.393  -1.288  23.750  0.00  0.00    -0.442 OA
ENDBRANCH  26  27
ENDBRANCH  19  21
ENDBRANCH   1  18
TORSDOF 4
ENDMDL
MODEL 8
REMARK VINA RESULT:    -6.425      7.215     10.657
REMARK INTER + INTRA:          -8.981
REMARK INTER:                  -7.936
REMARK INTRA:                  -1.045
REMARK UNBOUND:                -1.054
REMARK  Name = /home/qwerty/github/datacon2025hack/step_04_hit_selection/docking/ligands/lig_622.pdb
REMARK  4 active torsions:
REMARK  status: ('A' for Active; 'I' for Inactive)
REMARK    1  A    between atoms: C1_2  and  C11_15
REMARK    2  A    between atoms: N1_3  and  C2_4
REMARK    3  A    between atoms: C7_9  and  C8_10
REMARK    4  A    between atoms: C15_20  and  C16_21
REMARK                            x       y       z     vdW  Elec       q    Type
REMARK                         _______ _______ _______ _____ _____    ______ ____
ROOT
ATOM      1  C11 UNL     1      19.980   1.314  26.726  0.00  0.00    +0.073 A 
ATOM      2  C12 UNL     1      21.367   1.369  27.017  0.00  0.00    +0.127 A 
ATOM      3  N3  UNL     1      21.811   1.332  28.307  0.00  0.00    -0.235 NA
ATOM      4  C13 UNL     1      20.905   1.236  29.306  0.00  0.00    +0.156 A 
ATOM      5  C14 UNL     1      21.134   1.189  30.660  0.00  0.00    +0.073 A 
ATOM      6  C15 UNL     1      19.846   1.088  31.187  0.00  0.00    +0.069 A 
ATOM      7  N5  UNL     1      18.920   1.088  30.194  0.00  0.00    -0.170 NA
ATOM      8  N6  UNL     1      19.594   1.174  29.061  0.00  0.00    -0.221 N 
ATOM      9  C21 UNL     1      19.083   1.206  27.808  0.00  0.00    +0.129 A 
ENDROOT
BRANCH   6  10
ATOM     10  C16 UNL     1      19.507   1.046  32.652  0.00  0.00    +0.042 C 
ATOM     11  C17 UNL     1      18.002   0.830  32.865  0.00  0.00    +0.025 C 
ATOM     12  C18 UNL     1      17.658   0.734  34.369  0.00  0.00    +0.081 C 
ATOM     13  N4  UNL     1      18.637   1.408  35.245  0.00  0.00    -0.316 NA
ATOM     14  C19 UNL     1      19.166   2.635  34.636  0.00  0.00    +0.081 C 
ATOM     15  C20 UNL     1      19.980   2.334  33.360  0.00  0.00    +0.025 C 
ATOM     16  H15 UNL     1      19.433   0.756  35.439  0.00  0.00    +0.122 HD
ENDBRANCH   6  10
BRANCH   1  18
ATOM     17  O1  UNL     1      20.266   1.072  24.384  0.00  0.00    -0.270 OA
ATOM     18  C1  UNL     1      19.478   1.339  25.332  0.00  0.00    +0.251 C 
ATOM     19  N1  UNL     1      18.104   1.650  25.047  0.00  0.00    -0.281 N 
ATOM     20  H1  UNL     1      17.385   1.453  25.779  0.00  0.00    +0.155 HD
BRANCH  19  21
ATOM     21  C2  UNL     1      17.640   1.905  23.712  0.00  0.00    +0.044 A 
ATOM     22  C3  UNL     1      17.908   3.156  23.137  0.00  0.00    +0.024 A 
ATOM     23  C4  UNL     1      17.400   3.482  21.879  0.00  0.00    +0.002 A 
ATOM     24  C5  UNL     1      16.621   2.561  21.180  0.00  0.00    +0.001 A 
ATOM     25  C6  UNL     1      16.368   1.301  21.726  0.00  0.00    +0.013 A 
ATOM     26  C7  UNL     1      16.893   0.945  22.980  0.00  0.00    +0.040 A 
BRANCH  26  27
ATOM     27  C8  UNL     1      16.678  -0.438  23.459  0.00  0.00    +0.157 A 
ATOM     28  C9  UNL     1      15.487  -1.132  23.538  0.00  0.00    +0.161 A 
ATOM     29  N2  UNL     1      15.727  -2.349  24.060  0.00  0.00    -0.224 NA
ATOM     30  C10 UNL     1      17.058  -2.344  24.282  0.00  0.00    +0.308 A 
ATOM     31  O2  UNL     1      17.623  -1.211  23.934  0.00  0.00    -0.442 OA
ENDBRANCH  26  27
ENDBRANCH  19  21
ENDBRANCH   1  18
TORSDOF 4
ENDMDL
MODEL 9
REMARK VINA RESULT:    -6.417      4.757      6.990
REMARK INTER + INTRA:          -8.971
REMARK INTER:                  -7.967
REMARK INTRA:                  -1.005
REMARK UNBOUND:                -1.054
REMARK  Name = /home/qwerty/github/datacon2025hack/step_04_hit_selection/docking/ligands/lig_622.pdb
REMARK  4 active torsions:
REMARK  status: ('A' for Active; 'I' for Inactive)
REMARK    1  A    between atoms: C1_2  and  C11_15
REMARK    2  A    between atoms: N1_3  and  C2_4
REMARK    3  A    between atoms: C7_9  and  C8_10
REMARK    4  A    between atoms: C15_20  and  C16_21
REMARK                            x       y       z     vdW  Elec       q    Type
REMARK                         _______ _______ _______ _____ _____    ______ ____
ROOT
ATOM      1  C11 UNL     1       8.916   8.955  23.484  0.00  0.00    +0.073 A 
ATOM      2  C12 UNL     1       8.780   9.561  22.209  0.00  0.00    +0.127 A 
ATOM      3  N3  UNL     1       9.356   9.001  21.105  0.00  0.00    -0.235 NA
ATOM      4  C13 UNL     1      10.056   7.852  21.246  0.00  0.00    +0.156 A 
ATOM      5  C14 UNL     1      10.712   7.132  20.277  0.00  0.00    +0.073 A 
ATOM      6  C15 UNL     1      11.240   6.059  20.996  0.00  0.00    +0.069 A 
ATOM      7  N5  UNL     1      10.918   6.158  22.311  0.00  0.00    -0.170 NA
ATOM      8  N6  UNL     1      10.193   7.256  22.433  0.00  0.00    -0.221 N 
ATOM      9  C21 UNL     1       9.650   7.754  23.568  0.00  0.00    +0.129 A 
ENDROOT
BRANCH   6  10
ATOM     10  C16 UNL     1      12.101   4.968  20.422  0.00  0.00    +0.042 C 
ATOM     11  C17 UNL     1      11.991   3.682  21.252  0.00  0.00    +0.025 C 
ATOM     12  C18 UNL     1      12.834   2.542  20.634  0.00  0.00    +0.081 C 
ATOM     13  N4  UNL     1      13.954   3.020  19.799  0.00  0.00    -0.316 NA
ATOM     14  C19 UNL     1      14.560   4.243  20.340  0.00  0.00    +0.081 C 
ATOM     15  C20 UNL     1      13.571   5.428  20.320  0.00  0.00    +0.025 C 
ATOM     16  H15 UNL     1      13.603   3.215  18.831  0.00  0.00    +0.122 HD
ENDBRANCH   6  10
BRANCH   1  18
ATOM     17  O1  UNL     1       7.137  10.048  24.607  0.00  0.00    -0.270 OA
ATOM     18  C1  UNL     1       8.288   9.539  24.691  0.00  0.00    +0.251 C 
ATOM     19  N1  UNL     1       8.965   9.521  25.959  0.00  0.00    -0.281 N 
ATOM     20  H1  UNL     1       9.669   8.770  26.138  0.00  0.00    +0.155 HD
BRANCH  19  21
ATOM     21  C2  UNL     1       8.491  10.271  27.088  0.00  0.00    +0.044 A 
ATOM     22  C3  UNL     1       8.709  11.656  27.111  0.00  0.00    +0.024 A 
ATOM     23  C4  UNL     1       8.348  12.413  28.227  0.00  0.00    +0.002 A 
ATOM     24  C5  UNL     1       7.763  11.794  29.331  0.00  0.00    +0.001 A 
ATOM     25  C6  UNL     1       7.514  10.420  29.313  0.00  0.00    +0.013 A 
ATOM     26  C7  UNL     1       7.846   9.646  28.188  0.00  0.00    +0.040 A 
BRANCH  26  27
ATOM     27  C8  UNL     1       7.464   8.217  28.187  0.00  0.00    +0.157 A 
ATOM     28  C9  UNL     1       7.458   7.341  29.253  0.00  0.00    +0.161 A 
ATOM     29  N2  UNL     1       7.075   6.127  28.816  0.00  0.00    -0.224 NA
ATOM     30  C10 UNL     1       6.868   6.314  27.495  0.00  0.00    +0.308 A 
ATOM     31  O2  UNL     1       7.104   7.549  27.118  0.00  0.00    -0.442 OA
ENDBRANCH  26  27
ENDBRANCH  19  21
ENDBRANCH   1  18
TORSDOF 4
ENDMDL
