MODEL 1
REMARK VINA RESULT:    -6.229      0.000      0.000
REMARK INTER + INTRA:          -8.391
REMARK INTER:                  -7.868
REMARK INTRA:                  -0.523
REMARK UNBOUND:                -0.523
REMARK  Name = /home/qwerty/github/datacon2025hack/step_04_hit_selection/docking/ligands/lig_411.pdb
REMARK  7 active torsions:
REMARK  status: ('A' for Active; 'I' for Inactive)
REMARK    1  A    between atoms: C1_1  and  O1_2
REMARK    2  A    between atoms: O1_2  and  C2_3
REMARK    3  A    between atoms: C5_6  and  N1_7
REMARK    4  A    between atoms: N2_10  and  C7_11
REMARK    5  A    between atoms: C12_18  and  O3_19
REMARK    6  A    between atoms: C13_20  and  O4_21
REMARK    7  A    between atoms: O4_21  and  C14_22
REMARK                            x       y       z     vdW  Elec       q    Type
REMARK                         _______ _______ _______ _____ _____    ______ ____
ROOT
ATOM      1  N1  UNL     1      18.866  10.165  37.799  0.00  0.00    -0.266 N 
ATOM      2  C6  UNL     1      17.627  10.563  37.194  0.00  0.00    +0.308 C 
ATOM      3  O2  UNL     1      17.314  10.137  36.049  0.00  0.00    -0.252 OA
ATOM      4  N2  UNL     1      16.746  11.447  37.902  0.00  0.00    -0.266 N 
ATOM      5  H6  UNL     1      19.218  10.730  38.604  0.00  0.00    +0.156 HD
ATOM      6  H7  UNL     1      16.899  11.568  38.928  0.00  0.00    +0.156 HD
ENDROOT
BRANCH   4   7
ATOM      7  C7  UNL     1      15.546  11.987  37.326  0.00  0.00    +0.078 A 
ATOM      8  C8  UNL     1      14.446  11.143  37.137  0.00  0.00    +0.028 A 
ATOM      9  C9  UNL     1      13.264  11.634  36.584  0.00  0.00    +0.023 A 
ATOM     10  C10 UNL     1      13.160  12.980  36.223  0.00  0.00    +0.063 A 
ATOM     11 CL1  UNL     1      11.651  13.550  35.522  0.00  0.00    -0.082 Cl
ATOM     12  C11 UNL     1      14.246  13.850  36.433  0.00  0.00    +0.102 A 
ATOM     13 CL2  UNL     1      14.097  15.552  35.996  0.00  0.00    -0.078 Cl
ATOM     14  C12 UNL     1      15.440  13.355  37.002  0.00  0.00    +0.158 A 
BRANCH  14  15
ATOM     15  O3  UNL     1      16.516  14.205  37.275  0.00  0.00    -0.503 OA
ATOM     16  H10 UNL     1      17.234  13.987  37.954  0.00  0.00    +0.292 HD
ENDBRANCH  14  15
ENDBRANCH   4   7
BRANCH   1  20
ATOM     17  C2  UNL     1      21.407   7.191  36.132  0.00  0.00    +0.124 A 
ATOM     18  C3  UNL     1      20.415   6.851  37.067  0.00  0.00    +0.047 A 
ATOM     19  C4  UNL     1      19.585   7.838  37.602  0.00  0.00    +0.030 A 
ATOM     20  C5  UNL     1      19.739   9.179  37.228  0.00  0.00    +0.077 A 
ATOM     21  C13 UNL     1      20.708   9.529  36.264  0.00  0.00    +0.145 A 
ATOM     22  C15 UNL     1      21.545   8.525  35.735  0.00  0.00    +0.093 A 
BRANCH  17  24
ATOM     23  C1  UNL     1      23.688   6.346  35.551  0.00  0.00    +0.277 C 
ATOM     24  O1  UNL     1      22.269   6.236  35.570  0.00  0.00    -0.495 OA
ENDBRANCH  17  24
BRANCH  21  25
ATOM     25  O4  UNL     1      20.793  10.863  35.837  0.00  0.00    -0.493 OA
ATOM     26  C14 UNL     1      20.346  11.340  34.572  0.00  0.00    +0.277 C 
ENDBRANCH  21  25
ENDBRANCH   1  20
TORSDOF 5
ENDMDL
MODEL 2
REMARK VINA RESULT:    -6.223     17.823     19.620
REMARK INTER + INTRA:          -8.384
REMARK INTER:                  -7.813
REMARK INTRA:                  -0.571
REMARK UNBOUND:                -0.523
REMARK  Name = /home/qwerty/github/datacon2025hack/step_04_hit_selection/docking/ligands/lig_411.pdb
REMARK  7 active torsions:
REMARK  status: ('A' for Active; 'I' for Inactive)
REMARK    1  A    between atoms: C1_1  and  O1_2
REMARK    2  A    between atoms: O1_2  and  C2_3
REMARK    3  A    between atoms: C5_6  and  N1_7
REMARK    4  A    between atoms: N2_10  and  C7_11
REMARK    5  A    between atoms: C12_18  and  O3_19
REMARK    6  A    between atoms: C13_20  and  O4_21
REMARK    7  A    between atoms: O4_21  and  C14_22
REMARK                            x       y       z     vdW  Elec       q    Type
REMARK                         _______ _______ _______ _____ _____    ______ ____
ROOT
ATOM      1  N1  UNL     1       9.993   4.891  20.131  0.00  0.00    -0.266 N 
ATOM      2  C6  UNL     1      11.056   4.194  20.796  0.00  0.00    +0.308 C 
ATOM      3  O2  UNL     1      11.639   4.717  21.784  0.00  0.00    -0.252 OA
ATOM      4  N2  UNL     1      11.450   2.896  20.330  0.00  0.00    -0.266 N 
ATOM      5  H6  UNL     1       9.720   4.567  19.176  0.00  0.00    +0.156 HD
ATOM      6  H7  UNL     1      10.794   2.385  19.697  0.00  0.00    +0.156 HD
ENDROOT
BRANCH   4   7
ATOM      7  C7  UNL     1      12.577   2.179  20.860  0.00  0.00    +0.078 A 
ATOM      8  C8  UNL     1      12.360   1.203  21.839  0.00  0.00    +0.028 A 
ATOM      9  C9  UNL     1      13.430   0.487  22.373  0.00  0.00    +0.023 A 
ATOM     10  C10 UNL     1      14.732   0.726  21.927  0.00  0.00    +0.063 A 
ATOM     11 CL1  UNL     1      16.049  -0.198  22.637  0.00  0.00    -0.082 Cl
ATOM     12  C11 UNL     1      14.966   1.683  20.922  0.00  0.00    +0.102 A 
ATOM     13 CL2  UNL     1      16.611   1.960  20.348  0.00  0.00    -0.078 Cl
ATOM     14  C12 UNL     1      13.882   2.402  20.374  0.00  0.00    +0.158 A 
BRANCH  14  15
ATOM     15  O3  UNL     1      14.074   3.318  19.335  0.00  0.00    -0.503 OA
ATOM     16  H10 UNL     1      14.630   4.157  19.433  0.00  0.00    +0.292 HD
ENDBRANCH  14  15
ENDBRANCH   4   7
BRANCH   1  20
ATOM     17  C2  UNL     1       8.401   8.587  21.509  0.00  0.00    +0.124 A 
ATOM     18  C3  UNL     1       9.586   8.547  20.754  0.00  0.00    +0.047 A 
ATOM     19  C4  UNL     1      10.094   7.326  20.305  0.00  0.00    +0.030 A 
ATOM     20  C5  UNL     1       9.440   6.127  20.612  0.00  0.00    +0.077 A 
ATOM     21  C13 UNL     1       8.231   6.155  21.338  0.00  0.00    +0.145 A 
ATOM     22  C15 UNL     1       7.732   7.392  21.794  0.00  0.00    +0.093 A 
BRANCH  17  24
ATOM     23  C1  UNL     1       8.101  11.067  21.415  0.00  0.00    +0.277 C 
ATOM     24  O1  UNL     1       7.855   9.787  21.987  0.00  0.00    -0.495 OA
ENDBRANCH  17  24
BRANCH  21  25
ATOM     25  O4  UNL     1       7.545   4.951  21.565  0.00  0.00    -0.493 OA
ATOM     26  C14 UNL     1       7.493   4.272  22.816  0.00  0.00    +0.277 C 
ENDBRANCH  21  25
ENDBRANCH   1  20
TORSDOF 5
ENDMDL
MODEL 3
REMARK VINA RESULT:    -6.163      3.813      8.433
REMARK INTER + INTRA:          -8.307
REMARK INTER:                  -7.790
REMARK INTRA:                  -0.517
REMARK UNBOUND:                -0.523
REMARK  Name = /home/qwerty/github/datacon2025hack/step_04_hit_selection/docking/ligands/lig_411.pdb
REMARK  7 active torsions:
REMARK  status: ('A' for Active; 'I' for Inactive)
REMARK    1  A    between atoms: C1_1  and  O1_2
REMARK    2  A    between atoms: O1_2  and  C2_3
REMARK    3  A    between atoms: C5_6  and  N1_7
REMARK    4  A    between atoms: N2_10  and  C7_11
REMARK    5  A    between atoms: C12_18  and  O3_19
REMARK    6  A    between atoms: C13_20  and  O4_21
REMARK    7  A    between atoms: O4_21  and  C14_22
REMARK                            x       y       z     vdW  Elec       q    Type
REMARK                         _______ _______ _______ _____ _____    ______ ____
ROOT
ATOM      1  N1  UNL     1      15.803  12.618  37.384  0.00  0.00    -0.266 N 
ATOM      2  C6  UNL     1      16.792  11.843  36.692  0.00  0.00    +0.308 C 
ATOM      3  O2  UNL     1      16.479  11.189  35.659  0.00  0.00    -0.252 OA
ATOM      4  N2  UNL     1      18.140  11.818  37.181  0.00  0.00    -0.266 N 
ATOM      5  H6  UNL     1      16.016  12.920  38.361  0.00  0.00    +0.156 HD
ATOM      6  H7  UNL     1      18.426  12.558  37.861  0.00  0.00    +0.156 HD
ENDROOT
BRANCH   4   7
ATOM      7  C7  UNL     1      19.164  10.980  36.622  0.00  0.00    +0.078 A 
ATOM      8  C8  UNL     1      19.915  11.457  35.542  0.00  0.00    +0.028 A 
ATOM      9  C9  UNL     1      20.918  10.671  34.976  0.00  0.00    +0.023 A 
ATOM     10  C10 UNL     1      21.195   9.402  35.490  0.00  0.00    +0.063 A 
ATOM     11 CL1  UNL     1      22.465   8.446  34.737  0.00  0.00    -0.082 Cl
ATOM     12  C11 UNL     1      20.470   8.918  36.595  0.00  0.00    +0.102 A 
ATOM     13 CL2  UNL     1      20.843   7.324  37.252  0.00  0.00    -0.078 Cl
ATOM     14  C12 UNL     1      19.460   9.717  37.174  0.00  0.00    +0.158 A 
BRANCH  14  15
ATOM     15  O3  UNL     1      18.761   9.288  38.307  0.00  0.00    -0.503 OA
ATOM     16  H10 UNL     1      17.920   8.728  38.258  0.00  0.00    +0.292 HD
ENDBRANCH  14  15
ENDBRANCH   4   7
BRANCH   1  20
ATOM     17  C2  UNL     1      11.829  13.140  35.962  0.00  0.00    +0.124 A 
ATOM     18  C3  UNL     1      12.199  11.978  36.659  0.00  0.00    +0.047 A 
ATOM     19  C4  UNL     1      13.507  11.823  37.124  0.00  0.00    +0.030 A 
ATOM     20  C5  UNL     1      14.468  12.813  36.889  0.00  0.00    +0.077 A 
ATOM     21  C13 UNL     1      14.101  14.000  36.222  0.00  0.00    +0.145 A 
ATOM     22  C15 UNL     1      12.780  14.143  35.750  0.00  0.00    +0.093 A 
BRANCH  17  24
ATOM     23  C1  UNL     1       9.737  14.492  35.736  0.00  0.00    +0.277 C 
ATOM     24  O1  UNL     1      10.530  13.339  35.471  0.00  0.00    -0.495 OA
ENDBRANCH  17  24
BRANCH  21  25
ATOM     25  O4  UNL     1      15.055  15.019  36.069  0.00  0.00    -0.493 OA
ATOM     26  C14 UNL     1      14.996  16.288  36.713  0.00  0.00    +0.277 C 
ENDBRANCH  21  25
ENDBRANCH   1  20
TORSDOF 5
ENDMDL
MODEL 4
REMARK VINA RESULT:    -5.998     17.716     19.406
REMARK INTER + INTRA:          -8.099
REMARK INTER:                  -7.480
REMARK INTRA:                  -0.619
REMARK UNBOUND:                -0.523
REMARK  Name = /home/qwerty/github/datacon2025hack/step_04_hit_selection/docking/ligands/lig_411.pdb
REMARK  7 active torsions:
REMARK  status: ('A' for Active; 'I' for Inactive)
REMARK    1  A    between atoms: C1_1  and  O1_2
REMARK    2  A    between atoms: O1_2  and  C2_3
REMARK    3  A    between atoms: C5_6  and  N1_7
REMARK    4  A    between atoms: N2_10  and  C7_11
REMARK    5  A    between atoms: C12_18  and  O3_19
REMARK    6  A    between atoms: C13_20  and  O4_21
REMARK    7  A    between atoms: O4_21  and  C14_22
REMARK                            x       y       z     vdW  Elec       q    Type
REMARK                         _______ _______ _______ _____ _____    ______ ____
ROOT
ATOM      1  N1  UNL     1       9.921   6.755  19.868  0.00  0.00    -0.266 N 
ATOM      2  C6  UNL     1      11.006   5.936  20.325  0.00  0.00    +0.308 C 
ATOM      3  O2  UNL     1      11.565   6.179  21.429  0.00  0.00    -0.252 OA
ATOM      4  N2  UNL     1      11.452   4.837  19.517  0.00  0.00    -0.266 N 
ATOM      5  H6  UNL     1       9.664   6.704  18.857  0.00  0.00    +0.156 HD
ATOM      6  H7  UNL     1      10.818   4.503  18.756  0.00  0.00    +0.156 HD
ENDROOT
BRANCH   4   7
ATOM      7  C7  UNL     1      12.603   4.040  19.839  0.00  0.00    +0.078 A 
ATOM      8  C8  UNL     1      13.871   4.499  19.468  0.00  0.00    +0.028 A 
ATOM      9  C9  UNL     1      15.010   3.753  19.767  0.00  0.00    +0.023 A 
ATOM     10  C10 UNL     1      14.898   2.541  20.454  0.00  0.00    +0.063 A 
ATOM     11 CL1  UNL     1      16.363   1.632  20.802  0.00  0.00    -0.082 Cl
ATOM     12  C11 UNL     1      13.634   2.078  20.862  0.00  0.00    +0.102 A 
ATOM     13 CL2  UNL     1      13.505   0.560  21.750  0.00  0.00    -0.078 Cl
ATOM     14  C12 UNL     1      12.481   2.838  20.567  0.00  0.00    +0.158 A 
BRANCH  14  15
ATOM     15  O3  UNL     1      11.217   2.435  21.007  0.00  0.00    -0.503 OA
ATOM     16  H10 UNL     1      10.947   2.428  21.983  0.00  0.00    +0.292 HD
ENDBRANCH  14  15
ENDBRANCH   4   7
BRANCH   1  20
ATOM     17  C2  UNL     1       8.113   9.749  22.288  0.00  0.00    +0.124 A 
ATOM     18  C3  UNL     1       7.718   8.403  22.388  0.00  0.00    +0.047 A 
ATOM     19  C4  UNL     1       8.325   7.431  21.590  0.00  0.00    +0.030 A 
ATOM     20  C5  UNL     1       9.320   7.784  20.670  0.00  0.00    +0.077 A 
ATOM     21  C13 UNL     1       9.750   9.124  20.585  0.00  0.00    +0.145 A 
ATOM     22  C15 UNL     1       9.126  10.099  21.390  0.00  0.00    +0.093 A 
BRANCH  17  24
ATOM     23  C1  UNL     1       6.734  11.820  22.539  0.00  0.00    +0.277 C 
ATOM     24  O1  UNL     1       7.530  10.762  23.064  0.00  0.00    -0.495 OA
ENDBRANCH  17  24
BRANCH  21  25
ATOM     25  O4  UNL     1      10.807   9.446  19.719  0.00  0.00    -0.493 OA
ATOM     26  C14 UNL     1      12.044  10.019  20.129  0.00  0.00    +0.277 C 
ENDBRANCH  21  25
ENDBRANCH   1  20
TORSDOF 5
ENDMDL
MODEL 5
REMARK VINA RESULT:    -5.951     17.350     17.854
REMARK INTER + INTRA:          -8.040
REMARK INTER:                  -7.522
REMARK INTRA:                  -0.518
REMARK UNBOUND:                -0.523
REMARK  Name = /home/qwerty/github/datacon2025hack/step_04_hit_selection/docking/ligands/lig_411.pdb
REMARK  7 active torsions:
REMARK  status: ('A' for Active; 'I' for Inactive)
REMARK    1  A    between atoms: C1_1  and  O1_2
REMARK    2  A    between atoms: O1_2  and  C2_3
REMARK    3  A    between atoms: C5_6  and  N1_7
REMARK    4  A    between atoms: N2_10  and  C7_11
REMARK    5  A    between atoms: C12_18  and  O3_19
REMARK    6  A    between atoms: C13_20  and  O4_21
REMARK    7  A    between atoms: O4_21  and  C14_22
REMARK                            x       y       z     vdW  Elec       q    Type
REMARK                         _______ _______ _______ _____ _____    ______ ____
ROOT
ATOM      1  N1  UNL     1      11.329   2.902  20.497  0.00  0.00    -0.266 N 
ATOM      2  C6  UNL     1      11.014   4.247  20.882  0.00  0.00    +0.308 C 
ATOM      3  O2  UNL     1      11.617   4.790  21.848  0.00  0.00    -0.252 OA
ATOM      4  N2  UNL     1      10.008   4.972  20.161  0.00  0.00    -0.266 N 
ATOM      5  H6  UNL     1      10.645   2.396  19.891  0.00  0.00    +0.156 HD
ATOM      6  H7  UNL     1       9.721   4.606  19.225  0.00  0.00    +0.156 HD
ENDROOT
BRANCH   4   7
ATOM      7  C7  UNL     1       9.548   6.276  20.549  0.00  0.00    +0.078 A 
ATOM      8  C8  UNL     1       8.270   6.407  21.104  0.00  0.00    +0.028 A 
ATOM      9  C9  UNL     1       7.793   7.657  21.495  0.00  0.00    +0.023 A 
ATOM     10  C10 UNL     1       8.591   8.794  21.349  0.00  0.00    +0.063 A 
ATOM     11 CL1  UNL     1       7.941  10.350  21.849  0.00  0.00    -0.082 Cl
ATOM     12  C11 UNL     1       9.890   8.678  20.820  0.00  0.00    +0.102 A 
ATOM     13 CL2  UNL     1      10.899  10.116  20.661  0.00  0.00    -0.078 Cl
ATOM     14  C12 UNL     1      10.377   7.411  20.432  0.00  0.00    +0.158 A 
BRANCH  14  15
ATOM     15  O3  UNL     1      11.683   7.253  19.957  0.00  0.00    -0.503 OA
ATOM     16  H10 UNL     1      12.322   6.557  20.317  0.00  0.00    +0.292 HD
ENDBRANCH  14  15
ENDBRANCH   4   7
BRANCH   1  20
ATOM     17  C2  UNL     1      14.588   0.727  22.153  0.00  0.00    +0.124 A 
ATOM     18  C3  UNL     1      14.768   1.557  21.033  0.00  0.00    +0.047 A 
ATOM     19  C4  UNL     1      13.689   2.268  20.504  0.00  0.00    +0.030 A 
ATOM     20  C5  UNL     1      12.413   2.153  21.069  0.00  0.00    +0.077 A 
ATOM     21  C13 UNL     1      12.226   1.352  22.215  0.00  0.00    +0.145 A 
ATOM     22  C15 UNL     1      13.320   0.632  22.737  0.00  0.00    +0.093 A 
BRANCH  17  24
ATOM     23  C1  UNL     1      15.689  -1.434  22.763  0.00  0.00    +0.277 C 
ATOM     24  O1  UNL     1      15.638  -0.011  22.717  0.00  0.00    -0.495 OA
ENDBRANCH  17  24
BRANCH  21  25
ATOM     25  O4  UNL     1      10.960   1.314  22.819  0.00  0.00    -0.493 OA
ATOM     26  C14 UNL     1       9.964   0.331  22.554  0.00  0.00    +0.277 C 
ENDBRANCH  21  25
ENDBRANCH   1  20
TORSDOF 5
ENDMDL
MODEL 6
REMARK VINA RESULT:    -5.907      1.422      2.069
REMARK INTER + INTRA:          -7.984
REMARK INTER:                  -7.402
REMARK INTRA:                  -0.582
REMARK UNBOUND:                -0.523
REMARK  Name = /home/qwerty/github/datacon2025hack/step_04_hit_selection/docking/ligands/lig_411.pdb
REMARK  7 active torsions:
REMARK  status: ('A' for Active; 'I' for Inactive)
REMARK    1  A    between atoms: C1_1  and  O1_2
REMARK    2  A    between atoms: O1_2  and  C2_3
REMARK    3  A    between atoms: C5_6  and  N1_7
REMARK    4  A    between atoms: N2_10  and  C7_11
REMARK    5  A    between atoms: C12_18  and  O3_19
REMARK    6  A    between atoms: C13_20  and  O4_21
REMARK    7  A    between atoms: O4_21  and  C14_22
REMARK                            x       y       z     vdW  Elec       q    Type
REMARK                         _______ _______ _______ _____ _____    ______ ____
ROOT
ATOM      1  N1  UNL     1      18.276  11.172  37.614  0.00  0.00    -0.266 N 
ATOM      2  C6  UNL     1      16.999  11.402  37.001  0.00  0.00    +0.308 C 
ATOM      3  O2  UNL     1      16.705  10.836  35.913  0.00  0.00    -0.252 OA
ATOM      4  N2  UNL     1      16.058  12.279  37.636  0.00  0.00    -0.266 N 
ATOM      5  H6  UNL     1      18.592  11.845  38.348  0.00  0.00    +0.156 HD
ATOM      6  H7  UNL     1      16.216  12.518  38.641  0.00  0.00    +0.156 HD
ENDROOT
BRANCH   4   7
ATOM      7  C7  UNL     1      14.808  12.655  37.037  0.00  0.00    +0.078 A 
ATOM      8  C8  UNL     1      14.643  13.967  36.580  0.00  0.00    +0.028 A 
ATOM      9  C9  UNL     1      13.444  14.367  35.992  0.00  0.00    +0.023 A 
ATOM     10  C10 UNL     1      12.395  13.456  35.840  0.00  0.00    +0.063 A 
ATOM     11 CL1  UNL     1      10.899  14.009  35.099  0.00  0.00    -0.082 Cl
ATOM     12  C11 UNL     1      12.553  12.124  36.267  0.00  0.00    +0.102 A 
ATOM     13 CL2  UNL     1      11.232  10.976  36.049  0.00  0.00    -0.078 Cl
ATOM     14  C12 UNL     1      13.770  11.717  36.855  0.00  0.00    +0.158 A 
BRANCH  14  15
ATOM     15  O3  UNL     1      13.979  10.389  37.237  0.00  0.00    -0.503 OA
ATOM     16  H10 UNL     1      14.898  10.001  37.412  0.00  0.00    +0.292 HD
ENDBRANCH  14  15
ENDBRANCH   4   7
BRANCH   1  20
ATOM     17  C2  UNL     1      21.031   8.260  36.192  0.00  0.00    +0.124 A 
ATOM     18  C3  UNL     1      20.030   7.917  37.116  0.00  0.00    +0.047 A 
ATOM     19  C4  UNL     1      19.129   8.883  37.570  0.00  0.00    +0.030 A 
ATOM     20  C5  UNL     1      19.221  10.207  37.125  0.00  0.00    +0.077 A 
ATOM     21  C13 UNL     1      20.199  10.558  36.170  0.00  0.00    +0.145 A 
ATOM     22  C15 UNL     1      21.107   9.577  35.724  0.00  0.00    +0.093 A 
BRANCH  17  24
ATOM     23  C1  UNL     1      23.109   6.890  36.432  0.00  0.00    +0.277 C 
ATOM     24  O1  UNL     1      21.962   7.327  35.711  0.00  0.00    -0.495 OA
ENDBRANCH  17  24
BRANCH  21  25
ATOM     25  O4  UNL     1      20.223  11.870  35.671  0.00  0.00    -0.493 OA
ATOM     26  C14 UNL     1      19.738  12.258  34.390  0.00  0.00    +0.277 C 
ENDBRANCH  21  25
ENDBRANCH   1  20
TORSDOF 5
ENDMDL
MODEL 7
REMARK VINA RESULT:    -5.807      4.327      8.394
REMARK INTER + INTRA:          -7.858
REMARK INTER:                  -7.289
REMARK INTRA:                  -0.569
REMARK UNBOUND:                -0.523
REMARK  Name = /home/qwerty/github/datacon2025hack/step_04_hit_selection/docking/ligands/lig_411.pdb
REMARK  7 active torsions:
REMARK  status: ('A' for Active; 'I' for Inactive)
REMARK    1  A    between atoms: C1_1  and  O1_2
REMARK    2  A    between atoms: O1_2  and  C2_3
REMARK    3  A    between atoms: C5_6  and  N1_7
REMARK    4  A    between atoms: N2_10  and  C7_11
REMARK    5  A    between atoms: C12_18  and  O3_19
REMARK    6  A    between atoms: C13_20  and  O4_21
REMARK    7  A    between atoms: O4_21  and  C14_22
REMARK                            x       y       z     vdW  Elec       q    Type
REMARK                         _______ _______ _______ _____ _____    ______ ____
ROOT
ATOM      1  N1  UNL     1      18.466  12.125  36.748  0.00  0.00    -0.266 N 
ATOM      2  C6  UNL     1      19.120  11.089  36.000  0.00  0.00    +0.308 C 
ATOM      3  O2  UNL     1      18.442  10.285  35.303  0.00  0.00    -0.252 OA
ATOM      4  N2  UNL     1      20.549  10.975  36.049  0.00  0.00    -0.266 N 
ATOM      5  H6  UNL     1      19.008  12.591  37.510  0.00  0.00    +0.156 HD
ATOM      6  H7  UNL     1      21.090  11.793  36.409  0.00  0.00    +0.156 HD
ENDROOT
BRANCH   4   7
ATOM      7  C7  UNL     1      21.273   9.901  35.429  0.00  0.00    +0.078 A 
ATOM      8  C8  UNL     1      21.544   9.970  34.058  0.00  0.00    +0.028 A 
ATOM      9  C9  UNL     1      22.247   8.947  33.423  0.00  0.00    +0.023 A 
ATOM     10  C10 UNL     1      22.702   7.846  34.153  0.00  0.00    +0.063 A 
ATOM     11 CL1  UNL     1      23.578   6.577  33.306  0.00  0.00    -0.082 Cl
ATOM     12  C11 UNL     1      22.465   7.774  35.538  0.00  0.00    +0.102 A 
ATOM     13 CL2  UNL     1      23.064   6.391  36.455  0.00  0.00    -0.078 Cl
ATOM     14  C12 UNL     1      21.760   8.814  36.183  0.00  0.00    +0.158 A 
BRANCH  14  15
ATOM     15  O3  UNL     1      21.558   8.800  37.566  0.00  0.00    -0.503 OA
ATOM     16  H10 UNL     1      20.905   9.413  38.036  0.00  0.00    +0.292 HD
ENDBRANCH  14  15
ENDBRANCH   4   7
BRANCH   1  20
ATOM     17  C2  UNL     1      14.315  12.976  36.388  0.00  0.00    +0.124 A 
ATOM     18  C3  UNL     1      15.262  13.654  35.602  0.00  0.00    +0.047 A 
ATOM     19  C4  UNL     1      16.621  13.361  35.728  0.00  0.00    +0.030 A 
ATOM     20  C5  UNL     1      17.060  12.400  36.648  0.00  0.00    +0.077 A 
ATOM     21  C13 UNL     1      16.118  11.686  37.417  0.00  0.00    +0.145 A 
ATOM     22  C15 UNL     1      14.748  11.996  37.287  0.00  0.00    +0.093 A 
BRANCH  17  24
ATOM     23  C1  UNL     1      12.363  14.239  35.468  0.00  0.00    +0.277 C 
ATOM     24  O1  UNL     1      12.940  13.239  36.301  0.00  0.00    -0.495 OA
ENDBRANCH  17  24
BRANCH  21  25
ATOM     25  O4  UNL     1      16.568  10.668  38.272  0.00  0.00    -0.493 OA
ATOM     26  C14 UNL     1      16.532   9.278  37.966  0.00  0.00    +0.277 C 
ENDBRANCH  21  25
ENDBRANCH   1  20
TORSDOF 5
ENDMDL
MODEL 8
REMARK VINA RESULT:    -5.783      4.487      8.284
REMARK INTER + INTRA:          -7.828
REMARK INTER:                  -7.370
REMARK INTRA:                  -0.458
REMARK UNBOUND:                -0.523
REMARK  Name = /home/qwerty/github/datacon2025hack/step_04_hit_selection/docking/ligands/lig_411.pdb
REMARK  7 active torsions:
REMARK  status: ('A' for Active; 'I' for Inactive)
REMARK    1  A    between atoms: C1_1  and  O1_2
REMARK    2  A    between atoms: O1_2  and  C2_3
REMARK    3  A    between atoms: C5_6  and  N1_7
REMARK    4  A    between atoms: N2_10  and  C7_11
REMARK    5  A    between atoms: C12_18  and  O3_19
REMARK    6  A    between atoms: C13_20  and  O4_21
REMARK    7  A    between atoms: O4_21  and  C14_22
REMARK                            x       y       z     vdW  Elec       q    Type
REMARK                         _______ _______ _______ _____ _____    ______ ____
ROOT
ATOM      1  N1  UNL     1      19.539  10.059  37.389  0.00  0.00    -0.266 N 
ATOM      2  C6  UNL     1      20.269   9.316  36.403  0.00  0.00    +0.308 C 
ATOM      3  O2  UNL     1      19.678   8.853  35.389  0.00  0.00    -0.252 OA
ATOM      4  N2  UNL     1      21.677   9.104  36.577  0.00  0.00    -0.266 N 
ATOM      5  H6  UNL     1      19.981  10.192  38.326  0.00  0.00    +0.156 HD
ATOM      6  H7  UNL     1      22.179   9.707  37.267  0.00  0.00    +0.156 HD
ENDROOT
BRANCH   4   7
ATOM      7  C7  UNL     1      22.461   8.276  35.703  0.00  0.00    +0.078 A 
ATOM      8  C8  UNL     1      23.008   7.090  36.203  0.00  0.00    +0.028 A 
ATOM      9  C9  UNL     1      23.772   6.261  35.383  0.00  0.00    +0.023 A 
ATOM     10  C10 UNL     1      23.990   6.601  34.045  0.00  0.00    +0.063 A 
ATOM     11 CL1  UNL     1      24.967   5.527  33.052  0.00  0.00    -0.082 Cl
ATOM     12  C11 UNL     1      23.423   7.775  33.517  0.00  0.00    +0.102 A 
ATOM     13 CL2  UNL     1      23.685   8.183  31.820  0.00  0.00    -0.078 Cl
ATOM     14  C12 UNL     1      22.642   8.610  34.345  0.00  0.00    +0.158 A 
BRANCH  14  15
ATOM     15  O3  UNL     1      22.019   9.753  33.836  0.00  0.00    -0.503 OA
ATOM     16  H10 UNL     1      22.073  10.658  34.285  0.00  0.00    +0.292 HD
ENDBRANCH  14  15
ENDBRANCH   4   7
BRANCH   1  20
ATOM     17  C2  UNL     1      15.445  11.130  36.964  0.00  0.00    +0.124 A 
ATOM     18  C3  UNL     1      15.816   9.930  37.595  0.00  0.00    +0.047 A 
ATOM     19  C4  UNL     1      17.164   9.595  37.731  0.00  0.00    +0.030 A 
ATOM     20  C5  UNL     1      18.162  10.438  37.229  0.00  0.00    +0.077 A 
ATOM     21  C13 UNL     1      17.805  11.662  36.626  0.00  0.00    +0.145 A 
ATOM     22  C15 UNL     1      16.441  11.988  36.487  0.00  0.00    +0.093 A 
BRANCH  17  24
ATOM     23  C1  UNL     1      13.059  10.621  36.416  0.00  0.00    +0.277 C 
ATOM     24  O1  UNL     1      14.104  11.509  36.799  0.00  0.00    -0.495 OA
ENDBRANCH  17  24
BRANCH  21  25
ATOM     25  O4  UNL     1      18.820  12.535  36.204  0.00  0.00    -0.493 OA
ATOM     26  C14 UNL     1      19.050  12.918  34.851  0.00  0.00    +0.277 C 
ENDBRANCH  21  25
ENDBRANCH   1  20
TORSDOF 5
ENDMDL
MODEL 9
REMARK VINA RESULT:    -5.778     17.528     19.368
REMARK INTER + INTRA:          -7.821
REMARK INTER:                  -7.400
REMARK INTRA:                  -0.421
REMARK UNBOUND:                -0.523
REMARK  Name = /home/qwerty/github/datacon2025hack/step_04_hit_selection/docking/ligands/lig_411.pdb
REMARK  7 active torsions:
REMARK  status: ('A' for Active; 'I' for Inactive)
REMARK    1  A    between atoms: C1_1  and  O1_2
REMARK    2  A    between atoms: O1_2  and  C2_3
REMARK    3  A    between atoms: C5_6  and  N1_7
REMARK    4  A    between atoms: N2_10  and  C7_11
REMARK    5  A    between atoms: C12_18  and  O3_19
REMARK    6  A    between atoms: C13_20  and  O4_21
REMARK    7  A    between atoms: O4_21  and  C14_22
REMARK                            x       y       z     vdW  Elec       q    Type
REMARK                         _______ _______ _______ _____ _____    ______ ____
ROOT
ATOM      1  N1  UNL     1      10.379   3.617  20.662  0.00  0.00    -0.266 N 
ATOM      2  C6  UNL     1      11.305   3.020  21.581  0.00  0.00    +0.308 C 
ATOM      3  O2  UNL     1      11.947   3.741  22.394  0.00  0.00    -0.252 OA
ATOM      4  N2  UNL     1      11.497   1.599  21.570  0.00  0.00    -0.266 N 
ATOM      5  H6  UNL     1      10.075   3.049  19.840  0.00  0.00    +0.156 HD
ATOM      6  H7  UNL     1      10.778   1.014  21.086  0.00  0.00    +0.156 HD
ENDROOT
BRANCH   4   7
ATOM      7  C7  UNL     1      12.485   0.932  22.372  0.00  0.00    +0.078 A 
ATOM      8  C8  UNL     1      12.214   0.696  23.724  0.00  0.00    +0.028 A 
ATOM      9  C9  UNL     1      13.150   0.049  24.530  0.00  0.00    +0.023 A 
ATOM     10  C10 UNL     1      14.365  -0.382  23.993  0.00  0.00    +0.063 A 
ATOM     11 CL1  UNL     1      15.516  -1.186  25.053  0.00  0.00    -0.082 Cl
ATOM     12  C11 UNL     1      14.643  -0.179  22.629  0.00  0.00    +0.102 A 
ATOM     13 CL2  UNL     1      16.171  -0.749  21.956  0.00  0.00    -0.078 Cl
ATOM     14  C12 UNL     1      13.692   0.468  21.810  0.00  0.00    +0.158 A 
BRANCH  14  15
ATOM     15  O3  UNL     1      13.913   0.634  20.439  0.00  0.00    -0.503 OA
ATOM     16  H10 UNL     1      14.699   0.222  19.952  0.00  0.00    +0.292 HD
ENDBRANCH  14  15
ENDBRANCH   4   7
BRANCH   1  20
ATOM     17  C2  UNL     1       9.379   7.750  20.716  0.00  0.00    +0.124 A 
ATOM     18  C3  UNL     1      10.630   7.316  20.246  0.00  0.00    +0.047 A 
ATOM     19  C4  UNL     1      10.942   5.955  20.229  0.00  0.00    +0.030 A 
ATOM     20  C5  UNL     1      10.022   5.008  20.696  0.00  0.00    +0.077 A 
ATOM     21  C13 UNL     1       8.750   5.426  21.137  0.00  0.00    +0.145 A 
ATOM     22  C15 UNL     1       8.448   6.803  21.157  0.00  0.00    +0.093 A 
BRANCH  17  24
ATOM     23  C1  UNL     1       9.929  10.184  20.561  0.00  0.00    +0.277 C 
ATOM     24  O1  UNL     1       9.021   9.106  20.758  0.00  0.00    -0.495 OA
ENDBRANCH  17  24
BRANCH  21  25
ATOM     25  O4  UNL     1       7.809   4.458  21.522  0.00  0.00    -0.493 OA
ATOM     26  C14 UNL     1       7.532   4.087  22.869  0.00  0.00    +0.277 C 
ENDBRANCH  21  25
ENDBRANCH   1  20
TORSDOF 5
ENDMDL
