MODEL 1
REMARK VINA RESULT:    -7.245      0.000      0.000
REMARK INTER + INTRA:          -9.494
REMARK INTER:                  -8.940
REMARK INTRA:                  -0.554
REMARK UNBOUND:                -0.554
REMARK  Name = /home/qwerty/github/datacon2025hack/step_04_hit_selection/docking/ligands/lig_51.pdb
REMARK  4 active torsions:
REMARK  status: ('A' for Active; 'I' for Inactive)
REMARK    1  A    between atoms: C1_2  and  C11_20
REMARK    2  A    between atoms: N1_3  and  C2_4
REMARK    3  A    between atoms: N2_7  and  C5_8
REMARK    4  A    between atoms: C8_12  and  C9_13
REMARK                            x       y       z     vdW  Elec       q    Type
REMARK                         _______ _______ _______ _____ _____    ______ ____
ROOT
ATOM      1  C2  UNL     1      19.773   4.041  24.337  0.00  0.00    +0.092 C 
ATOM      2  C3  UNL     1      19.566   2.547  24.053  0.00  0.00    +0.043 C 
ATOM      3  C4  UNL     1      20.327   1.811  25.146  0.00  0.00    +0.108 C 
ATOM      4  N2  UNL     1      20.513   2.781  26.213  0.00  0.00    -0.312 N 
ATOM      5  C10 UNL     1      20.084   4.117  25.832  0.00  0.00    +0.128 C 
ENDROOT
BRANCH   4   6
ATOM      6  C5  UNL     1      21.059   2.477  27.510  0.00  0.00    +0.140 A 
ATOM      7  C6  UNL     1      20.710   3.221  28.650  0.00  0.00    +0.154 A 
ATOM      8  N3  UNL     1      21.249   2.895  29.853  0.00  0.00    -0.258 NA
ATOM      9  C7  UNL     1      22.120   1.862  29.983  0.00  0.00    +0.142 A 
ATOM     10  C8  UNL     1      22.473   1.112  28.853  0.00  0.00    +0.131 A 
ATOM     11  N8  UNL     1      21.932   1.442  27.650  0.00  0.00    -0.226 NA
BRANCH  10  12
ATOM     12  C9  UNL     1      23.411  -0.017  28.945  0.00  0.00    +0.224 A 
ATOM     13  N4  UNL     1      24.715   0.092  29.270  0.00  0.00    -0.106 NA
ATOM     14  N5  UNL     1      25.178  -1.147  29.235  0.00  0.00    -0.048 NA
ATOM     15  N6  UNL     1      24.196  -1.967  28.903  0.00  0.00    -0.176 N 
ATOM     16  N7  UNL     1      23.071  -1.299  28.712  0.00  0.00    -0.131 NA
ATOM     17  H9  UNL     1      24.295  -3.001  28.805  0.00  0.00    +0.214 HD
ENDBRANCH  10  12
ENDBRANCH   4   6
BRANCH   1  20
ATOM     18  O1  UNL     1      19.511   5.575  21.962  0.00  0.00    -0.269 OA
ATOM     19  C1  UNL     1      20.684   5.370  22.376  0.00  0.00    +0.261 C 
ATOM     20  N1  UNL     1      20.896   4.574  23.554  0.00  0.00    -0.306 N 
ATOM     21  H1  UNL     1      21.872   4.360  23.855  0.00  0.00    +0.149 HD
BRANCH  19  22
ATOM     22  C11 UNL     1      21.816   5.958  21.632  0.00  0.00    +0.103 A 
ATOM     23  C12 UNL     1      22.044   5.855  20.256  0.00  0.00    +0.042 A 
ATOM     24  C13 UNL     1      23.211   6.551  20.040  0.00  0.00    +0.018 A 
ATOM     25  C14 UNL     1      23.932   6.793  18.875  0.00  0.00    +0.120 A 
ATOM     26  N9  UNL     1      25.079   7.530  18.969  0.00  0.00    -0.263 NA
ATOM     27  C15 UNL     1      25.526   8.027  20.166  0.00  0.00    +0.113 A 
ATOM     28  C16 UNL     1      24.806   7.788  21.350  0.00  0.00    +0.046 A 
ATOM     29  C17 UNL     1      23.639   7.036  21.243  0.00  0.00    +0.050 A 
ATOM     30  N10 UNL     1      22.797   6.682  22.226  0.00  0.00    -0.350 N 
ATOM     31  H16 UNL     1      22.886   6.917  23.241  0.00  0.00    +0.166 HD
ENDBRANCH  19  22
ENDBRANCH   1  20
TORSDOF 4
ENDMDL
MODEL 2
REMARK VINA RESULT:    -7.109     12.700     16.511
REMARK INTER + INTRA:          -9.326
REMARK INTER:                  -8.774
REMARK INTRA:                  -0.552
REMARK UNBOUND:                -0.554
REMARK  Name = /home/qwerty/github/datacon2025hack/step_04_hit_selection/docking/ligands/lig_51.pdb
REMARK  4 active torsions:
REMARK  status: ('A' for Active; 'I' for Inactive)
REMARK    1  A    between atoms: C1_2  and  C11_20
REMARK    2  A    between atoms: N1_3  and  C2_4
REMARK    3  A    between atoms: N2_7  and  C5_8
REMARK    4  A    between atoms: C8_12  and  C9_13
REMARK                            x       y       z     vdW  Elec       q    Type
REMARK                         _______ _______ _______ _____ _____    ______ ____
ROOT
ATOM      1  C2  UNL     1      17.961  12.819  36.082  0.00  0.00    +0.092 C 
ATOM      2  C3  UNL     1      17.539  13.513  34.780  0.00  0.00    +0.043 C 
ATOM      3  C4  UNL     1      16.080  13.139  34.568  0.00  0.00    +0.108 C 
ATOM      4  N2  UNL     1      15.596  12.703  35.868  0.00  0.00    -0.312 N 
ATOM      5  C10 UNL     1      16.658  12.611  36.856  0.00  0.00    +0.128 C 
ENDROOT
BRANCH   4   6
ATOM      6  C5  UNL     1      14.222  12.394  36.169  0.00  0.00    +0.140 A 
ATOM      7  C6  UNL     1      13.871  11.278  36.948  0.00  0.00    +0.154 A 
ATOM      8  N3  UNL     1      12.562  11.029  37.208  0.00  0.00    -0.258 NA
ATOM      9  C7  UNL     1      11.578  11.834  36.732  0.00  0.00    +0.142 A 
ATOM     10  C8  UNL     1      11.918  12.950  35.956  0.00  0.00    +0.131 A 
ATOM     11  N8  UNL     1      13.230  13.197  35.698  0.00  0.00    -0.226 NA
BRANCH  10  12
ATOM     12  C9  UNL     1      10.888  13.854  35.420  0.00  0.00    +0.224 A 
ATOM     13  N4  UNL     1       9.799  14.267  36.100  0.00  0.00    -0.106 NA
ATOM     14  N5  UNL     1       9.152  15.055  35.257  0.00  0.00    -0.048 NA
ATOM     15  N6  UNL     1       9.821  15.114  34.119  0.00  0.00    -0.176 N 
ATOM     16  N7  UNL     1      10.915  14.375  34.179  0.00  0.00    -0.131 NA
ATOM     17  H9  UNL     1       9.526  15.669  33.286  0.00  0.00    +0.214 HD
ENDBRANCH  10  12
ENDBRANCH   4   6
BRANCH   1  20
ATOM     18  O1  UNL     1      20.766  12.393  35.964  0.00  0.00    -0.269 OA
ATOM     19  C1  UNL     1      20.033  11.382  35.792  0.00  0.00    +0.261 C 
ATOM     20  N1  UNL     1      18.602  11.527  35.805  0.00  0.00    -0.306 N 
ATOM     21  H1  UNL     1      18.005  10.696  35.602  0.00  0.00    +0.149 HD
BRANCH  19  22
ATOM     22  C11 UNL     1      20.670  10.067  35.579  0.00  0.00    +0.103 A 
ATOM     23  C12 UNL     1      20.511   9.243  34.460  0.00  0.00    +0.042 A 
ATOM     24  C13 UNL     1      21.287   8.138  34.724  0.00  0.00    +0.018 A 
ATOM     25  C14 UNL     1      21.524   6.985  33.982  0.00  0.00    +0.120 A 
ATOM     26  N9  UNL     1      22.356   6.039  34.512  0.00  0.00    -0.263 NA
ATOM     27  C15 UNL     1      22.951   6.198  35.736  0.00  0.00    +0.113 A 
ATOM     28  C16 UNL     1      22.718   7.360  36.495  0.00  0.00    +0.046 A 
ATOM     29  C17 UNL     1      21.869   8.317  35.946  0.00  0.00    +0.050 A 
ATOM     30  N10 UNL     1      21.502   9.492  36.482  0.00  0.00    -0.350 N 
ATOM     31  H16 UNL     1      21.798   9.878  37.407  0.00  0.00    +0.166 HD
ENDBRANCH  19  22
ENDBRANCH   1  20
TORSDOF 4
ENDMDL
MODEL 3
REMARK VINA RESULT:    -7.039      8.384     10.853
REMARK INTER + INTRA:          -9.239
REMARK INTER:                  -8.727
REMARK INTRA:                  -0.512
REMARK UNBOUND:                -0.554
REMARK  Name = /home/qwerty/github/datacon2025hack/step_04_hit_selection/docking/ligands/lig_51.pdb
REMARK  4 active torsions:
REMARK  status: ('A' for Active; 'I' for Inactive)
REMARK    1  A    between atoms: C1_2  and  C11_20
REMARK    2  A    between atoms: N1_3  and  C2_4
REMARK    3  A    between atoms: N2_7  and  C5_8
REMARK    4  A    between atoms: C8_12  and  C9_13
REMARK                            x       y       z     vdW  Elec       q    Type
REMARK                         _______ _______ _______ _____ _____    ______ ____
ROOT
ATOM      1  C2  UNL     1      14.774   2.485  19.930  0.00  0.00    +0.092 C 
ATOM      2  C3  UNL     1      15.975   3.209  20.551  0.00  0.00    +0.043 C 
ATOM      3  C4  UNL     1      16.344   2.407  21.790  0.00  0.00    +0.108 C 
ATOM      4  N2  UNL     1      15.741   1.097  21.600  0.00  0.00    -0.312 N 
ATOM      5  C10 UNL     1      14.884   1.043  20.428  0.00  0.00    +0.128 C 
ENDROOT
BRANCH   4   6
ATOM      6  C5  UNL     1      15.955  -0.036  22.462  0.00  0.00    +0.140 A 
ATOM      7  C6  UNL     1      16.880  -1.044  22.140  0.00  0.00    +0.154 A 
ATOM      8  N3  UNL     1      17.049  -2.092  22.987  0.00  0.00    -0.258 NA
ATOM      9  C7  UNL     1      16.345  -2.191  24.143  0.00  0.00    +0.142 A 
ATOM     10  C8  UNL     1      15.422  -1.190  24.475  0.00  0.00    +0.131 A 
ATOM     11  N8  UNL     1      15.255  -0.142  23.625  0.00  0.00    -0.226 NA
BRANCH  10  12
ATOM     12  C9  UNL     1      14.637  -1.252  25.718  0.00  0.00    +0.224 A 
ATOM     13  N4  UNL     1      13.989  -2.348  26.162  0.00  0.00    -0.106 NA
ATOM     14  N5  UNL     1      13.422  -1.969  27.296  0.00  0.00    -0.048 NA
ATOM     15  N6  UNL     1      13.716  -0.700  27.525  0.00  0.00    -0.176 N 
ATOM     16  N7  UNL     1      14.476  -0.213  26.559  0.00  0.00    -0.131 NA
ATOM     17  H9  UNL     1      13.392  -0.157  28.355  0.00  0.00    +0.214 HD
ENDBRANCH  10  12
ENDBRANCH   4   6
BRANCH   1  20
ATOM     18  O1  UNL     1      13.559   4.770  18.760  0.00  0.00    -0.269 OA
ATOM     19  C1  UNL     1      12.940   4.226  19.714  0.00  0.00    +0.261 C 
ATOM     20  N1  UNL     1      13.509   3.085  20.377  0.00  0.00    -0.306 N 
ATOM     21  H1  UNL     1      13.019   2.678  21.203  0.00  0.00    +0.149 HD
BRANCH  19  22
ATOM     22  C11 UNL     1      11.636   4.783  20.127  0.00  0.00    +0.103 A 
ATOM     23  C12 UNL     1      11.347   6.133  20.352  0.00  0.00    +0.042 A 
ATOM     24  C13 UNL     1      10.022   6.152  20.721  0.00  0.00    +0.018 A 
ATOM     25  C14 UNL     1       9.182   7.205  21.069  0.00  0.00    +0.120 A 
ATOM     26  N9  UNL     1       7.888   6.914  21.398  0.00  0.00    -0.263 NA
ATOM     27  C15 UNL     1       7.408   5.631  21.393  0.00  0.00    +0.113 A 
ATOM     28  C16 UNL     1       8.248   4.558  21.044  0.00  0.00    +0.046 A 
ATOM     29  C17 UNL     1       9.565   4.865  20.710  0.00  0.00    +0.050 A 
ATOM     30  N10 UNL     1      10.540   4.016  20.349  0.00  0.00    -0.350 N 
ATOM     31  H16 UNL     1      10.464   2.977  20.262  0.00  0.00    +0.166 HD
ENDBRANCH  19  22
ENDBRANCH   1  20
TORSDOF 4
ENDMDL
MODEL 4
REMARK VINA RESULT:    -7.003      3.238      5.110
REMARK INTER + INTRA:          -9.195
REMARK INTER:                  -8.652
REMARK INTRA:                  -0.543
REMARK UNBOUND:                -0.554
REMARK  Name = /home/qwerty/github/datacon2025hack/step_04_hit_selection/docking/ligands/lig_51.pdb
REMARK  4 active torsions:
REMARK  status: ('A' for Active; 'I' for Inactive)
REMARK    1  A    between atoms: C1_2  and  C11_20
REMARK    2  A    between atoms: N1_3  and  C2_4
REMARK    3  A    between atoms: N2_7  and  C5_8
REMARK    4  A    between atoms: C8_12  and  C9_13
REMARK                            x       y       z     vdW  Elec       q    Type
REMARK                         _______ _______ _______ _____ _____    ______ ____
ROOT
ATOM      1  C2  UNL     1      21.053   4.121  24.133  0.00  0.00    +0.092 C 
ATOM      2  C3  UNL     1      21.168   5.339  25.059  0.00  0.00    +0.043 C 
ATOM      3  C4  UNL     1      20.892   4.818  26.462  0.00  0.00    +0.108 C 
ATOM      4  N2  UNL     1      21.102   3.381  26.392  0.00  0.00    -0.312 N 
ATOM      5  C10 UNL     1      21.329   2.916  25.034  0.00  0.00    +0.128 C 
ENDROOT
BRANCH   4   6
ATOM      6  C5  UNL     1      21.093   2.496  27.528  0.00  0.00    +0.140 A 
ATOM      7  C6  UNL     1      20.056   2.522  28.475  0.00  0.00    +0.154 A 
ATOM      8  N3  UNL     1      20.090   1.666  29.529  0.00  0.00    -0.258 NA
ATOM      9  C7  UNL     1      21.106   0.779  29.690  0.00  0.00    +0.142 A 
ATOM     10  C8  UNL     1      22.144   0.744  28.750  0.00  0.00    +0.131 A 
ATOM     11  N8  UNL     1      22.107   1.603  27.697  0.00  0.00    -0.226 NA
BRANCH  10  12
ATOM     12  C9  UNL     1      23.265  -0.200  28.881  0.00  0.00    +0.224 A 
ATOM     13  N4  UNL     1      24.540   0.154  29.140  0.00  0.00    -0.106 NA
ATOM     14  N5  UNL     1      25.208  -0.988  29.174  0.00  0.00    -0.048 NA
ATOM     15  N6  UNL     1      24.371  -1.986  28.945  0.00  0.00    -0.176 N 
ATOM     16  N7  UNL     1      23.144  -1.535  28.757  0.00  0.00    -0.131 NA
ATOM     17  H9  UNL     1      24.644  -2.993  28.918  0.00  0.00    +0.214 HD
ENDBRANCH  10  12
ENDBRANCH   4   6
BRANCH   1  20
ATOM     18  O1  UNL     1      20.435   4.551  21.396  0.00  0.00    -0.269 OA
ATOM     19  C1  UNL     1      19.476   4.229  22.148  0.00  0.00    +0.261 C 
ATOM     20  N1  UNL     1      19.707   4.027  23.552  0.00  0.00    -0.306 N 
ATOM     21  H1  UNL     1      18.898   3.819  24.177  0.00  0.00    +0.149 HD
BRANCH  19  22
ATOM     22  C11 UNL     1      18.131   4.068  21.560  0.00  0.00    +0.103 A 
ATOM     23  C12 UNL     1      17.300   2.951  21.692  0.00  0.00    +0.042 A 
ATOM     24  C13 UNL     1      16.171   3.265  20.970  0.00  0.00    +0.018 A 
ATOM     25  C14 UNL     1      15.003   2.547  20.734  0.00  0.00    +0.120 A 
ATOM     26  N9  UNL     1      14.037   3.125  19.960  0.00  0.00    -0.263 NA
ATOM     27  C15 UNL     1      14.191   4.375  19.421  0.00  0.00    +0.113 A 
ATOM     28  C16 UNL     1      15.367   5.111  19.652  0.00  0.00    +0.046 A 
ATOM     29  C17 UNL     1      16.345   4.513  20.442  0.00  0.00    +0.050 A 
ATOM     30  N10 UNL     1      17.539   5.017  20.793  0.00  0.00    -0.350 N 
ATOM     31  H16 UNL     1      17.927   5.950  20.526  0.00  0.00    +0.166 HD
ENDBRANCH  19  22
ENDBRANCH   1  20
TORSDOF 4
ENDMDL
MODEL 5
REMARK VINA RESULT:    -6.891      6.594     10.942
REMARK INTER + INTRA:          -9.057
REMARK INTER:                  -8.498
REMARK INTRA:                  -0.559
REMARK UNBOUND:                -0.554
REMARK  Name = /home/qwerty/github/datacon2025hack/step_04_hit_selection/docking/ligands/lig_51.pdb
REMARK  4 active torsions:
REMARK  status: ('A' for Active; 'I' for Inactive)
REMARK    1  A    between atoms: C1_2  and  C11_20
REMARK    2  A    between atoms: N1_3  and  C2_4
REMARK    3  A    between atoms: N2_7  and  C5_8
REMARK    4  A    between atoms: C8_12  and  C9_13
REMARK                            x       y       z     vdW  Elec       q    Type
REMARK                         _______ _______ _______ _____ _____    ______ ____
ROOT
ATOM      1  C2  UNL     1      18.934   1.836  33.701  0.00  0.00    +0.092 C 
ATOM      2  C3  UNL     1      17.603   1.601  32.975  0.00  0.00    +0.043 C 
ATOM      3  C4  UNL     1      17.919   1.708  31.491  0.00  0.00    +0.108 C 
ATOM      4  N2  UNL     1      19.357   1.518  31.383  0.00  0.00    -0.312 N 
ATOM      5  C10 UNL     1      20.009   1.462  32.680  0.00  0.00    +0.128 C 
ENDROOT
BRANCH   4   6
ATOM      6  C5  UNL     1      20.076   1.395  30.142  0.00  0.00    +0.140 A 
ATOM      7  C6  UNL     1      19.577   1.934  28.944  0.00  0.00    +0.154 A 
ATOM      8  N3  UNL     1      20.293   1.795  27.798  0.00  0.00    -0.258 NA
ATOM      9  C7  UNL     1      21.485   1.146  27.781  0.00  0.00    +0.142 A 
ATOM     10  C8  UNL     1      21.992   0.607  28.971  0.00  0.00    +0.131 A 
ATOM     11  N8  UNL     1      21.273   0.748  30.116  0.00  0.00    -0.226 NA
BRANCH  10  12
ATOM     12  C9  UNL     1      23.281  -0.103  29.003  0.00  0.00    +0.224 A 
ATOM     13  N4  UNL     1      23.428  -1.434  28.844  0.00  0.00    -0.106 NA
ATOM     14  N5  UNL     1      24.731  -1.644  28.942  0.00  0.00    -0.048 NA
ATOM     15  N6  UNL     1      25.341  -0.490  29.151  0.00  0.00    -0.176 N 
ATOM     16  N7  UNL     1      24.469   0.501  29.197  0.00  0.00    -0.131 NA
ATOM     17  H9  UNL     1      26.372  -0.378  29.265  0.00  0.00    +0.214 HD
ENDBRANCH  10  12
ENDBRANCH   4   6
BRANCH   1  20
ATOM     18  O1  UNL     1      18.159   2.897  36.219  0.00  0.00    -0.269 OA
ATOM     19  C1  UNL     1      18.687   3.702  35.404  0.00  0.00    +0.261 C 
ATOM     20  N1  UNL     1      19.075   3.244  34.098  0.00  0.00    -0.306 N 
ATOM     21  H1  UNL     1      19.456   3.930  33.410  0.00  0.00    +0.149 HD
BRANCH  19  22
ATOM     22  C11 UNL     1      18.893   5.104  35.819  0.00  0.00    +0.103 A 
ATOM     23  C12 UNL     1      18.618   5.642  37.080  0.00  0.00    +0.042 A 
ATOM     24  C13 UNL     1      18.963   6.970  36.980  0.00  0.00    +0.018 A 
ATOM     25  C14 UNL     1      18.909   8.005  37.908  0.00  0.00    +0.120 A 
ATOM     26  N9  UNL     1      19.325   9.246  37.513  0.00  0.00    -0.263 NA
ATOM     27  C15 UNL     1      19.785   9.488  36.246  0.00  0.00    +0.113 A 
ATOM     28  C16 UNL     1      19.844   8.449  35.299  0.00  0.00    +0.046 A 
ATOM     29  C17 UNL     1      19.418   7.189  35.711  0.00  0.00    +0.050 A 
ATOM     30  N10 UNL     1      19.381   6.058  34.989  0.00  0.00    -0.350 N 
ATOM     31  H16 UNL     1      19.669   5.944  33.991  0.00  0.00    +0.166 HD
ENDBRANCH  19  22
ENDBRANCH   1  20
TORSDOF 4
ENDMDL
MODEL 6
REMARK VINA RESULT:    -6.579     10.392     14.442
REMARK INTER + INTRA:          -8.672
REMARK INTER:                  -8.178
REMARK INTRA:                  -0.494
REMARK UNBOUND:                -0.554
REMARK  Name = /home/qwerty/github/datacon2025hack/step_04_hit_selection/docking/ligands/lig_51.pdb
REMARK  4 active torsions:
REMARK  status: ('A' for Active; 'I' for Inactive)
REMARK    1  A    between atoms: C1_2  and  C11_20
REMARK    2  A    between atoms: N1_3  and  C2_4
REMARK    3  A    between atoms: N2_7  and  C5_8
REMARK    4  A    between atoms: C8_12  and  C9_13
REMARK                            x       y       z     vdW  Elec       q    Type
REMARK                         _______ _______ _______ _____ _____    ______ ____
ROOT
ATOM      1  C2  UNL     1       9.924   3.192  21.548  0.00  0.00    +0.092 C 
ATOM      2  C3  UNL     1       9.174   3.588  22.826  0.00  0.00    +0.043 C 
ATOM      3  C4  UNL     1       9.371   5.089  22.971  0.00  0.00    +0.108 C 
ATOM      4  N2  UNL     1       9.759   5.561  21.651  0.00  0.00    -0.312 N 
ATOM      5  C10 UNL     1       9.984   4.473  20.715  0.00  0.00    +0.128 C 
ENDROOT
BRANCH   4   6
ATOM      6  C5  UNL     1       9.907   6.946  21.288  0.00  0.00    +0.140 A 
ATOM      7  C6  UNL     1      10.929   7.377  20.425  0.00  0.00    +0.154 A 
ATOM      8  N3  UNL     1      11.027   8.694  20.109  0.00  0.00    -0.258 NA
ATOM      9  C7  UNL     1      10.157   9.610  20.607  0.00  0.00    +0.142 A 
ATOM     10  C8  UNL     1       9.133   9.190  21.466  0.00  0.00    +0.131 A 
ATOM     11  N8  UNL     1       9.038   7.871  21.781  0.00  0.00    -0.226 NA
BRANCH  10  12
ATOM     12  C9  UNL     1       8.165  10.145  22.029  0.00  0.00    +0.224 A 
ATOM     13  N4  UNL     1       7.783  11.292  21.433  0.00  0.00    -0.106 NA
ATOM     14  N5  UNL     1       6.914  11.835  22.271  0.00  0.00    -0.048 NA
ATOM     15  N6  UNL     1       6.780  11.049  23.325  0.00  0.00    -0.176 N 
ATOM     16  N7  UNL     1       7.546   9.979  23.214  0.00  0.00    -0.131 NA
ATOM     17  H9  UNL     1       6.153  11.248  24.136  0.00  0.00    +0.214 HD
ENDBRANCH  10  12
ENDBRANCH   4   6
BRANCH   1  20
ATOM     18  O1  UNL     1      10.568   0.571  22.433  0.00  0.00    -0.269 OA
ATOM     19  C1  UNL     1      11.532   1.367  22.274  0.00  0.00    +0.261 C 
ATOM     20  N1  UNL     1      11.280   2.720  21.859  0.00  0.00    -0.306 N 
ATOM     21  H1  UNL     1      12.079   3.389  21.788  0.00  0.00    +0.149 HD
BRANCH  19  22
ATOM     22  C11 UNL     1      12.906   0.883  22.521  0.00  0.00    +0.103 A 
ATOM     23  C12 UNL     1      13.569   0.872  23.752  0.00  0.00    +0.042 A 
ATOM     24  C13 UNL     1      14.810   0.343  23.478  0.00  0.00    +0.018 A 
ATOM     25  C14 UNL     1      15.902   0.090  24.302  0.00  0.00    +0.120 A 
ATOM     26  N9  UNL     1      17.023  -0.449  23.737  0.00  0.00    -0.263 NA
ATOM     27  C15 UNL     1      17.095  -0.740  22.400  0.00  0.00    +0.113 A 
ATOM     28  C16 UNL     1      15.997  -0.488  21.557  0.00  0.00    +0.046 A 
ATOM     29  C17 UNL     1      14.859   0.061  22.142  0.00  0.00    +0.050 A 
ATOM     30  N10 UNL     1      13.703   0.385  21.543  0.00  0.00    -0.350 N 
ATOM     31  H16 UNL     1      13.471   0.277  20.530  0.00  0.00    +0.166 HD
ENDBRANCH  19  22
ENDBRANCH   1  20
TORSDOF 4
ENDMDL
MODEL 7
REMARK VINA RESULT:    -6.480     10.519     14.560
REMARK INTER + INTRA:          -8.549
REMARK INTER:                  -8.265
REMARK INTRA:                  -0.284
REMARK UNBOUND:                -0.554
REMARK  Name = /home/qwerty/github/datacon2025hack/step_04_hit_selection/docking/ligands/lig_51.pdb
REMARK  4 active torsions:
REMARK  status: ('A' for Active; 'I' for Inactive)
REMARK    1  A    between atoms: C1_2  and  C11_20
REMARK    2  A    between atoms: N1_3  and  C2_4
REMARK    3  A    between atoms: N2_7  and  C5_8
REMARK    4  A    between atoms: C8_12  and  C9_13
REMARK                            x       y       z     vdW  Elec       q    Type
REMARK                         _______ _______ _______ _____ _____    ______ ____
ROOT
ATOM      1  C2  UNL     1      19.330   7.613  37.757  0.00  0.00    +0.092 C 
ATOM      2  C3  UNL     1      18.860   6.380  36.974  0.00  0.00    +0.043 C 
ATOM      3  C4  UNL     1      19.774   6.287  35.762  0.00  0.00    +0.108 C 
ATOM      4  N2  UNL     1      20.947   7.080  36.097  0.00  0.00    -0.312 N 
ATOM      5  C10 UNL     1      20.792   7.803  37.347  0.00  0.00    +0.128 C 
ENDROOT
BRANCH   4   6
ATOM      6  C5  UNL     1      22.140   7.154  35.295  0.00  0.00    +0.140 A 
ATOM      7  C6  UNL     1      23.243   6.317  35.535  0.00  0.00    +0.154 A 
ATOM      8  N3  UNL     1      24.347   6.422  34.750  0.00  0.00    -0.258 NA
ATOM      9  C7  UNL     1      24.411   7.321  33.734  0.00  0.00    +0.142 A 
ATOM     10  C8  UNL     1      23.317   8.159  33.486  0.00  0.00    +0.131 A 
ATOM     11  N8  UNL     1      22.214   8.051  34.274  0.00  0.00    -0.226 NA
BRANCH  10  12
ATOM     12  C9  UNL     1      23.339   9.146  32.395  0.00  0.00    +0.224 A 
ATOM     13  N4  UNL     1      22.273   9.481  31.641  0.00  0.00    -0.106 NA
ATOM     14  N5  UNL     1      22.729  10.390  30.794  0.00  0.00    -0.048 NA
ATOM     15  N6  UNL     1      24.014  10.594  31.029  0.00  0.00    -0.176 N 
ATOM     16  N7  UNL     1      24.436   9.834  32.024  0.00  0.00    -0.131 NA
ATOM     17  H9  UNL     1      24.614  11.264  30.499  0.00  0.00    +0.214 HD
ENDBRANCH  10  12
ENDBRANCH   4   6
BRANCH   1  20
ATOM     18  O1  UNL     1      16.538   7.895  38.189  0.00  0.00    -0.269 OA
ATOM     19  C1  UNL     1      17.133   8.880  37.674  0.00  0.00    +0.261 C 
ATOM     20  N1  UNL     1      18.541   8.798  37.395  0.00  0.00    -0.306 N 
ATOM     21  H1  UNL     1      19.012   9.595  36.914  0.00  0.00    +0.149 HD
BRANCH  19  22
ATOM     22  C11 UNL     1      16.359  10.100  37.368  0.00  0.00    +0.103 A 
ATOM     23  C12 UNL     1      16.876  11.390  37.216  0.00  0.00    +0.042 A 
ATOM     24  C13 UNL     1      15.781  12.180  36.950  0.00  0.00    +0.018 A 
ATOM     25  C14 UNL     1      15.670  13.546  36.711  0.00  0.00    +0.120 A 
ATOM     26  N9  UNL     1      14.426  14.059  36.474  0.00  0.00    -0.263 NA
ATOM     27  C15 UNL     1      13.305  13.272  36.469  0.00  0.00    +0.113 A 
ATOM     28  C16 UNL     1      13.404  11.889  36.709  0.00  0.00    +0.046 A 
ATOM     29  C17 UNL     1      14.676  11.376  36.949  0.00  0.00    +0.050 A 
ATOM     30  N10 UNL     1      15.013  10.102  37.203  0.00  0.00    -0.350 N 
ATOM     31  H16 UNL     1      14.365   9.284  37.263  0.00  0.00    +0.166 HD
ENDBRANCH  19  22
ENDBRANCH   1  20
TORSDOF 4
ENDMDL
MODEL 8
REMARK VINA RESULT:    -6.444      7.525     11.376
REMARK INTER + INTRA:          -8.505
REMARK INTER:                  -7.976
REMARK INTRA:                  -0.529
REMARK UNBOUND:                -0.554
REMARK  Name = /home/qwerty/github/datacon2025hack/step_04_hit_selection/docking/ligands/lig_51.pdb
REMARK  4 active torsions:
REMARK  status: ('A' for Active; 'I' for Inactive)
REMARK    1  A    between atoms: C1_2  and  C11_20
REMARK    2  A    between atoms: N1_3  and  C2_4
REMARK    3  A    between atoms: N2_7  and  C5_8
REMARK    4  A    between atoms: C8_12  and  C9_13
REMARK                            x       y       z     vdW  Elec       q    Type
REMARK                         _______ _______ _______ _____ _____    ______ ____
ROOT
ATOM      1  C2  UNL     1      15.360   0.086  22.185  0.00  0.00    +0.092 C 
ATOM      2  C3  UNL     1      14.186  -0.311  23.090  0.00  0.00    +0.043 C 
ATOM      3  C4  UNL     1      13.211   0.855  23.037  0.00  0.00    +0.108 C 
ATOM      4  N2  UNL     1      13.561   1.601  21.838  0.00  0.00    -0.312 N 
ATOM      5  C10 UNL     1      14.775   1.108  21.209  0.00  0.00    +0.128 C 
ENDROOT
BRANCH   4   6
ATOM      6  C5  UNL     1      12.804   2.707  21.312  0.00  0.00    +0.140 A 
ATOM      7  C6  UNL     1      13.377   3.642  20.434  0.00  0.00    +0.154 A 
ATOM      8  N3  UNL     1      12.622   4.668  19.962  0.00  0.00    -0.258 NA
ATOM      9  C7  UNL     1      11.319   4.812  20.317  0.00  0.00    +0.142 A 
ATOM     10  C8  UNL     1      10.737   3.883  21.189  0.00  0.00    +0.131 A 
ATOM     11  N8  UNL     1      11.497   2.858  21.661  0.00  0.00    -0.226 NA
BRANCH  10  12
ATOM     12  C9  UNL     1       9.329   3.996  21.601  0.00  0.00    +0.224 A 
ATOM     13  N4  UNL     1       8.865   3.707  22.834  0.00  0.00    -0.106 NA
ATOM     14  N5  UNL     1       7.564   3.944  22.769  0.00  0.00    -0.048 NA
ATOM     15  N6  UNL     1       7.259   4.358  21.551  0.00  0.00    -0.176 N 
ATOM     16  N7  UNL     1       8.337   4.404  20.788  0.00  0.00    -0.131 NA
ATOM     17  H9  UNL     1       6.298   4.613  21.235  0.00  0.00    +0.214 HD
ENDBRANCH  10  12
ENDBRANCH   4   6
BRANCH   1  20
ATOM     18  O1  UNL     1      17.401  -1.366  23.522  0.00  0.00    -0.269 OA
ATOM     19  C1  UNL     1      17.463  -0.109  23.593  0.00  0.00    +0.261 C 
ATOM     20  N1  UNL     1      16.446   0.692  22.968  0.00  0.00    -0.306 N 
ATOM     21  H1  UNL     1      16.472   1.729  23.083  0.00  0.00    +0.149 HD
BRANCH  19  22
ATOM     22  C11 UNL     1      18.588   0.510  24.323  0.00  0.00    +0.103 A 
ATOM     23  C12 UNL     1      19.111   0.086  25.548  0.00  0.00    +0.042 A 
ATOM     24  C13 UNL     1      20.129   0.970  25.821  0.00  0.00    +0.018 A 
ATOM     25  C14 UNL     1      21.007   1.056  26.897  0.00  0.00    +0.120 A 
ATOM     26  N9  UNL     1      21.930   2.063  26.896  0.00  0.00    -0.263 NA
ATOM     27  C15 UNL     1      22.009   2.975  25.876  0.00  0.00    +0.113 A 
ATOM     28  C16 UNL     1      21.127   2.899  24.783  0.00  0.00    +0.046 A 
ATOM     29  C17 UNL     1      20.190   1.869  24.794  0.00  0.00    +0.050 A 
ATOM     30  N10 UNL     1      19.254   1.601  23.870  0.00  0.00    -0.350 N 
ATOM     31  H16 UNL     1      19.078   2.130  22.986  0.00  0.00    +0.166 HD
ENDBRANCH  19  22
ENDBRANCH   1  20
TORSDOF 4
ENDMDL
MODEL 9
REMARK VINA RESULT:    -6.435     14.025     15.177
REMARK INTER + INTRA:          -8.494
REMARK INTER:                  -7.960
REMARK INTRA:                  -0.534
REMARK UNBOUND:                -0.554
REMARK  Name = /home/qwerty/github/datacon2025hack/step_04_hit_selection/docking/ligands/lig_51.pdb
REMARK  4 active torsions:
REMARK  status: ('A' for Active; 'I' for Inactive)
REMARK    1  A    between atoms: C1_2  and  C11_20
REMARK    2  A    between atoms: N1_3  and  C2_4
REMARK    3  A    between atoms: N2_7  and  C5_8
REMARK    4  A    between atoms: C8_12  and  C9_13
REMARK                            x       y       z     vdW  Elec       q    Type
REMARK                         _______ _______ _______ _____ _____    ______ ____
ROOT
ATOM      1  C2  UNL     1      13.743  13.737  35.170  0.00  0.00    +0.092 C 
ATOM      2  C3  UNL     1      13.419  12.483  35.993  0.00  0.00    +0.043 C 
ATOM      3  C4  UNL     1      14.705  11.670  36.028  0.00  0.00    +0.108 C 
ATOM      4  N2  UNL     1      15.767  12.606  35.695  0.00  0.00    -0.312 N 
ATOM      5  C10 UNL     1      15.258  13.906  35.292  0.00  0.00    +0.128 C 
ENDROOT
BRANCH   4   6
ATOM      6  C5  UNL     1      17.174  12.303  35.753  0.00  0.00    +0.140 A 
ATOM      7  C6  UNL     1      18.139  13.176  35.223  0.00  0.00    +0.154 A 
ATOM      8  N3  UNL     1      19.454  12.848  35.304  0.00  0.00    -0.258 NA
ATOM      9  C7  UNL     1      19.863  11.692  35.888  0.00  0.00    +0.142 A 
ATOM     10  C8  UNL     1      18.909  10.816  36.422  0.00  0.00    +0.131 A 
ATOM     11  N8  UNL     1      17.592  11.148  36.339  0.00  0.00    -0.226 NA
BRANCH  10  12
ATOM     12  C9  UNL     1      19.302   9.554  37.066  0.00  0.00    +0.224 A 
ATOM     13  N4  UNL     1      20.410   8.848  36.760  0.00  0.00    -0.106 NA
ATOM     14  N5  UNL     1      20.377   7.799  37.566  0.00  0.00    -0.048 NA
ATOM     15  N6  UNL     1      19.297   7.870  38.325  0.00  0.00    -0.176 N 
ATOM     16  N7  UNL     1      18.595   8.954  38.043  0.00  0.00    -0.131 NA
ATOM     17  H9  UNL     1      19.033   7.165  39.048  0.00  0.00    +0.214 HD
ENDBRANCH  10  12
ENDBRANCH   4   6
BRANCH   1  20
ATOM     18  O1  UNL     1      11.156  14.243  34.115  0.00  0.00    -0.269 OA
ATOM     19  C1  UNL     1      12.036  13.863  33.296  0.00  0.00    +0.261 C 
ATOM     20  N1  UNL     1      13.361  13.556  33.763  0.00  0.00    -0.306 N 
ATOM     21  H1  UNL     1      14.065  13.185  33.089  0.00  0.00    +0.149 HD
BRANCH  19  22
ATOM     22  C11 UNL     1      11.678  13.741  31.869  0.00  0.00    +0.103 A 
ATOM     23  C12 UNL     1      10.905  12.728  31.294  0.00  0.00    +0.042 A 
ATOM     24  C13 UNL     1      10.856  13.039  29.954  0.00  0.00    +0.018 A 
ATOM     25  C14 UNL     1      10.237  12.399  28.885  0.00  0.00    +0.120 A 
ATOM     26  N9  UNL     1      10.366  12.952  27.642  0.00  0.00    -0.263 NA
ATOM     27  C15 UNL     1      11.079  14.102  27.429  0.00  0.00    +0.113 A 
ATOM     28  C16 UNL     1      11.710  14.758  28.503  0.00  0.00    +0.046 A 
ATOM     29  C17 UNL     1      11.572  14.187  29.765  0.00  0.00    +0.050 A 
ATOM     30  N10 UNL     1      12.081  14.628  30.926  0.00  0.00    -0.350 N 
ATOM     31  H16 UNL     1      12.669  15.481  31.067  0.00  0.00    +0.166 HD
ENDBRANCH  19  22
ENDBRANCH   1  20
TORSDOF 4
ENDMDL
