REMARK  Name = /home/qwerty/github/datacon2025hack/step_04_hit_selection/docking/ligands/lig_569.pdb
REMARK  4 active torsions:
REMARK  status: ('A' for Active; 'I' for Inactive)
REMARK    1  A    between atoms: C1_1  and  C2_2
REMARK    2  A    between atoms: C7_8  and  C8_9
REMARK    3  A    between atoms: C9_11  and  C10_12
REMARK    4  A    between atoms: C14_18  and  C15_19
REMARK                            x       y       z     vdW  Elec       q    Type
REMARK                         _______ _______ _______ _____ _____    ______ ____
ROOT
ATOM      1  C10 UNL     1       0.248  -2.036  -0.725  0.00  0.00    +0.023 A 
ATOM      2  C11 UNL     1       0.522  -3.372  -1.127  0.00  0.00    +0.014 A 
ATOM      3  C12 UNL     1       1.845  -3.840  -1.213  0.00  0.00    +0.028 A 
ATOM      4  C13 UNL     1       2.868  -2.948  -0.908  0.00  0.00    +0.066 A 
ATOM      5  N2  UNL     1       4.189  -3.183  -0.878  0.00  0.00    -0.276 N 
ATOM      6  N3  UNL     1       4.806  -2.070  -0.500  0.00  0.00    -0.173 NA
ATOM      7  C14 UNL     1       3.871  -1.109  -0.296  0.00  0.00    +0.100 A 
ATOM      8  C21 UNL     1       2.620  -1.656  -0.543  0.00  0.00    +0.028 A 
ATOM      9  C22 UNL     1       1.320  -1.165  -0.418  0.00  0.00    +0.024 A 
ATOM     10  H9  UNL     1       4.671  -4.083  -1.096  0.00  0.00    +0.189 HD
ENDROOT
BRANCH   7  11
ATOM     11  C15 UNL     1       4.197   0.267   0.132  0.00  0.00    +0.008 A 
ATOM     12  C16 UNL     1       5.268   0.486   1.013  0.00  0.00    +0.051 A 
ATOM     13  C17 UNL     1       5.596   1.784   1.419  0.00  0.00    +0.162 A 
ATOM     14  F2  UNL     1       6.625   1.983   2.280  0.00  0.00    -0.202 F 
ATOM     15  C18 UNL     1       4.866   2.874   0.937  0.00  0.00    +0.193 A 
ATOM     16  F3  UNL     1       5.185   4.133   1.329  0.00  0.00    -0.199 F 
ATOM     17  C19 UNL     1       3.812   2.667   0.042  0.00  0.00    +0.162 A 
ATOM     18  F4  UNL     1       3.115   3.725  -0.444  0.00  0.00    -0.202 F 
ATOM     19  C20 UNL     1       3.482   1.370  -0.365  0.00  0.00    +0.051 A 
ENDBRANCH   7  11
BRANCH   1  22
ATOM     20  C8  UNL     1      -2.836  -0.361  -0.301  0.00  0.00    +0.259 A 
ATOM     21  N1  UNL     1      -1.489  -0.310  -0.247  0.00  0.00    -0.187 NA
ATOM     22  C9  UNL     1      -1.148  -1.561  -0.619  0.00  0.00    +0.202 A 
ATOM     23  N4  UNL     1      -2.225  -2.326  -0.882  0.00  0.00    -0.056 NA
ATOM     24  O1  UNL     1      -3.244  -1.550  -0.675  0.00  0.00    -0.332 OA
BRANCH  20  32
ATOM     25  C1  UNL     1      -5.866  -0.547  -0.427  0.00  0.00    +0.044 C 
ATOM     26  C2  UNL     1      -5.142   0.714  -0.033  0.00  0.00    -0.035 A 
ATOM     27  C3  UNL     1      -5.906   1.851   0.290  0.00  0.00    +0.042 A 
ATOM     28  C4  UNL     1      -5.288   3.045   0.662  0.00  0.00    +0.124 A 
ATOM     29  F1  UNL     1      -6.040   4.130   0.970  0.00  0.00    -0.205 F 
ATOM     30  C5  UNL     1      -3.899   3.122   0.718  0.00  0.00    +0.039 A 
ATOM     31  C6  UNL     1      -3.122   2.008   0.403  0.00  0.00    +0.016 A 
ATOM     32  C7  UNL     1      -3.721   0.790   0.023  0.00  0.00    +0.043 A 
ENDBRANCH  20  32
ENDBRANCH   1  22
TORSDOF 3
