REMARK  Name = /home/qwerty/github/datacon2025hack/step_04_hit_selection/docking/ligands/lig_325.pdb
REMARK  9 active torsions:
REMARK  status: ('A' for Active; 'I' for Inactive)
REMARK    1  A    between atoms: C1_1  and  C2_2
REMARK    2  A    between atoms: C2_2  and  C3_3
REMARK    3  A    between atoms: C3_3  and  C4_4
REMARK    4  A    between atoms: C3_3  and  C5_5
REMARK    5  A    between atoms: C10_13  and  C11_14
REMARK    6  A    between atoms: C11_14  and  N4_15
REMARK    7  A    between atoms: C12_16  and  C13_18
REMARK    8  A    between atoms: N5_25  and  C20_26
REMARK    9  A    between atoms: C20_26  and  C21_27
REMARK                            x       y       z     vdW  Elec       q    Type
REMARK                         _______ _______ _______ _____ _____    ______ ____
ROOT
ATOM      1  C5  UNL     1      -3.193   1.586   1.297  0.00  0.00    +0.138 A 
ATOM      2  N1  UNL     1      -2.464   1.660   2.430  0.00  0.00    -0.132 NA
ATOM      3  N2  UNL     1      -1.296   1.085   2.199  0.00  0.00    -0.113 NA
ATOM      4  C6  UNL     1      -1.323   0.665   0.924  0.00  0.00    +0.220 A 
ATOM      5  N3  UNL     1      -0.217  -0.013   0.308  0.00  0.00    -0.299 N 
ATOM      6  C7  UNL     1       0.446  -1.099   1.030  0.00  0.00    +0.108 C 
ATOM      7  C8  UNL     1       1.753  -0.603   1.671  0.00  0.00    +0.019 C 
ATOM      8  C9  UNL     1       2.299   0.681   1.014  0.00  0.00    +0.008 C 
ATOM      9  C10 UNL     1       2.024   0.752  -0.506  0.00  0.00    +0.024 C 
ATOM     10  C19 UNL     1       0.504   0.623  -0.805  0.00  0.00    +0.113 C 
ATOM     11  N5  UNL     1      -2.496   0.948   0.313  0.00  0.00    -0.299 N 
ENDROOT
BRANCH   1  12
ATOM     12  C3  UNL     1      -4.618   2.119   1.275  0.00  0.00    +0.054 C 
ATOM     13  C4  UNL     1      -5.063   2.728  -0.064  0.00  0.00    +0.015 C 
BRANCH  12  15
ATOM     14  C1  UNL     1      -6.932   1.707   2.278  0.00  0.00    +0.004 C 
ATOM     15  C2  UNL     1      -5.622   1.072   1.811  0.00  0.00    +0.007 C 
ENDBRANCH  12  15
ENDBRANCH   1  12
BRANCH   9  16
ATOM     16  C11 UNL     1       2.850  -0.284  -1.300  0.00  0.00    +0.109 C 
BRANCH  16  17
ATOM     17  N4  UNL     1       4.285  -0.053  -1.127  0.00  0.00    -0.311 N 
ATOM     18  C12 UNL     1       5.161  -1.003  -0.492  0.00  0.00    +0.244 C 
ATOM     19  O1  UNL     1       4.676  -2.026   0.066  0.00  0.00    -0.270 OA
ATOM     20  H19 UNL     1       4.657   0.876  -1.422  0.00  0.00    +0.149 HD
BRANCH  18  21
ATOM     21  C13 UNL     1       6.628  -0.790  -0.459  0.00  0.00    +0.037 A 
ATOM     22  C14 UNL     1       7.273  -0.007  -1.436  0.00  0.00    +0.013 A 
ATOM     23  C15 UNL     1       8.659   0.178  -1.392  0.00  0.00    +0.001 A 
ATOM     24  C16 UNL     1       9.415  -0.418  -0.380  0.00  0.00    +0.000 A 
ATOM     25  C17 UNL     1       8.789  -1.207   0.587  0.00  0.00    +0.001 A 
ATOM     26  C18 UNL     1       7.405  -1.397   0.547  0.00  0.00    +0.013 A 
ENDBRANCH  18  21
ENDBRANCH  16  17
ENDBRANCH   9  16
BRANCH  11  27
ATOM     27  C20 UNL     1      -2.902   0.497  -1.028  0.00  0.00    +0.132 C 
BRANCH  27  28
ATOM     28  C21 UNL     1      -3.630  -0.858  -0.972  0.00  0.00    +0.037 C 
ATOM     29  C22 UNL     1      -2.738  -2.013  -0.613  0.00  0.00    +0.035 C 
ATOM     30  C23 UNL     1      -3.415  -3.179  -1.309  0.00  0.00    +0.160 C 
ATOM     31  O2  UNL     1      -4.211  -2.696  -2.371  0.00  0.00    -0.379 OA
ATOM     32  C24 UNL     1      -4.179  -1.288  -2.321  0.00  0.00    +0.165 C 
ENDBRANCH  27  28
ENDBRANCH  11  27
TORSDOF 7
