MODEL 1
REMARK VINA RESULT:    -6.151      0.000      0.000
REMARK INTER + INTRA:          -6.986
REMARK INTER:                  -6.870
REMARK INTRA:                  -0.116
REMARK UNBOUND:                -0.116
REMARK  Name = /home/qwerty/github/datacon2025hack/step_04_hit_selection/docking/ligands/lig_646.pdb
REMARK  4 active torsions:
REMARK  status: ('A' for Active; 'I' for Inactive)
REMARK    1  A    between atoms: C1_1  and  O1_2
REMARK    2  A    between atoms: O1_2  and  C2_3
REMARK    3  A    between atoms: C9_10  and  C10_11
REMARK    4  A    between atoms: N2_15  and  C12_16
REMARK                            x       y       z     vdW  Elec       q    Type
REMARK                         _______ _______ _______ _____ _____    ______ ____
ROOT
ATOM      1  C2  UNL     1      22.083   0.279  29.693  0.00  0.00    +0.120 A 
ATOM      2  C3  UNL     1      22.959   1.386  29.821  0.00  0.00    +0.047 A 
ATOM      3  C4  UNL     1      22.596   2.494  30.602  0.00  0.00    +0.027 A 
ATOM      4  C5  UNL     1      21.344   2.491  31.229  0.00  0.00    +0.041 A 
ATOM      5  C6  UNL     1      20.509   1.412  31.128  0.00  0.00    -0.021 A 
ATOM      6  C7  UNL     1      20.849   0.295  30.364  0.00  0.00    +0.051 A 
ATOM      7  C8  UNL     1      19.292   1.605  31.965  0.00  0.00    +0.059 C 
ATOM      8  C9  UNL     1      19.529   2.989  32.632  0.00  0.00    +0.084 C 
ATOM      9  C10 UNL     1      18.392   3.967  32.320  0.00  0.00    +0.029 C 
ATOM     10  N1  UNL     1      20.801   3.482  32.090  0.00  0.00    -0.252 N 
ATOM     11  C11 UNL     1      21.439   4.702  32.499  0.00  0.00    +0.311 C 
ATOM     12  O2  UNL     1      21.258   5.133  33.671  0.00  0.00    -0.252 OA
ATOM     13  N2  UNL     1      22.193   5.477  31.556  0.00  0.00    -0.269 N 
ATOM     14  H13 UNL     1      21.969   5.352  30.543  0.00  0.00    +0.156 HD
ENDROOT
BRANCH  13  15
ATOM     15  C12 UNL     1      23.139   6.496  31.924  0.00  0.00    +0.036 A 
ATOM     16  C13 UNL     1      24.079   6.230  32.931  0.00  0.00    +0.023 A 
ATOM     17  C14 UNL     1      24.995   7.211  33.322  0.00  0.00    +0.003 A 
ATOM     18  C15 UNL     1      24.970   8.472  32.720  0.00  0.00    +0.020 A 
ATOM     19  C16 UNL     1      24.023   8.756  31.731  0.00  0.00    +0.043 A 
ATOM     20 CL1  UNL     1      23.976  10.347  30.994  0.00  0.00    -0.083 Cl
ATOM     21  C17 UNL     1      23.105   7.775  31.338  0.00  0.00    +0.043 A 
ENDBRANCH  13  15
BRANCH   1  23
ATOM     22  C1  UNL     1      23.702  -1.436  28.863  0.00  0.00    +0.277 C 
ATOM     23  O1  UNL     1      22.406  -0.849  28.924  0.00  0.00    -0.495 OA
ENDBRANCH   1  23
TORSDOF 2
ENDMDL
MODEL 2
REMARK VINA RESULT:    -6.092      7.557      9.914
REMARK INTER + INTRA:          -6.921
REMARK INTER:                  -6.684
REMARK INTRA:                  -0.237
REMARK UNBOUND:                -0.116
REMARK  Name = /home/qwerty/github/datacon2025hack/step_04_hit_selection/docking/ligands/lig_646.pdb
REMARK  4 active torsions:
REMARK  status: ('A' for Active; 'I' for Inactive)
REMARK    1  A    between atoms: C1_1  and  O1_2
REMARK    2  A    between atoms: O1_2  and  C2_3
REMARK    3  A    between atoms: C9_10  and  C10_11
REMARK    4  A    between atoms: N2_15  and  C12_16
REMARK                            x       y       z     vdW  Elec       q    Type
REMARK                         _______ _______ _______ _____ _____    ______ ____
ROOT
ATOM      1  C2  UNL     1      22.133   1.370  27.860  0.00  0.00    +0.120 A 
ATOM      2  C3  UNL     1      21.021   0.848  27.151  0.00  0.00    +0.047 A 
ATOM      3  C4  UNL     1      20.500   1.532  26.043  0.00  0.00    +0.027 A 
ATOM      4  C5  UNL     1      21.084   2.748  25.670  0.00  0.00    +0.041 A 
ATOM      5  C6  UNL     1      22.173   3.240  26.336  0.00  0.00    -0.021 A 
ATOM      6  C7  UNL     1      22.715   2.576  27.437  0.00  0.00    +0.051 A 
ATOM      7  C8  UNL     1      22.673   4.484  25.688  0.00  0.00    +0.059 C 
ATOM      8  C9  UNL     1      21.717   4.668  24.475  0.00  0.00    +0.084 C 
ATOM      9  C10 UNL     1      21.011   6.027  24.516  0.00  0.00    +0.029 C 
ATOM     10  N1  UNL     1      20.743   3.573  24.565  0.00  0.00    -0.252 N 
ATOM     11  C11 UNL     1      19.717   3.320  23.592  0.00  0.00    +0.311 C 
ATOM     12  O2  UNL     1      19.908   3.648  22.390  0.00  0.00    -0.252 OA
ATOM     13  N2  UNL     1      18.447   2.791  24.000  0.00  0.00    -0.269 N 
ATOM     14  H13 UNL     1      18.160   2.942  24.993  0.00  0.00    +0.156 HD
ENDROOT
BRANCH  13  15
ATOM     15  C12 UNL     1      17.502   2.183  23.103  0.00  0.00    +0.036 A 
ATOM     16  C13 UNL     1      16.732   2.998  22.259  0.00  0.00    +0.023 A 
ATOM     17  C14 UNL     1      15.791   2.432  21.394  0.00  0.00    +0.003 A 
ATOM     18  C15 UNL     1      15.601   1.049  21.373  0.00  0.00    +0.020 A 
ATOM     19  C16 UNL     1      16.347   0.228  22.224  0.00  0.00    +0.043 A 
ATOM     20 CL1  UNL     1      16.090  -1.507  22.215  0.00  0.00    -0.083 Cl
ATOM     21  C17 UNL     1      17.290   0.792  23.092  0.00  0.00    +0.043 A 
ENDBRANCH  13  15
BRANCH   1  23
ATOM     22  C1  UNL     1      24.081   0.655  29.254  0.00  0.00    +0.277 C 
ATOM     23  O1  UNL     1      22.687   0.719  28.973  0.00  0.00    -0.495 OA
ENDBRANCH   1  23
TORSDOF 2
ENDMDL
MODEL 3
REMARK VINA RESULT:    -6.090     12.138     14.318
REMARK INTER + INTRA:          -6.918
REMARK INTER:                  -6.781
REMARK INTRA:                  -0.137
REMARK UNBOUND:                -0.116
REMARK  Name = /home/qwerty/github/datacon2025hack/step_04_hit_selection/docking/ligands/lig_646.pdb
REMARK  4 active torsions:
REMARK  status: ('A' for Active; 'I' for Inactive)
REMARK    1  A    between atoms: C1_1  and  O1_2
REMARK    2  A    between atoms: O1_2  and  C2_3
REMARK    3  A    between atoms: C9_10  and  C10_11
REMARK    4  A    between atoms: N2_15  and  C12_16
REMARK                            x       y       z     vdW  Elec       q    Type
REMARK                         _______ _______ _______ _____ _____    ______ ____
ROOT
ATOM      1  C2  UNL     1      19.058  12.371  19.607  0.00  0.00    +0.120 A 
ATOM      2  C3  UNL     1      19.177  12.381  21.020  0.00  0.00    +0.047 A 
ATOM      3  C4  UNL     1      20.129  13.198  21.648  0.00  0.00    +0.027 A 
ATOM      4  C5  UNL     1      20.972  13.981  20.849  0.00  0.00    +0.041 A 
ATOM      5  C6  UNL     1      20.840  13.993  19.488  0.00  0.00    -0.021 A 
ATOM      6  C7  UNL     1      19.897  13.195  18.839  0.00  0.00    +0.051 A 
ATOM      7  C8  UNL     1      21.773  14.979  18.874  0.00  0.00    +0.059 C 
ATOM      8  C9  UNL     1      22.494  15.605  20.102  0.00  0.00    +0.084 C 
ATOM      9  C10 UNL     1      24.014  15.438  20.008  0.00  0.00    +0.029 C 
ATOM     10  N1  UNL     1      21.966  14.902  21.278  0.00  0.00    -0.252 N 
ATOM     11  C11 UNL     1      22.308  15.221  22.635  0.00  0.00    +0.311 C 
ATOM     12  O2  UNL     1      22.629  16.404  22.931  0.00  0.00    -0.252 OA
ATOM     13  N2  UNL     1      22.384  14.185  23.626  0.00  0.00    -0.269 N 
ATOM     14  H13 UNL     1      22.551  13.210  23.290  0.00  0.00    +0.156 HD
ENDROOT
BRANCH  13  15
ATOM     15  C12 UNL     1      22.370  14.425  25.043  0.00  0.00    +0.036 A 
ATOM     16  C13 UNL     1      21.391  15.269  25.589  0.00  0.00    +0.023 A 
ATOM     17  C14 UNL     1      21.370  15.535  26.961  0.00  0.00    +0.003 A 
ATOM     18  C15 UNL     1      22.335  14.971  27.798  0.00  0.00    +0.020 A 
ATOM     19  C16 UNL     1      23.329  14.146  27.264  0.00  0.00    +0.043 A 
ATOM     20 CL1  UNL     1      24.556  13.459  28.313  0.00  0.00    -0.083 Cl
ATOM     21  C17 UNL     1      23.353  13.878  25.890  0.00  0.00    +0.043 A 
ENDBRANCH  13  15
BRANCH   1  23
ATOM     22  C1  UNL     1      16.715  11.620  19.166  0.00  0.00    +0.277 C 
ATOM     23  O1  UNL     1      18.120  11.571  18.938  0.00  0.00    -0.495 OA
ENDBRANCH   1  23
TORSDOF 2
ENDMDL
MODEL 4
REMARK VINA RESULT:    -6.033      7.058      9.228
REMARK INTER + INTRA:          -6.854
REMARK INTER:                  -6.513
REMARK INTRA:                  -0.341
REMARK UNBOUND:                -0.116
REMARK  Name = /home/qwerty/github/datacon2025hack/step_04_hit_selection/docking/ligands/lig_646.pdb
REMARK  4 active torsions:
REMARK  status: ('A' for Active; 'I' for Inactive)
REMARK    1  A    between atoms: C1_1  and  O1_2
REMARK    2  A    between atoms: O1_2  and  C2_3
REMARK    3  A    between atoms: C9_10  and  C10_11
REMARK    4  A    between atoms: N2_15  and  C12_16
REMARK                            x       y       z     vdW  Elec       q    Type
REMARK                         _______ _______ _______ _____ _____    ______ ____
ROOT
ATOM      1  C2  UNL     1      22.511   9.139  33.474  0.00  0.00    +0.120 A 
ATOM      2  C3  UNL     1      21.417  10.038  33.557  0.00  0.00    +0.047 A 
ATOM      3  C4  UNL     1      20.477   9.920  34.592  0.00  0.00    +0.027 A 
ATOM      4  C5  UNL     1      20.630   8.885  35.523  0.00  0.00    +0.041 A 
ATOM      5  C6  UNL     1      21.700   8.035  35.460  0.00  0.00    -0.021 A 
ATOM      6  C7  UNL     1      22.652   8.134  34.445  0.00  0.00    +0.051 A 
ATOM      7  C8  UNL     1      21.697   7.094  36.614  0.00  0.00    +0.059 C 
ATOM      8  C9  UNL     1      20.446   7.528  37.430  0.00  0.00    +0.084 C 
ATOM      9  C10 UNL     1      19.464   6.367  37.616  0.00  0.00    +0.029 C 
ATOM     10  N1  UNL     1      19.825   8.615  36.662  0.00  0.00    -0.252 N 
ATOM     11  C11 UNL     1      18.677   9.362  37.095  0.00  0.00    +0.311 C 
ATOM     12  O2  UNL     1      18.467   9.513  38.329  0.00  0.00    -0.252 OA
ATOM     13  N2  UNL     1      17.724   9.846  36.138  0.00  0.00    -0.269 N 
ATOM     14  H13 UNL     1      17.675   9.353  35.218  0.00  0.00    +0.156 HD
ENDROOT
BRANCH  13  15
ATOM     15  C12 UNL     1      16.758  10.874  36.413  0.00  0.00    +0.036 A 
ATOM     16  C13 UNL     1      17.183  12.208  36.518  0.00  0.00    +0.023 A 
ATOM     17  C14 UNL     1      16.266  13.222  36.807  0.00  0.00    +0.003 A 
ATOM     18  C15 UNL     1      14.919  12.913  37.008  0.00  0.00    +0.020 A 
ATOM     19  C16 UNL     1      14.487  11.585  36.928  0.00  0.00    +0.043 A 
ATOM     20 CL1  UNL     1      12.800  11.195  37.206  0.00  0.00    -0.083 Cl
ATOM     21  C17 UNL     1      15.403  10.567  36.639  0.00  0.00    +0.043 A 
ENDBRANCH  13  15
BRANCH   1  23
ATOM     22  C1  UNL     1      24.864   8.975  32.646  0.00  0.00    +0.277 C 
ATOM     23  O1  UNL     1      23.474   9.221  32.458  0.00  0.00    -0.495 OA
ENDBRANCH   1  23
TORSDOF 2
ENDMDL
MODEL 5
REMARK VINA RESULT:    -6.028     13.196     14.791
REMARK INTER + INTRA:          -6.849
REMARK INTER:                  -6.513
REMARK INTRA:                  -0.336
REMARK UNBOUND:                -0.116
REMARK  Name = /home/qwerty/github/datacon2025hack/step_04_hit_selection/docking/ligands/lig_646.pdb
REMARK  4 active torsions:
REMARK  status: ('A' for Active; 'I' for Inactive)
REMARK    1  A    between atoms: C1_1  and  O1_2
REMARK    2  A    between atoms: O1_2  and  C2_3
REMARK    3  A    between atoms: C9_10  and  C10_11
REMARK    4  A    between atoms: N2_15  and  C12_16
REMARK                            x       y       z     vdW  Elec       q    Type
REMARK                         _______ _______ _______ _____ _____    ______ ____
ROOT
ATOM      1  C2  UNL     1       9.146  12.408  28.230  0.00  0.00    +0.120 A 
ATOM      2  C3  UNL     1       9.227  11.943  29.567  0.00  0.00    +0.047 A 
ATOM      3  C4  UNL     1      10.204  12.449  30.439  0.00  0.00    +0.027 A 
ATOM      4  C5  UNL     1      11.108  13.400  29.952  0.00  0.00    +0.041 A 
ATOM      5  C6  UNL     1      11.015  13.869  28.671  0.00  0.00    -0.021 A 
ATOM      6  C7  UNL     1      10.049  13.388  27.786  0.00  0.00    +0.051 A 
ATOM      7  C8  UNL     1      12.015  14.946  28.426  0.00  0.00    +0.059 C 
ATOM      8  C9  UNL     1      12.734  15.087  29.798  0.00  0.00    +0.084 C 
ATOM      9  C10 UNL     1      14.245  14.871  29.666  0.00  0.00    +0.029 C 
ATOM     10  N1  UNL     1      12.138  14.067  30.669  0.00  0.00    -0.252 N 
ATOM     11  C11 UNL     1      12.460  13.898  32.059  0.00  0.00    +0.311 C 
ATOM     12  O2  UNL     1      12.834  14.896  32.733  0.00  0.00    -0.252 OA
ATOM     13  N2  UNL     1      12.453  12.591  32.650  0.00  0.00    -0.269 N 
ATOM     14  H13 UNL     1      12.577  11.774  32.011  0.00  0.00    +0.156 HD
ENDROOT
BRANCH  13  15
ATOM     15  C12 UNL     1      12.413  12.349  34.067  0.00  0.00    +0.036 A 
ATOM     16  C13 UNL     1      11.173  12.292  34.721  0.00  0.00    +0.023 A 
ATOM     17  C14 UNL     1      11.109  12.080  36.101  0.00  0.00    +0.003 A 
ATOM     18  C15 UNL     1      12.284  11.936  36.842  0.00  0.00    +0.020 A 
ATOM     19  C16 UNL     1      13.526  12.012  36.206  0.00  0.00    +0.043 A 
ATOM     20 CL1  UNL     1      15.002  11.857  37.143  0.00  0.00    -0.083 Cl
ATOM     21  C17 UNL     1      13.594  12.225  34.824  0.00  0.00    +0.043 A 
ENDBRANCH  13  15
BRANCH   1  23
ATOM     22  C1  UNL     1       8.280  10.691  26.633  0.00  0.00    +0.277 C 
ATOM     23  O1  UNL     1       8.185  11.931  27.326  0.00  0.00    -0.495 OA
ENDBRANCH   1  23
TORSDOF 2
ENDMDL
MODEL 6
REMARK VINA RESULT:    -6.017      2.734      2.913
REMARK INTER + INTRA:          -6.836
REMARK INTER:                  -6.564
REMARK INTRA:                  -0.272
REMARK UNBOUND:                -0.116
REMARK  Name = /home/qwerty/github/datacon2025hack/step_04_hit_selection/docking/ligands/lig_646.pdb
REMARK  4 active torsions:
REMARK  status: ('A' for Active; 'I' for Inactive)
REMARK    1  A    between atoms: C1_1  and  O1_2
REMARK    2  A    between atoms: O1_2  and  C2_3
REMARK    3  A    between atoms: C9_10  and  C10_11
REMARK    4  A    between atoms: N2_15  and  C12_16
REMARK                            x       y       z     vdW  Elec       q    Type
REMARK                         _______ _______ _______ _____ _____    ______ ____
ROOT
ATOM      1  C2  UNL     1      21.863   0.884  29.813  0.00  0.00    +0.120 A 
ATOM      2  C3  UNL     1      22.479   1.906  30.579  0.00  0.00    +0.047 A 
ATOM      3  C4  UNL     1      21.769   2.551  31.604  0.00  0.00    +0.027 A 
ATOM      4  C5  UNL     1      20.439   2.181  31.834  0.00  0.00    +0.041 A 
ATOM      5  C6  UNL     1      19.853   1.177  31.113  0.00  0.00    -0.021 A 
ATOM      6  C7  UNL     1      20.538   0.515  30.094  0.00  0.00    +0.051 A 
ATOM      7  C8  UNL     1      18.478   0.899  31.614  0.00  0.00    +0.059 C 
ATOM      8  C9  UNL     1      18.319   1.893  32.800  0.00  0.00    +0.084 C 
ATOM      9  C10 UNL     1      17.109   2.812  32.605  0.00  0.00    +0.029 C 
ATOM     10  N1  UNL     1      19.562   2.672  32.838  0.00  0.00    -0.252 N 
ATOM     11  C11 UNL     1      19.871   3.659  33.836  0.00  0.00    +0.311 C 
ATOM     12  O2  UNL     1      19.382   3.544  34.992  0.00  0.00    -0.252 OA
ATOM     13  N2  UNL     1      20.645   4.817  33.493  0.00  0.00    -0.269 N 
ATOM     14  H13 UNL     1      20.657   5.108  32.490  0.00  0.00    +0.156 HD
ENDROOT
BRANCH  13  15
ATOM     15  C12 UNL     1      21.295   5.664  34.457  0.00  0.00    +0.036 A 
ATOM     16  C13 UNL     1      22.661   5.484  34.721  0.00  0.00    +0.023 A 
ATOM     17  C14 UNL     1      23.310   6.280  35.669  0.00  0.00    +0.003 A 
ATOM     18  C15 UNL     1      22.597   7.254  36.372  0.00  0.00    +0.020 A 
ATOM     19  C16 UNL     1      21.231   7.429  36.133  0.00  0.00    +0.043 A 
ATOM     20 CL1  UNL     1      20.331   8.635  37.035  0.00  0.00    -0.083 Cl
ATOM     21  C17 UNL     1      20.578   6.633  35.184  0.00  0.00    +0.043 A 
ENDBRANCH  13  15
BRANCH   1  23
ATOM     22  C1  UNL     1      22.853  -1.176  28.799  0.00  0.00    +0.277 C 
ATOM     23  O1  UNL     1      22.535   0.212  28.781  0.00  0.00    -0.495 OA
ENDBRANCH   1  23
TORSDOF 2
ENDMDL
MODEL 7
REMARK VINA RESULT:    -6.016     11.783     14.372
REMARK INTER + INTRA:          -6.836
REMARK INTER:                  -6.484
REMARK INTRA:                  -0.351
REMARK UNBOUND:                -0.116
REMARK  Name = /home/qwerty/github/datacon2025hack/step_04_hit_selection/docking/ligands/lig_646.pdb
REMARK  4 active torsions:
REMARK  status: ('A' for Active; 'I' for Inactive)
REMARK    1  A    between atoms: C1_1  and  O1_2
REMARK    2  A    between atoms: O1_2  and  C2_3
REMARK    3  A    between atoms: C9_10  and  C10_11
REMARK    4  A    between atoms: N2_15  and  C12_16
REMARK                            x       y       z     vdW  Elec       q    Type
REMARK                         _______ _______ _______ _____ _____    ______ ____
ROOT
ATOM      1  C2  UNL     1      16.773  12.986  34.620  0.00  0.00    +0.120 A 
ATOM      2  C3  UNL     1      16.270  13.053  33.296  0.00  0.00    +0.047 A 
ATOM      3  C4  UNL     1      14.907  13.297  33.064  0.00  0.00    +0.027 A 
ATOM      4  C5  UNL     1      14.056  13.446  34.166  0.00  0.00    +0.041 A 
ATOM      5  C6  UNL     1      14.545  13.408  35.443  0.00  0.00    -0.021 A 
ATOM      6  C7  UNL     1      15.896  13.175  35.701  0.00  0.00    +0.051 A 
ATOM      7  C8  UNL     1      13.468  13.697  36.431  0.00  0.00    +0.059 C 
ATOM      8  C9  UNL     1      12.220  13.953  35.539  0.00  0.00    +0.084 C 
ATOM      9  C10 UNL     1      11.072  13.003  35.892  0.00  0.00    +0.029 C 
ATOM     10  N1  UNL     1      12.666  13.737  34.156  0.00  0.00    -0.252 N 
ATOM     11  C11 UNL     1      11.842  13.943  32.998  0.00  0.00    +0.311 C 
ATOM     12  O2  UNL     1      10.918  14.800  33.039  0.00  0.00    -0.252 OA
ATOM     13  N2  UNL     1      12.003  13.113  31.838  0.00  0.00    -0.269 N 
ATOM     14  H13 UNL     1      12.434  12.171  31.977  0.00  0.00    +0.156 HD
ENDROOT
BRANCH  13  15
ATOM     15  C12 UNL     1      11.497  13.445  30.534  0.00  0.00    +0.036 A 
ATOM     16  C13 UNL     1      12.250  14.280  29.695  0.00  0.00    +0.023 A 
ATOM     17  C14 UNL     1      11.768  14.635  28.432  0.00  0.00    +0.003 A 
ATOM     18  C15 UNL     1      10.524  14.170  28.001  0.00  0.00    +0.020 A 
ATOM     19  C16 UNL     1       9.754  13.355  28.836  0.00  0.00    +0.043 A 
ATOM     20 CL1  UNL     1       8.180  12.792  28.303  0.00  0.00    -0.083 Cl
ATOM     21  C17 UNL     1      10.234  12.998  30.102  0.00  0.00    +0.043 A 
ENDBRANCH  13  15
BRANCH   1  23
ATOM     22  C1  UNL     1      18.608  12.138  36.091  0.00  0.00    +0.277 C 
ATOM     23  O1  UNL     1      18.127  12.747  34.897  0.00  0.00    -0.495 OA
ENDBRANCH   1  23
TORSDOF 2
ENDMDL
MODEL 8
REMARK VINA RESULT:    -6.008      2.648      3.095
REMARK INTER + INTRA:          -6.826
REMARK INTER:                  -6.599
REMARK INTRA:                  -0.227
REMARK UNBOUND:                -0.116
REMARK  Name = /home/qwerty/github/datacon2025hack/step_04_hit_selection/docking/ligands/lig_646.pdb
REMARK  4 active torsions:
REMARK  status: ('A' for Active; 'I' for Inactive)
REMARK    1  A    between atoms: C1_1  and  O1_2
REMARK    2  A    between atoms: O1_2  and  C2_3
REMARK    3  A    between atoms: C9_10  and  C10_11
REMARK    4  A    between atoms: N2_15  and  C12_16
REMARK                            x       y       z     vdW  Elec       q    Type
REMARK                         _______ _______ _______ _____ _____    ______ ____
ROOT
ATOM      1  C2  UNL     1      21.185   2.263  26.611  0.00  0.00    +0.120 A 
ATOM      2  C3  UNL     1      21.541   3.543  27.107  0.00  0.00    +0.047 A 
ATOM      3  C4  UNL     1      21.705   3.751  28.485  0.00  0.00    +0.027 A 
ATOM      4  C5  UNL     1      21.487   2.677  29.356  0.00  0.00    +0.041 A 
ATOM      5  C6  UNL     1      21.170   1.436  28.877  0.00  0.00    -0.021 A 
ATOM      6  C7  UNL     1      21.007   1.200  27.511  0.00  0.00    +0.051 A 
ATOM      7  C8  UNL     1      21.094   0.444  29.986  0.00  0.00    +0.059 C 
ATOM      8  C9  UNL     1      21.450   1.284  31.245  0.00  0.00    +0.084 C 
ATOM      9  C10 UNL     1      20.337   1.223  32.296  0.00  0.00    +0.029 C 
ATOM     10  N1  UNL     1      21.638   2.660  30.768  0.00  0.00    -0.252 N 
ATOM     11  C11 UNL     1      22.056   3.756  31.598  0.00  0.00    +0.311 C 
ATOM     12  O2  UNL     1      22.783   3.530  32.603  0.00  0.00    -0.252 OA
ATOM     13  N2  UNL     1      21.568   5.082  31.345  0.00  0.00    -0.269 N 
ATOM     14  H13 UNL     1      20.668   5.172  30.823  0.00  0.00    +0.156 HD
ENDROOT
BRANCH  13  15
ATOM     15  C12 UNL     1      22.174   6.275  31.871  0.00  0.00    +0.036 A 
ATOM     16  C13 UNL     1      22.959   7.077  31.028  0.00  0.00    +0.023 A 
ATOM     17  C14 UNL     1      23.576   8.230  31.522  0.00  0.00    +0.003 A 
ATOM     18  C15 UNL     1      23.426   8.585  32.864  0.00  0.00    +0.020 A 
ATOM     19  C16 UNL     1      22.664   7.783  33.719  0.00  0.00    +0.043 A 
ATOM     20 CL1  UNL     1      22.496   8.216  35.410  0.00  0.00    -0.083 Cl
ATOM     21  C17 UNL     1      22.044   6.627  33.227  0.00  0.00    +0.043 A 
ENDBRANCH  13  15
BRANCH   1  23
ATOM     22  C1  UNL     1      19.901   1.312  24.688  0.00  0.00    +0.277 C 
ATOM     23  O1  UNL     1      21.012   2.010  25.242  0.00  0.00    -0.495 OA
ENDBRANCH   1  23
TORSDOF 2
ENDMDL
MODEL 9
REMARK VINA RESULT:    -5.974     15.083     16.165
REMARK INTER + INTRA:          -6.788
REMARK INTER:                  -6.458
REMARK INTRA:                  -0.330
REMARK UNBOUND:                -0.116
REMARK  Name = /home/qwerty/github/datacon2025hack/step_04_hit_selection/docking/ligands/lig_646.pdb
REMARK  4 active torsions:
REMARK  status: ('A' for Active; 'I' for Inactive)
REMARK    1  A    between atoms: C1_1  and  O1_2
REMARK    2  A    between atoms: O1_2  and  C2_3
REMARK    3  A    between atoms: C9_10  and  C10_11
REMARK    4  A    between atoms: N2_15  and  C12_16
REMARK                            x       y       z     vdW  Elec       q    Type
REMARK                         _______ _______ _______ _____ _____    ______ ____
ROOT
ATOM      1  C2  UNL     1       9.034   4.437  22.948  0.00  0.00    +0.120 A 
ATOM      2  C3  UNL     1       8.865   4.971  24.250  0.00  0.00    +0.047 A 
ATOM      3  C4  UNL     1       8.650   6.346  24.433  0.00  0.00    +0.027 A 
ATOM      4  C5  UNL     1       8.631   7.176  23.306  0.00  0.00    +0.041 A 
ATOM      5  C6  UNL     1       8.767   6.659  22.047  0.00  0.00    -0.021 A 
ATOM      6  C7  UNL     1       8.975   5.295  21.838  0.00  0.00    +0.051 A 
ATOM      7  C8  UNL     1       8.607   7.722  21.017  0.00  0.00    +0.059 C 
ATOM      8  C9  UNL     1       8.316   8.998  21.858  0.00  0.00    +0.084 C 
ATOM      9  C10 UNL     1       9.333  10.106  21.571  0.00  0.00    +0.029 C 
ATOM     10  N1  UNL     1       8.389   8.576  23.263  0.00  0.00    -0.252 N 
ATOM     11  C11 UNL     1       8.108   9.431  24.382  0.00  0.00    +0.311 C 
ATOM     12  O2  UNL     1       7.291  10.382  24.245  0.00  0.00    -0.252 OA
ATOM     13  N2  UNL     1       8.824   9.269  25.615  0.00  0.00    -0.269 N 
ATOM     14  H13 UNL     1       9.758   8.803  25.571  0.00  0.00    +0.156 HD
ENDROOT
BRANCH  13  15
ATOM     15  C12 UNL     1       8.393   9.814  26.874  0.00  0.00    +0.036 A 
ATOM     16  C13 UNL     1       7.539   9.061  27.694  0.00  0.00    +0.023 A 
ATOM     17  C14 UNL     1       7.089   9.580  28.912  0.00  0.00    +0.003 A 
ATOM     18  C15 UNL     1       7.476  10.860  29.314  0.00  0.00    +0.020 A 
ATOM     19  C16 UNL     1       8.309  11.628  28.495  0.00  0.00    +0.043 A 
ATOM     20 CL1  UNL     1       8.774  13.246  28.990  0.00  0.00    -0.083 Cl
ATOM     21  C17 UNL     1       8.762  11.112  27.275  0.00  0.00    +0.043 A 
ENDBRANCH  13  15
BRANCH   1  23
ATOM     22  C1  UNL     1       9.395   2.096  23.749  0.00  0.00    +0.277 C 
ATOM     23  O1  UNL     1       9.250   3.069  22.719  0.00  0.00    -0.495 OA
ENDBRANCH   1  23
TORSDOF 2
ENDMDL
