REMARK  Name = /home/qwerty/github/datacon2025hack/step_04_hit_selection/docking/ligands/lig_600.pdb
REMARK  3 active torsions:
REMARK  status: ('A' for Active; 'I' for Inactive)
REMARK    1  A    between atoms: C1_2  and  C17_20
REMARK    2  A    between atoms: N1_3  and  C2_4
REMARK    3  A    between atoms: C5_7  and  C6_8
REMARK                            x       y       z     vdW  Elec       q    Type
REMARK                         _______ _______ _______ _____ _____    ______ ____
ROOT
ATOM      1  C2  UNL     1      -2.084   0.483   0.266  0.00  0.00    +0.033 A 
ATOM      2  C3  UNL     1      -1.385   0.819   1.433  0.00  0.00    +0.024 A 
ATOM      3  C4  UNL     1      -0.001   0.636   1.511  0.00  0.00    +0.010 A 
ATOM      4  C5  UNL     1       0.714   0.129   0.412  0.00  0.00    -0.018 A 
ATOM      5  C15 UNL     1       0.015  -0.184  -0.767  0.00  0.00    +0.010 A 
ATOM      6  C16 UNL     1      -1.369  -0.003  -0.842  0.00  0.00    +0.024 A 
ENDROOT
BRANCH   4   7
ATOM      7  C6  UNL     1       2.185  -0.064   0.493  0.00  0.00    -0.017 A 
ATOM      8  C7  UNL     1       2.770  -0.591   1.659  0.00  0.00    +0.009 A 
ATOM      9  C8  UNL     1       4.153  -0.777   1.742  0.00  0.00    +0.009 A 
ATOM     10  C9  UNL     1       4.975  -0.437   0.659  0.00  0.00    -0.015 A 
ATOM     11  C10 UNL     1       6.363  -0.616   0.727  0.00  0.00    +0.028 A 
ATOM     12  C11 UNL     1       7.153  -0.265  -0.370  0.00  0.00    +0.111 A 
ATOM     13  N2  UNL     1       6.579   0.246  -1.492  0.00  0.00    -0.263 NA
ATOM     14  C12 UNL     1       5.235   0.432  -1.589  0.00  0.00    +0.119 A 
ATOM     15  C13 UNL     1       4.399   0.094  -0.516  0.00  0.00    +0.001 A 
ATOM     16  C14 UNL     1       3.011   0.277  -0.593  0.00  0.00    +0.018 A 
ENDBRANCH   4   7
BRANCH   1  19
ATOM     17  O1  UNL     1      -4.035  -1.235  -1.006  0.00  0.00    -0.275 OA
ATOM     18  C1  UNL     1      -4.421  -0.147  -0.501  0.00  0.00    +0.220 C 
ATOM     19  N1  UNL     1      -3.503   0.702   0.207  0.00  0.00    -0.285 N 
ATOM     20  H1  UNL     1      -3.904   1.472   0.788  0.00  0.00    +0.155 HD
BRANCH  18  21
ATOM     21  C17 UNL     1      -5.854   0.268  -0.653  0.00  0.00    +0.075 C 
ATOM     22  C18 UNL     1      -6.618   0.393   0.657  0.00  0.00    +0.013 C 
ATOM     23  C19 UNL     1      -6.877  -0.789  -0.261  0.00  0.00    +0.013 C 
ENDBRANCH  18  21
ENDBRANCH   1  19
TORSDOF 3
