MODEL 1
REMARK VINA RESULT:    -6.258      0.000      0.000
REMARK INTER + INTRA:          -7.783
REMARK INTER:                  -6.990
REMARK INTRA:                  -0.793
REMARK UNBOUND:                -0.793
REMARK  Name = /home/qwerty/github/datacon2025hack/step_04_hit_selection/docking/ligands/lig_580.pdb
REMARK  7 active torsions:
REMARK  status: ('A' for Active; 'I' for Inactive)
REMARK    1  A    between atoms: C1_1  and  C2_2
REMARK    2  A    between atoms: C4_4  and  C5_5
REMARK    3  A    between atoms: C9_12  and  C10_14
REMARK    4  A    between atoms: C11_15  and  C12_16
REMARK    5  A    between atoms: N4_19  and  C14_20
REMARK    6  A    between atoms: C16_22  and  C17_23
REMARK    7  A    between atoms: N5_25  and  C19_26
REMARK                            x       y       z     vdW  Elec       q    Type
REMARK                         _______ _______ _______ _____ _____    ______ ____
ROOT
ATOM      1  C5  UNL     1      18.839  11.544  36.382  0.00  0.00    +0.265 C 
ATOM      2  O1  UNL     1      19.671  12.417  36.749  0.00  0.00    -0.268 OA
ATOM      3  N1  UNL     1      17.798  11.894  35.460  0.00  0.00    -0.295 N 
ATOM      4  C6  UNL     1      17.302  13.249  35.307  0.00  0.00    +0.113 C 
ATOM      5  C7  UNL     1      16.176  13.149  34.278  0.00  0.00    +0.033 C 
ATOM      6  C8  UNL     1      14.791  12.975  34.917  0.00  0.00    +0.113 C 
ATOM      7  N2  UNL     1      14.142  11.915  34.163  0.00  0.00    -0.295 N 
ATOM      8  C9  UNL     1      12.817  11.438  34.446  0.00  0.00    +0.265 C 
ATOM      9  O2  UNL     1      12.519  10.237  34.207  0.00  0.00    -0.268 OA
ATOM     10  C15 UNL     1      15.034  11.255  33.227  0.00  0.00    +0.116 C 
ATOM     11  C16 UNL     1      16.428  11.847  33.499  0.00  0.00    +0.005 C 
ATOM     12  C17 UNL     1      17.197  12.112  32.190  0.00  0.00    +0.015 C 
ATOM     13  C18 UNL     1      17.265  10.976  34.465  0.00  0.00    +0.116 C 
ENDROOT
BRANCH   1  17
ATOM     14  C1  UNL     1      20.484   6.890  37.278  0.00  0.00    +0.067 C 
ATOM     15  C2  UNL     1      19.708   8.164  37.309  0.00  0.00    +0.061 A 
ATOM     16  C3  UNL     1      20.015   9.315  36.609  0.00  0.00    +0.057 A 
ATOM     17  C4  UNL     1      18.971  10.170  36.892  0.00  0.00    +0.123 A 
ATOM     18  N5  UNL     1      18.110   9.546  37.729  0.00  0.00    -0.262 N 
ATOM     19  C19 UNL     1      16.912  10.097  38.358  0.00  0.00    +0.173 C 
ATOM     20  N6  UNL     1      18.548   8.321  37.976  0.00  0.00    -0.176 NA
ENDBRANCH   1  17
BRANCH   8  21
ATOM     21  C10 UNL     1      11.793  12.328  35.022  0.00  0.00    +0.127 A 
ATOM     22  C11 UNL     1      11.284  12.294  36.310  0.00  0.00    +0.068 A 
ATOM     23  C12 UNL     1      11.648  11.343  37.407  0.00  0.00    +0.068 C 
ATOM     24  N3  UNL     1      10.414  13.312  36.477  0.00  0.00    -0.240 NA
ATOM     25  C13 UNL     1      10.415  13.953  35.288  0.00  0.00    +0.199 A 
ATOM     26  N4  UNL     1      11.241  13.379  34.391  0.00  0.00    -0.329 N 
ATOM     27  C14 UNL     1      11.517  13.854  33.037  0.00  0.00    +0.150 C 
ENDBRANCH   8  21
TORSDOF 2
ENDMDL
MODEL 2
REMARK VINA RESULT:    -6.076      9.599     12.394
REMARK INTER + INTRA:          -7.580
REMARK INTER:                  -6.859
REMARK INTRA:                  -0.721
REMARK UNBOUND:                -0.793
REMARK  Name = /home/qwerty/github/datacon2025hack/step_04_hit_selection/docking/ligands/lig_580.pdb
REMARK  7 active torsions:
REMARK  status: ('A' for Active; 'I' for Inactive)
REMARK    1  A    between atoms: C1_1  and  C2_2
REMARK    2  A    between atoms: C4_4  and  C5_5
REMARK    3  A    between atoms: C9_12  and  C10_14
REMARK    4  A    between atoms: C11_15  and  C12_16
REMARK    5  A    between atoms: N4_19  and  C14_20
REMARK    6  A    between atoms: C16_22  and  C17_23
REMARK    7  A    between atoms: N5_25  and  C19_26
REMARK                            x       y       z     vdW  Elec       q    Type
REMARK                         _______ _______ _______ _____ _____    ______ ____
ROOT
ATOM      1  C5  UNL     1      22.503   1.857  28.490  0.00  0.00    +0.265 C 
ATOM      2  O1  UNL     1      23.680   1.405  28.524  0.00  0.00    -0.268 OA
ATOM      3  N1  UNL     1      21.961   2.520  29.640  0.00  0.00    -0.295 N 
ATOM      4  C6  UNL     1      22.433   2.273  30.989  0.00  0.00    +0.113 C 
ATOM      5  C7  UNL     1      21.549   3.136  31.888  0.00  0.00    +0.033 C 
ATOM      6  C8  UNL     1      20.331   2.380  32.438  0.00  0.00    +0.113 C 
ATOM      7  N2  UNL     1      19.200   3.274  32.258  0.00  0.00    -0.295 N 
ATOM      8  C9  UNL     1      17.856   2.941  32.644  0.00  0.00    +0.265 C 
ATOM      9  O2  UNL     1      16.883   3.421  32.004  0.00  0.00    -0.268 OA
ATOM     10  C15 UNL     1      19.525   4.452  31.475  0.00  0.00    +0.116 C 
ATOM     11  C16 UNL     1      20.966   4.234  30.981  0.00  0.00    +0.005 C 
ATOM     12  C17 UNL     1      21.795   5.530  31.060  0.00  0.00    +0.015 C 
ATOM     13  C18 UNL     1      21.021   3.628  29.559  0.00  0.00    +0.116 C 
ENDROOT
BRANCH   1  17
ATOM     14  C1  UNL     1      19.272   0.243  25.009  0.00  0.00    +0.067 C 
ATOM     15  C2  UNL     1      20.286   1.038  25.760  0.00  0.00    +0.061 A 
ATOM     16  C3  UNL     1      20.738   0.771  27.038  0.00  0.00    +0.057 A 
ATOM     17  C4  UNL     1      21.717   1.717  27.254  0.00  0.00    +0.123 A 
ATOM     18  N5  UNL     1      21.814   2.504  26.157  0.00  0.00    -0.262 N 
ATOM     19  C19 UNL     1      22.654   3.684  25.971  0.00  0.00    +0.173 C 
ATOM     20  N6  UNL     1      20.954   2.086  25.241  0.00  0.00    -0.176 NA
ENDBRANCH   1  17
BRANCH   8  21
ATOM     21  C10 UNL     1      17.590   2.035  33.776  0.00  0.00    +0.127 A 
ATOM     22  C11 UNL     1      17.651   0.651  33.773  0.00  0.00    +0.068 A 
ATOM     23  C12 UNL     1      17.988  -0.241  32.620  0.00  0.00    +0.068 C 
ATOM     24  N3  UNL     1      17.407   0.188  35.017  0.00  0.00    -0.240 NA
ATOM     25  C13 UNL     1      17.211   1.300  35.758  0.00  0.00    +0.199 A 
ATOM     26  N4  UNL     1      17.317   2.431  35.033  0.00  0.00    -0.329 N 
ATOM     27  C14 UNL     1      17.218   3.798  35.537  0.00  0.00    +0.150 C 
ENDBRANCH   8  21
TORSDOF 2
ENDMDL
MODEL 3
REMARK VINA RESULT:    -6.036     11.260     13.605
REMARK INTER + INTRA:          -7.535
REMARK INTER:                  -6.828
REMARK INTRA:                  -0.707
REMARK UNBOUND:                -0.793
REMARK  Name = /home/qwerty/github/datacon2025hack/step_04_hit_selection/docking/ligands/lig_580.pdb
REMARK  7 active torsions:
REMARK  status: ('A' for Active; 'I' for Inactive)
REMARK    1  A    between atoms: C1_1  and  C2_2
REMARK    2  A    between atoms: C4_4  and  C5_5
REMARK    3  A    between atoms: C9_12  and  C10_14
REMARK    4  A    between atoms: C11_15  and  C12_16
REMARK    5  A    between atoms: N4_19  and  C14_20
REMARK    6  A    between atoms: C16_22  and  C17_23
REMARK    7  A    between atoms: N5_25  and  C19_26
REMARK                            x       y       z     vdW  Elec       q    Type
REMARK                         _______ _______ _______ _____ _____    ______ ____
ROOT
ATOM      1  C5  UNL     1      21.429   0.658  29.598  0.00  0.00    +0.265 C 
ATOM      2  O1  UNL     1      22.044  -0.443  29.596  0.00  0.00    -0.268 OA
ATOM      3  N1  UNL     1      20.706   1.073  28.431  0.00  0.00    -0.295 N 
ATOM      4  C6  UNL     1      21.031   0.609  27.095  0.00  0.00    +0.113 C 
ATOM      5  C7  UNL     1      20.060   1.341  26.169  0.00  0.00    +0.033 C 
ATOM      6  C8  UNL     1      20.641   2.640  25.594  0.00  0.00    +0.113 C 
ATOM      7  N2  UNL     1      19.594   3.637  25.741  0.00  0.00    -0.295 N 
ATOM      8  C9  UNL     1      19.737   5.004  25.323  0.00  0.00    +0.265 C 
ATOM      9  O2  UNL     1      19.116   5.914  25.937  0.00  0.00    -0.268 OA
ATOM     10  C15 UNL     1      18.466   3.166  26.524  0.00  0.00    +0.116 C 
ATOM     11  C16 UNL     1      18.882   1.782  27.055  0.00  0.00    +0.005 C 
ATOM     12  C17 UNL     1      17.718   0.776  26.989  0.00  0.00    +0.015 C 
ATOM     13  C18 UNL     1      19.476   1.848  28.481  0.00  0.00    +0.116 C 
ENDROOT
BRANCH   1  17
ATOM     14  C1  UNL     1      22.439   4.245  32.957  0.00  0.00    +0.067 C 
ATOM     15  C2  UNL     1      21.855   3.064  32.256  0.00  0.00    +0.061 A 
ATOM     16  C3  UNL     1      22.162   2.651  30.974  0.00  0.00    +0.057 A 
ATOM     17  C4  UNL     1      21.444   1.485  30.815  0.00  0.00    +0.123 A 
ATOM     18  N5  UNL     1      20.742   1.246  31.948  0.00  0.00    -0.262 N 
ATOM     19  C19 UNL     1      19.781   0.174  32.197  0.00  0.00    +0.173 C 
ATOM     20  N6  UNL     1      20.999   2.198  32.831  0.00  0.00    -0.176 NA
ENDBRANCH   1  17
BRANCH   8  21
ATOM     21  C10 UNL     1      20.606   5.370  24.191  0.00  0.00    +0.127 A 
ATOM     22  C11 UNL     1      21.984   5.509  24.205  0.00  0.00    +0.068 A 
ATOM     23  C12 UNL     1      22.904   5.332  25.372  0.00  0.00    +0.068 C 
ATOM     24  N3  UNL     1      22.420   5.786  22.958  0.00  0.00    -0.240 NA
ATOM     25  C13 UNL     1      21.299   5.802  22.205  0.00  0.00    +0.199 A 
ATOM     26  N4  UNL     1      20.188   5.552  22.926  0.00  0.00    -0.329 N 
ATOM     27  C14 UNL     1      18.826   5.441  22.410  0.00  0.00    +0.150 C 
ENDBRANCH   8  21
TORSDOF 2
ENDMDL
MODEL 4
REMARK VINA RESULT:    -5.984      8.335     11.910
REMARK INTER + INTRA:          -7.478
REMARK INTER:                  -6.681
REMARK INTRA:                  -0.797
REMARK UNBOUND:                -0.793
REMARK  Name = /home/qwerty/github/datacon2025hack/step_04_hit_selection/docking/ligands/lig_580.pdb
REMARK  7 active torsions:
REMARK  status: ('A' for Active; 'I' for Inactive)
REMARK    1  A    between atoms: C1_1  and  C2_2
REMARK    2  A    between atoms: C4_4  and  C5_5
REMARK    3  A    between atoms: C9_12  and  C10_14
REMARK    4  A    between atoms: C11_15  and  C12_16
REMARK    5  A    between atoms: N4_19  and  C14_20
REMARK    6  A    between atoms: C16_22  and  C17_23
REMARK    7  A    between atoms: N5_25  and  C19_26
REMARK                            x       y       z     vdW  Elec       q    Type
REMARK                         _______ _______ _______ _____ _____    ______ ____
ROOT
ATOM      1  C5  UNL     1      19.747   3.400  28.509  0.00  0.00    +0.265 C 
ATOM      2  O1  UNL     1      18.531   3.305  28.190  0.00  0.00    -0.268 OA
ATOM      3  N1  UNL     1      20.121   3.430  29.894  0.00  0.00    -0.295 N 
ATOM      4  C6  UNL     1      19.223   3.875  30.943  0.00  0.00    +0.113 C 
ATOM      5  C7  UNL     1      20.043   3.797  32.231  0.00  0.00    +0.033 C 
ATOM      6  C8  UNL     1      20.725   5.125  32.589  0.00  0.00    +0.113 C 
ATOM      7  N2  UNL     1      22.090   4.778  32.951  0.00  0.00    -0.295 N 
ATOM      8  C9  UNL     1      23.074   5.746  33.352  0.00  0.00    +0.265 C 
ATOM      9  O2  UNL     1      24.293   5.538  33.108  0.00  0.00    -0.268 OA
ATOM     10  C15 UNL     1      22.415   3.390  32.680  0.00  0.00    +0.116 C 
ATOM     11  C16 UNL     1      21.192   2.816  31.943  0.00  0.00    +0.005 C 
ATOM     12  C17 UNL     1      20.854   1.393  32.426  0.00  0.00    +0.015 C 
ATOM     13  C18 UNL     1      21.354   2.854  30.405  0.00  0.00    +0.116 C 
ENDROOT
BRANCH   1  17
ATOM     14  C1  UNL     1      23.119   5.006  25.160  0.00  0.00    +0.067 C 
ATOM     15  C2  UNL     1      22.256   4.148  26.023  0.00  0.00    +0.061 A 
ATOM     16  C3  UNL     1      21.390   4.596  27.001  0.00  0.00    +0.057 A 
ATOM     17  C4  UNL     1      20.765   3.451  27.448  0.00  0.00    +0.123 A 
ATOM     18  N5  UNL     1      21.261   2.389  26.770  0.00  0.00    -0.262 N 
ATOM     19  C19 UNL     1      20.957   0.975  26.971  0.00  0.00    +0.173 C 
ATOM     20  N6  UNL     1      22.159   2.810  25.893  0.00  0.00    -0.176 NA
ENDBRANCH   1  17
BRANCH   8  21
ATOM     21  C10 UNL     1      22.685   6.989  34.041  0.00  0.00    +0.127 A 
ATOM     22  C11 UNL     1      22.740   7.245  35.401  0.00  0.00    +0.068 A 
ATOM     23  C12 UNL     1      23.195   6.317  36.483  0.00  0.00    +0.068 C 
ATOM     24  N3  UNL     1      22.362   8.520  35.634  0.00  0.00    -0.240 NA
ATOM     25  C13 UNL     1      22.092   9.020  34.409  0.00  0.00    +0.199 A 
ATOM     26  N4  UNL     1      22.280   8.116  33.427  0.00  0.00    -0.329 N 
ATOM     27  C14 UNL     1      22.133   8.349  31.993  0.00  0.00    +0.150 C 
ENDBRANCH   8  21
TORSDOF 2
ENDMDL
MODEL 5
REMARK VINA RESULT:    -5.966      4.339      8.553
REMARK INTER + INTRA:          -7.457
REMARK INTER:                  -6.582
REMARK INTRA:                  -0.874
REMARK UNBOUND:                -0.793
REMARK  Name = /home/qwerty/github/datacon2025hack/step_04_hit_selection/docking/ligands/lig_580.pdb
REMARK  7 active torsions:
REMARK  status: ('A' for Active; 'I' for Inactive)
REMARK    1  A    between atoms: C1_1  and  C2_2
REMARK    2  A    between atoms: C4_4  and  C5_5
REMARK    3  A    between atoms: C9_12  and  C10_14
REMARK    4  A    between atoms: C11_15  and  C12_16
REMARK    5  A    between atoms: N4_19  and  C14_20
REMARK    6  A    between atoms: C16_22  and  C17_23
REMARK    7  A    between atoms: N5_25  and  C19_26
REMARK                            x       y       z     vdW  Elec       q    Type
REMARK                         _______ _______ _______ _____ _____    ______ ____
ROOT
ATOM      1  C5  UNL     1      11.112  10.596  29.160  0.00  0.00    +0.265 C 
ATOM      2  O1  UNL     1      11.806   9.944  28.333  0.00  0.00    -0.268 OA
ATOM      3  N1  UNL     1      11.715  11.651  29.922  0.00  0.00    -0.295 N 
ATOM      4  C6  UNL     1      13.136  11.703  30.210  0.00  0.00    +0.113 C 
ATOM      5  C7  UNL     1      13.322  12.944  31.083  0.00  0.00    +0.033 C 
ATOM      6  C8  UNL     1      13.278  12.634  32.585  0.00  0.00    +0.113 C 
ATOM      7  N2  UNL     1      12.419  13.650  33.170  0.00  0.00    -0.295 N 
ATOM      8  C9  UNL     1      12.110  13.715  34.572  0.00  0.00    +0.265 C 
ATOM      9  O2  UNL     1      11.001  14.182  34.948  0.00  0.00    -0.268 OA
ATOM     10  C15 UNL     1      11.749  14.469  32.177  0.00  0.00    +0.116 C 
ATOM     11  C16 UNL     1      12.096  13.836  30.818  0.00  0.00    +0.005 C 
ATOM     12  C17 UNL     1      12.397  14.907  29.753  0.00  0.00    +0.015 C 
ATOM     13  C18 UNL     1      11.007  12.856  30.324  0.00  0.00    +0.116 C 
ENDROOT
BRANCH   1  17
ATOM     14  C1  UNL     1       6.770   8.591  30.673  0.00  0.00    +0.067 C 
ATOM     15  C2  UNL     1       7.797   9.431  29.992  0.00  0.00    +0.061 A 
ATOM     16  C3  UNL     1       9.158   9.393  30.227  0.00  0.00    +0.057 A 
ATOM     17  C4  UNL     1       9.684  10.275  29.306  0.00  0.00    +0.123 A 
ATOM     18  N5  UNL     1       8.670  10.808  28.585  0.00  0.00    -0.262 N 
ATOM     19  C19 UNL     1       8.749  11.848  27.561  0.00  0.00    +0.173 C 
ATOM     20  N6  UNL     1       7.522  10.289  28.990  0.00  0.00    -0.176 NA
ENDBRANCH   1  17
BRANCH   8  21
ATOM     21  C10 UNL     1      13.066  13.238  35.587  0.00  0.00    +0.127 A 
ATOM     22  C11 UNL     1      14.052  13.975  36.221  0.00  0.00    +0.068 A 
ATOM     23  C12 UNL     1      14.382  15.420  36.013  0.00  0.00    +0.068 C 
ATOM     24  N3  UNL     1      14.676  13.201  37.134  0.00  0.00    -0.240 NA
ATOM     25  C13 UNL     1      14.051  12.007  37.046  0.00  0.00    +0.199 A 
ATOM     26  N4  UNL     1      13.072  12.002  36.119  0.00  0.00    -0.329 N 
ATOM     27  C14 UNL     1      12.172  10.894  35.814  0.00  0.00    +0.150 C 
ENDBRANCH   8  21
TORSDOF 2
ENDMDL
MODEL 6
REMARK VINA RESULT:    -5.927      3.643      6.087
REMARK INTER + INTRA:          -7.413
REMARK INTER:                  -6.528
REMARK INTRA:                  -0.885
REMARK UNBOUND:                -0.793
REMARK  Name = /home/qwerty/github/datacon2025hack/step_04_hit_selection/docking/ligands/lig_580.pdb
REMARK  7 active torsions:
REMARK  status: ('A' for Active; 'I' for Inactive)
REMARK    1  A    between atoms: C1_1  and  C2_2
REMARK    2  A    between atoms: C4_4  and  C5_5
REMARK    3  A    between atoms: C9_12  and  C10_14
REMARK    4  A    between atoms: C11_15  and  C12_16
REMARK    5  A    between atoms: N4_19  and  C14_20
REMARK    6  A    between atoms: C16_22  and  C17_23
REMARK    7  A    between atoms: N5_25  and  C19_26
REMARK                            x       y       z     vdW  Elec       q    Type
REMARK                         _______ _______ _______ _____ _____    ______ ____
ROOT
ATOM      1  C5  UNL     1      21.031   6.887  33.728  0.00  0.00    +0.265 C 
ATOM      2  O1  UNL     1      20.716   5.817  33.139  0.00  0.00    -0.268 OA
ATOM      3  N1  UNL     1      20.103   7.505  34.631  0.00  0.00    -0.295 N 
ATOM      4  C6  UNL     1      18.668   7.307  34.544  0.00  0.00    +0.113 C 
ATOM      5  C7  UNL     1      18.076   8.185  35.646  0.00  0.00    +0.033 C 
ATOM      6  C8  UNL     1      17.668   9.579  35.150  0.00  0.00    +0.113 C 
ATOM      7  N2  UNL     1      18.176  10.513  36.142  0.00  0.00    -0.295 N 
ATOM      8  C9  UNL     1      18.008  11.937  36.049  0.00  0.00    +0.265 C 
ATOM      9  O2  UNL     1      18.879  12.703  36.542  0.00  0.00    -0.268 OA
ATOM     10  C15 UNL     1      19.035   9.883  37.128  0.00  0.00    +0.116 C 
ATOM     11  C16 UNL     1      19.216   8.431  36.650  0.00  0.00    +0.005 C 
ATOM     12  C17 UNL     1      19.157   7.436  37.824  0.00  0.00    +0.015 C 
ATOM     13  C18 UNL     1      20.507   8.234  35.822  0.00  0.00    +0.116 C 
ENDROOT
BRANCH   1  17
ATOM     14  C1  UNL     1      24.828   9.629  31.930  0.00  0.00    +0.067 C 
ATOM     15  C2  UNL     1      24.001   8.687  32.739  0.00  0.00    +0.061 A 
ATOM     16  C3  UNL     1      22.642   8.477  32.596  0.00  0.00    +0.057 A 
ATOM     17  C4  UNL     1      22.362   7.468  33.494  0.00  0.00    +0.123 A 
ATOM     18  N5  UNL     1      23.504   7.124  34.135  0.00  0.00    -0.262 N 
ATOM     19  C19 UNL     1      23.666   6.166  35.226  0.00  0.00    +0.173 C 
ATOM     20  N6  UNL     1      24.505   7.855  33.670  0.00  0.00    -0.176 NA
ENDBRANCH   1  17
BRANCH   8  21
ATOM     21  C10 UNL     1      16.835  12.525  35.378  0.00  0.00    +0.127 A 
ATOM     22  C11 UNL     1      16.783  13.062  34.103  0.00  0.00    +0.068 A 
ATOM     23  C12 UNL     1      17.905  13.179  33.119  0.00  0.00    +0.068 C 
ATOM     24  N3  UNL     1      15.517  13.438  33.825  0.00  0.00    -0.240 NA
ATOM     25  C13 UNL     1      14.818  13.113  34.934  0.00  0.00    +0.199 A 
ATOM     26  N4  UNL     1      15.591  12.559  35.889  0.00  0.00    -0.329 N 
ATOM     27  C14 UNL     1      15.141  12.046  37.181  0.00  0.00    +0.150 C 
ENDBRANCH   8  21
TORSDOF 2
ENDMDL
MODEL 7
REMARK VINA RESULT:    -5.926      9.949     13.120
REMARK INTER + INTRA:          -7.412
REMARK INTER:                  -6.517
REMARK INTRA:                  -0.895
REMARK UNBOUND:                -0.793
REMARK  Name = /home/qwerty/github/datacon2025hack/step_04_hit_selection/docking/ligands/lig_580.pdb
REMARK  7 active torsions:
REMARK  status: ('A' for Active; 'I' for Inactive)
REMARK    1  A    between atoms: C1_1  and  C2_2
REMARK    2  A    between atoms: C4_4  and  C5_5
REMARK    3  A    between atoms: C9_12  and  C10_14
REMARK    4  A    between atoms: C11_15  and  C12_16
REMARK    5  A    between atoms: N4_19  and  C14_20
REMARK    6  A    between atoms: C16_22  and  C17_23
REMARK    7  A    between atoms: N5_25  and  C19_26
REMARK                            x       y       z     vdW  Elec       q    Type
REMARK                         _______ _______ _______ _____ _____    ______ ____
ROOT
ATOM      1  C5  UNL     1      11.247  10.749  28.245  0.00  0.00    +0.265 C 
ATOM      2  O1  UNL     1      11.910  10.160  29.141  0.00  0.00    -0.268 OA
ATOM      3  N1  UNL     1      10.335  10.003  27.426  0.00  0.00    -0.295 N 
ATOM      4  C6  UNL     1      10.478   8.580  27.182  0.00  0.00    +0.113 C 
ATOM      5  C7  UNL     1       9.341   8.223  26.225  0.00  0.00    +0.033 C 
ATOM      6  C8  UNL     1       9.760   8.269  24.749  0.00  0.00    +0.113 C 
ATOM      7  N2  UNL     1       8.697   8.983  24.062  0.00  0.00    -0.295 N 
ATOM      8  C9  UNL     1       8.704   9.248  22.650  0.00  0.00    +0.265 C 
ATOM      9  O2  UNL     1       8.138  10.282  22.204  0.00  0.00    -0.268 OA
ATOM     10  C15 UNL     1       7.727   9.569  24.969  0.00  0.00    +0.116 C 
ATOM     11  C16 UNL     1       8.289   9.335  26.382  0.00  0.00    +0.005 C 
ATOM     12  C17 UNL     1       7.182   8.929  27.373  0.00  0.00    +0.015 C 
ATOM     13  C18 UNL     1       9.089  10.548  26.912  0.00  0.00    +0.116 C 
ENDROOT
BRANCH   1  17
ATOM     14  C1  UNL     1      12.750  15.268  26.669  0.00  0.00    +0.067 C 
ATOM     15  C2  UNL     1      12.029  14.162  27.363  0.00  0.00    +0.061 A 
ATOM     16  C3  UNL     1      12.224  12.810  27.150  0.00  0.00    +0.057 A 
ATOM     17  C4  UNL     1      11.403  12.202  28.077  0.00  0.00    +0.123 A 
ATOM     18  N5  UNL     1      10.753  13.159  28.779  0.00  0.00    -0.262 N 
ATOM     19  C19 UNL     1       9.723  12.978  29.799  0.00  0.00    +0.173 C 
ATOM     20  N6  UNL     1      11.140  14.353  28.357  0.00  0.00    -0.176 NA
ENDBRANCH   1  17
BRANCH   8  21
ATOM     21  C10 UNL     1       9.372   8.335  21.705  0.00  0.00    +0.127 A 
ATOM     22  C11 UNL     1       8.836   7.203  21.115  0.00  0.00    +0.068 A 
ATOM     23  C12 UNL     1       7.462   6.641  21.308  0.00  0.00    +0.068 C 
ATOM     24  N3  UNL     1       9.735   6.673  20.259  0.00  0.00    -0.240 NA
ATOM     25  C13 UNL     1      10.801   7.499  20.337  0.00  0.00    +0.199 A 
ATOM     26  N4  UNL     1      10.608   8.513  21.204  0.00  0.00    -0.329 N 
ATOM     27  C14 UNL     1      11.535   9.607  21.480  0.00  0.00    +0.150 C 
ENDBRANCH   8  21
TORSDOF 2
ENDMDL
MODEL 8
REMARK VINA RESULT:    -5.739     12.595     14.286
REMARK INTER + INTRA:          -7.203
REMARK INTER:                  -6.323
REMARK INTRA:                  -0.880
REMARK UNBOUND:                -0.793
REMARK  Name = /home/qwerty/github/datacon2025hack/step_04_hit_selection/docking/ligands/lig_580.pdb
REMARK  7 active torsions:
REMARK  status: ('A' for Active; 'I' for Inactive)
REMARK    1  A    between atoms: C1_1  and  C2_2
REMARK    2  A    between atoms: C4_4  and  C5_5
REMARK    3  A    between atoms: C9_12  and  C10_14
REMARK    4  A    between atoms: C11_15  and  C12_16
REMARK    5  A    between atoms: N4_19  and  C14_20
REMARK    6  A    between atoms: C16_22  and  C17_23
REMARK    7  A    between atoms: N5_25  and  C19_26
REMARK                            x       y       z     vdW  Elec       q    Type
REMARK                         _______ _______ _______ _____ _____    ______ ____
ROOT
ATOM      1  C5  UNL     1      19.504   3.075  29.242  0.00  0.00    +0.265 C 
ATOM      2  O1  UNL     1      19.460   4.287  29.588  0.00  0.00    -0.268 OA
ATOM      3  N1  UNL     1      19.426   2.726  27.853  0.00  0.00    -0.295 N 
ATOM      4  C6  UNL     1      18.793   3.575  26.861  0.00  0.00    +0.113 C 
ATOM      5  C7  UNL     1      18.887   2.796  25.549  0.00  0.00    +0.033 C 
ATOM      6  C8  UNL     1      17.639   1.949  25.263  0.00  0.00    +0.113 C 
ATOM      7  N2  UNL     1      18.137   0.649  24.841  0.00  0.00    -0.295 N 
ATOM      8  C9  UNL     1      17.282  -0.447  24.479  0.00  0.00    +0.265 C 
ATOM      9  O2  UNL     1      17.666  -1.632  24.676  0.00  0.00    -0.268 OA
ATOM     10  C15 UNL     1      19.572   0.508  25.009  0.00  0.00    +0.116 C 
ATOM     11  C16 UNL     1      20.029   1.783  25.739  0.00  0.00    +0.005 C 
ATOM     12  C17 UNL     1      21.357   2.317  25.170  0.00  0.00    +0.015 C 
ATOM     13  C18 UNL     1      20.122   1.590  27.270  0.00  0.00    +0.116 C 
ENDROOT
BRANCH   1  17
ATOM     14  C1  UNL     1      18.594  -0.526  32.615  0.00  0.00    +0.067 C 
ATOM     15  C2  UNL     1      19.270   0.451  31.711  0.00  0.00    +0.061 A 
ATOM     16  C3  UNL     1      18.642   1.272  30.795  0.00  0.00    +0.057 A 
ATOM     17  C4  UNL     1      19.663   2.040  30.276  0.00  0.00    +0.123 A 
ATOM     18  N5  UNL     1      20.828   1.667  30.855  0.00  0.00    -0.262 N 
ATOM     19  C19 UNL     1      22.174   2.146  30.551  0.00  0.00    +0.173 C 
ATOM     20  N6  UNL     1      20.591   0.709  31.738  0.00  0.00    -0.176 NA
ENDBRANCH   1  17
BRANCH   8  21
ATOM     21  C10 UNL     1      15.952  -0.216  23.888  0.00  0.00    +0.127 A 
ATOM     22  C11 UNL     1      15.633  -0.163  22.541  0.00  0.00    +0.068 A 
ATOM     23  C12 UNL     1      16.564  -0.318  21.379  0.00  0.00    +0.068 C 
ATOM     24  N3  UNL     1      14.301   0.000  22.400  0.00  0.00    -0.240 NA
ATOM     25  C13 UNL     1      13.831   0.036  23.666  0.00  0.00    +0.199 A 
ATOM     26  N4  UNL     1      14.808  -0.094  24.585  0.00  0.00    -0.329 N 
ATOM     27  C14 UNL     1      14.635  -0.153  26.034  0.00  0.00    +0.150 C 
ENDBRANCH   8  21
TORSDOF 2
ENDMDL
MODEL 9
REMARK VINA RESULT:    -5.666     10.933     13.735
REMARK INTER + INTRA:          -7.122
REMARK INTER:                  -6.290
REMARK INTRA:                  -0.832
REMARK UNBOUND:                -0.793
REMARK  Name = /home/qwerty/github/datacon2025hack/step_04_hit_selection/docking/ligands/lig_580.pdb
REMARK  7 active torsions:
REMARK  status: ('A' for Active; 'I' for Inactive)
REMARK    1  A    between atoms: C1_1  and  C2_2
REMARK    2  A    between atoms: C4_4  and  C5_5
REMARK    3  A    between atoms: C9_12  and  C10_14
REMARK    4  A    between atoms: C11_15  and  C12_16
REMARK    5  A    between atoms: N4_19  and  C14_20
REMARK    6  A    between atoms: C16_22  and  C17_23
REMARK    7  A    between atoms: N5_25  and  C19_26
REMARK                            x       y       z     vdW  Elec       q    Type
REMARK                         _______ _______ _______ _____ _____    ______ ____
ROOT
ATOM      1  C5  UNL     1      10.822   6.739  22.049  0.00  0.00    +0.265 C 
ATOM      2  O1  UNL     1      11.794   6.795  21.247  0.00  0.00    -0.268 OA
ATOM      3  N1  UNL     1      10.269   7.948  22.586  0.00  0.00    -0.295 N 
ATOM      4  C6  UNL     1      11.030   9.178  22.703  0.00  0.00    +0.113 C 
ATOM      5  C7  UNL     1      10.081  10.173  23.371  0.00  0.00    +0.033 C 
ATOM      6  C8  UNL     1      10.235  10.220  24.897  0.00  0.00    +0.113 C 
ATOM      7  N2  UNL     1       8.882  10.192  25.429  0.00  0.00    -0.295 N 
ATOM      8  C9  UNL     1       8.581  10.218  26.834  0.00  0.00    +0.265 C 
ATOM      9  O2  UNL     1       7.544   9.645  27.262  0.00  0.00    -0.268 OA
ATOM     10  C15 UNL     1       7.876   9.940  24.412  0.00  0.00    +0.116 C 
ATOM     11  C16 UNL     1       8.661   9.635  23.124  0.00  0.00    +0.005 C 
ATOM     12  C17 UNL     1       8.012  10.298  21.894  0.00  0.00    +0.015 C 
ATOM     13  C18 UNL     1       8.858   8.118  22.894  0.00  0.00    +0.116 C 
ENDROOT
BRANCH   1  17
ATOM     14  C1  UNL     1       9.943   2.314  24.244  0.00  0.00    +0.067 C 
ATOM     15  C2  UNL     1       9.851   3.524  23.376  0.00  0.00    +0.061 A 
ATOM     16  C3  UNL     1      10.674   4.632  23.443  0.00  0.00    +0.057 A 
ATOM     17  C4  UNL     1      10.255   5.426  22.396  0.00  0.00    +0.123 A 
ATOM     18  N5  UNL     1       9.227   4.811  21.765  0.00  0.00    -0.262 N 
ATOM     19  C19 UNL     1       8.419   5.321  20.660  0.00  0.00    +0.173 C 
ATOM     20  N6  UNL     1       8.987   3.648  22.350  0.00  0.00    -0.176 NA
ENDBRANCH   1  17
BRANCH   8  21
ATOM     21  C10 UNL     1       9.471  10.898  27.792  0.00  0.00    +0.127 A 
ATOM     22  C11 UNL     1       9.397  12.215  28.214  0.00  0.00    +0.068 A 
ATOM     23  C12 UNL     1       8.407  13.252  27.786  0.00  0.00    +0.068 C 
ATOM     24  N3  UNL     1      10.346  12.442  29.146  0.00  0.00    -0.240 NA
ATOM     25  C13 UNL     1      10.976  11.256  29.282  0.00  0.00    +0.199 A 
ATOM     26  N4  UNL     1      10.466  10.303  28.475  0.00  0.00    -0.329 N 
ATOM     27  C14 UNL     1      10.878   8.904  28.417  0.00  0.00    +0.150 C 
ENDBRANCH   8  21
TORSDOF 2
ENDMDL
