REMARK  Name = /home/qwerty/github/datacon2025hack/step_04_hit_selection/docking/ligands/lig_213.pdb
REMARK  6 active torsions:
REMARK  status: ('A' for Active; 'I' for Inactive)
REMARK    1  A    between atoms: C1_1  and  C2_2
REMARK    2  A    between atoms: C4_5  and  C5_7
REMARK    3  A    between atoms: N3_10  and  C7_11
REMARK    4  A    between atoms: C10_14  and  N4_15
REMARK    5  A    between atoms: C11_16  and  C12_18
REMARK    6  A    between atoms: N5_26  and  C20_27
REMARK                            x       y       z     vdW  Elec       q    Type
REMARK                         _______ _______ _______ _____ _____    ______ ____
ROOT
ATOM      1  C1  UNL     1      -0.951  -3.281  -1.863  0.00  0.00    +0.011 C 
ATOM      2  C2  UNL     1      -1.173  -2.111  -0.901  0.00  0.00    +0.025 C 
ATOM      3  C3  UNL     1      -2.603  -1.576  -0.946  0.00  0.00    +0.113 C 
ATOM      4  N1  UNL     1      -2.480  -0.148  -0.693  0.00  0.00    -0.295 N 
ATOM      5  C4  UNL     1      -3.598   0.754  -0.645  0.00  0.00    +0.250 C 
ATOM      6  O1  UNL     1      -3.491   1.908  -1.144  0.00  0.00    -0.270 OA
ATOM      7  C9  UNL     1      -1.102   0.314  -0.768  0.00  0.00    +0.130 C 
ATOM      8  C10 UNL     1      -0.288  -0.896  -1.228  0.00  0.00    +0.095 C 
ENDROOT
BRANCH   5   9
ATOM      9  C5  UNL     1      -4.868   0.372  -0.006  0.00  0.00    +0.074 A 
ATOM     10  C6  UNL     1      -5.053  -0.485   1.064  0.00  0.00    +0.147 A 
ATOM     11  N2  UNL     1      -6.352  -0.471   1.423  0.00  0.00    -0.179 NA
ATOM     12  N3  UNL     1      -6.983   0.358   0.607  0.00  0.00    -0.274 N 
ATOM     13  C7  UNL     1      -8.394   0.699   0.729  0.00  0.00    +0.172 C 
ATOM     14  C8  UNL     1      -6.114   0.907  -0.260  0.00  0.00    +0.121 A 
ENDBRANCH   5   9
BRANCH   8  15
ATOM     15  N4  UNL     1       1.012  -0.957  -0.551  0.00  0.00    -0.307 N 
ATOM     16  C11 UNL     1       2.068  -0.033  -0.857  0.00  0.00    +0.245 C 
ATOM     17  O2  UNL     1       1.882   0.860  -1.729  0.00  0.00    -0.270 OA
ATOM     18  H15 UNL     1       1.170  -1.679   0.186  0.00  0.00    +0.149 HD
BRANCH  16  19
ATOM     19  C12 UNL     1       3.375  -0.118  -0.164  0.00  0.00    +0.046 A 
ATOM     20  C13 UNL     1       3.905  -1.365   0.241  0.00  0.00    +0.014 A 
ATOM     21  C14 UNL     1       5.150  -1.444   0.899  0.00  0.00    +0.003 A 
ATOM     22  C15 UNL     1       5.892  -0.284   1.163  0.00  0.00    +0.026 A 
ATOM     23  C16 UNL     1       5.364   0.940   0.750  0.00  0.00    +0.050 A 
ATOM     24  C17 UNL     1       4.150   1.023   0.108  0.00  0.00    +0.012 A 
ATOM     25  C18 UNL     1       3.908   2.369  -0.119  0.00  0.00    +0.028 A 
ATOM     26  C19 UNL     1       5.007   3.044   0.399  0.00  0.00    +0.086 A 
ATOM     27  N5  UNL     1       5.896   2.167   0.920  0.00  0.00    -0.350 N 
ATOM     28  C20 UNL     1       7.140   2.503   1.602  0.00  0.00    +0.149 C 
ENDBRANCH  16  19
ENDBRANCH   8  15
TORSDOF 3
