REMARK  Name = /home/qwerty/github/datacon2025hack/step_04_hit_selection/docking/ligands/lig_143.pdb
REMARK  3 active torsions:
REMARK  status: ('A' for Active; 'I' for Inactive)
REMARK    1  A    between atoms: C1_2  and  C13_18
REMARK    2  A    between atoms: N1_3  and  C2_4
REMARK    3  A    between atoms: C7_9  and  C8_10
REMARK                            x       y       z     vdW  Elec       q    Type
REMARK                         _______ _______ _______ _____ _____    ______ ____
ROOT
ATOM      1  C2  UNL     1      -1.608  -2.959   0.411  0.00  0.00    +0.043 A 
ATOM      2  C3  UNL     1      -1.616  -4.317   0.762  0.00  0.00    +0.024 A 
ATOM      3  C4  UNL     1      -2.812  -5.036   0.784  0.00  0.00    +0.002 A 
ATOM      4  C5  UNL     1      -4.013  -4.406   0.459  0.00  0.00    +0.001 A 
ATOM      5  C6  UNL     1      -4.026  -3.047   0.136  0.00  0.00    +0.012 A 
ATOM      6  C7  UNL     1      -2.834  -2.301   0.133  0.00  0.00    +0.023 A 
ENDROOT
BRANCH   6   7
ATOM      7  C8  UNL     1      -2.912  -0.845  -0.118  0.00  0.00    +0.092 A 
ATOM      8  C9  UNL     1      -2.152   0.141   0.525  0.00  0.00    +0.121 A 
ATOM      9  N2  UNL     1      -2.558   1.299   0.003  0.00  0.00    -0.300 N 
ATOM     10  C10 UNL     1      -2.266   2.609   0.141  0.00  0.00    +0.100 A 
ATOM     11  C11 UNL     1      -3.055   3.401  -0.706  0.00  0.00    +0.067 A 
ATOM     12  S1  UNL     1      -4.113   2.397  -1.611  0.00  0.00    -0.058 S 
ATOM     13  C12 UNL     1      -3.499   1.025  -0.872  0.00  0.00    +0.178 A 
ATOM     14  N3  UNL     1      -3.786  -0.283  -1.003  0.00  0.00    -0.221 NA
ENDBRANCH   6   7
BRANCH   1  17
ATOM     15  O1  UNL     1      -0.511  -1.827  -1.968  0.00  0.00    -0.269 OA
ATOM     16  C1  UNL     1       0.060  -1.585  -0.871  0.00  0.00    +0.255 C 
ATOM     17  N1  UNL     1      -0.346  -2.281   0.317  0.00  0.00    -0.280 N 
ATOM     18  H1  UNL     1       0.358  -2.443   1.071  0.00  0.00    +0.155 HD
BRANCH  16  19
ATOM     19  C13 UNL     1       1.128  -0.573  -0.822  0.00  0.00    +0.075 A 
ATOM     20  C14 UNL     1       1.740  -0.074   0.326  0.00  0.00    +0.024 A 
ATOM     21  C15 UNL     1       2.673   0.934   0.052  0.00  0.00    -0.036 A 
ATOM     22  C16 UNL     1       2.819   1.199  -1.303  0.00  0.00    -0.006 A 
ATOM     23  S2  UNL     1       1.747   0.237  -2.167  0.00  0.00    -0.088 S 
ATOM     24  C17 UNL     1       3.676   2.293  -1.862  0.00  0.00    +0.043 C 
ATOM     25  C18 UNL     1       4.732   2.736  -0.835  0.00  0.00    +0.005 C 
ATOM     26  C19 UNL     1       4.110   2.931   0.559  0.00  0.00    +0.005 C 
ATOM     27  C20 UNL     1       3.511   1.618   1.096  0.00  0.00    +0.036 C 
ENDBRANCH  16  19
ENDBRANCH   1  17
TORSDOF 3
