MODEL 1
REMARK VINA RESULT:    -6.401      0.000      0.000
REMARK INTER + INTRA:          -8.124
REMARK INTER:                  -7.711
REMARK INTRA:                  -0.413
REMARK UNBOUND:                -0.413
REMARK  Name = /home/qwerty/github/datacon2025hack/step_04_hit_selection/docking/ligands/lig_465.pdb
REMARK  7 active torsions:
REMARK  status: ('A' for Active; 'I' for Inactive)
REMARK    1  A    between atoms: C1_1  and  C2_2
REMARK    2  A    between atoms: C2_2  and  C3_3
REMARK    3  A    between atoms: C2_2  and  N1_4
REMARK    4  A    between atoms: C4_5  and  C5_7
REMARK    5  A    between atoms: C9_15  and  C10_17
REMARK    6  A    between atoms: C13_20  and  O3_21
REMARK    7  A    between atoms: N6_26  and  C18_27
REMARK                            x       y       z     vdW  Elec       q    Type
REMARK                         _______ _______ _______ _____ _____    ______ ____
ROOT
ATOM      1  C5  UNL     1      14.590  13.452  34.495  0.00  0.00    +0.220 A 
ATOM      2  N2  UNL     1      13.652  14.372  34.792  0.00  0.00    -0.123 NA
ATOM      3  N3  UNL     1      12.778  14.378  33.796  0.00  0.00    -0.113 NA
ATOM      4  C6  UNL     1      13.197  13.459  32.906  0.00  0.00    +0.220 A 
ATOM      5  N4  UNL     1      12.500  13.183  31.678  0.00  0.00    -0.297 N 
ATOM      6  C7  UNL     1      11.903  14.304  30.940  0.00  0.00    +0.127 C 
ATOM      7  C8  UNL     1      11.251  13.831  29.640  0.00  0.00    +0.127 C 
ATOM      8  N5  UNL     1      10.390  12.672  29.909  0.00  0.00    -0.295 N 
ATOM      9  C9  UNL     1       9.010  12.696  29.507  0.00  0.00    +0.247 C 
ATOM     10  O2  UNL     1       8.332  13.745  29.684  0.00  0.00    -0.270 OA
ATOM     11  C16 UNL     1      10.882  11.570  30.751  0.00  0.00    +0.127 C 
ATOM     12  C17 UNL     1      12.329  11.803  31.204  0.00  0.00    +0.127 C 
ATOM     13  N6  UNL     1      14.348  12.869  33.299  0.00  0.00    -0.295 N 
ATOM     14  C18 UNL     1      15.210  11.972  32.527  0.00  0.00    +0.154 C 
ENDROOT
BRANCH   9  15
ATOM     15  C10 UNL     1       8.366  11.514  28.894  0.00  0.00    +0.037 A 
ATOM     16  C11 UNL     1       8.589  11.209  27.539  0.00  0.00    +0.016 A 
ATOM     17  C12 UNL     1       7.993  10.084  26.961  0.00  0.00    +0.046 A 
ATOM     18  C13 UNL     1       7.179   9.245  27.728  0.00  0.00    +0.117 A 
ATOM     19  C14 UNL     1       6.966   9.533  29.083  0.00  0.00    +0.046 A 
ATOM     20  C15 UNL     1       7.559  10.657  29.663  0.00  0.00    +0.016 A 
BRANCH  18  21
ATOM     21  O3  UNL     1       6.592   8.128  27.138  0.00  0.00    -0.507 OA
ATOM     22  H15 UNL     1       5.612   7.910  27.275  0.00  0.00    +0.292 HD
ENDBRANCH  18  21
ENDBRANCH   9  15
BRANCH   1  24
ATOM     23  N1  UNL     1      15.887  11.890  36.010  0.00  0.00    -0.306 N 
ATOM     24  C4  UNL     1      15.736  13.171  35.381  0.00  0.00    +0.282 C 
ATOM     25  O1  UNL     1      16.559  14.094  35.623  0.00  0.00    -0.267 OA
ATOM     26  H8  UNL     1      15.055  11.260  36.062  0.00  0.00    +0.149 HD
BRANCH  23  28
ATOM     27  C1  UNL     1      18.149  10.955  35.877  0.00  0.00    +0.027 C 
ATOM     28  C2  UNL     1      17.072  11.537  36.796  0.00  0.00    +0.067 C 
ATOM     29  C3  UNL     1      16.689  10.535  37.888  0.00  0.00    +0.027 C 
ENDBRANCH  23  28
ENDBRANCH   1  24
TORSDOF 4
ENDMDL
MODEL 2
REMARK VINA RESULT:    -6.282     10.041     12.854
REMARK INTER + INTRA:          -7.981
REMARK INTER:                  -7.537
REMARK INTRA:                  -0.444
REMARK UNBOUND:                -0.413
REMARK  Name = /home/qwerty/github/datacon2025hack/step_04_hit_selection/docking/ligands/lig_465.pdb
REMARK  7 active torsions:
REMARK  status: ('A' for Active; 'I' for Inactive)
REMARK    1  A    between atoms: C1_1  and  C2_2
REMARK    2  A    between atoms: C2_2  and  C3_3
REMARK    3  A    between atoms: C2_2  and  N1_4
REMARK    4  A    between atoms: C4_5  and  C5_7
REMARK    5  A    between atoms: C9_15  and  C10_17
REMARK    6  A    between atoms: C13_20  and  O3_21
REMARK    7  A    between atoms: N6_26  and  C18_27
REMARK                            x       y       z     vdW  Elec       q    Type
REMARK                         _______ _______ _______ _____ _____    ______ ____
ROOT
ATOM      1  C5  UNL     1      21.436   7.070  35.173  0.00  0.00    +0.220 A 
ATOM      2  N2  UNL     1      22.672   6.542  35.287  0.00  0.00    -0.123 NA
ATOM      3  N3  UNL     1      22.735   5.510  34.459  0.00  0.00    -0.113 NA
ATOM      4  C6  UNL     1      21.537   5.424  33.852  0.00  0.00    +0.220 A 
ATOM      5  N4  UNL     1      21.222   4.411  32.881  0.00  0.00    -0.297 N 
ATOM      6  C7  UNL     1      21.733   3.050  33.092  0.00  0.00    +0.127 C 
ATOM      7  C8  UNL     1      21.258   2.099  31.991  0.00  0.00    +0.127 C 
ATOM      8  N5  UNL     1      21.494   2.706  30.675  0.00  0.00    -0.295 N 
ATOM      9  C9  UNL     1      22.251   1.993  29.682  0.00  0.00    +0.247 C 
ATOM     10  O2  UNL     1      23.294   1.373  30.027  0.00  0.00    -0.270 OA
ATOM     11  C16 UNL     1      21.123   4.110  30.435  0.00  0.00    +0.127 C 
ATOM     12  C17 UNL     1      20.463   4.742  31.667  0.00  0.00    +0.127 C 
ATOM     13  N6  UNL     1      20.683   6.375  34.291  0.00  0.00    -0.295 N 
ATOM     14  C18 UNL     1      19.249   6.494  34.021  0.00  0.00    +0.154 C 
ENDROOT
BRANCH   9  15
ATOM     15  C10 UNL     1      21.834   1.975  28.263  0.00  0.00    +0.037 A 
ATOM     16  C11 UNL     1      22.522   2.750  27.312  0.00  0.00    +0.016 A 
ATOM     17  C12 UNL     1      22.139   2.724  25.968  0.00  0.00    +0.046 A 
ATOM     18  C13 UNL     1      21.075   1.916  25.555  0.00  0.00    +0.117 A 
ATOM     19  C14 UNL     1      20.397   1.127  26.493  0.00  0.00    +0.046 A 
ATOM     20  C15 UNL     1      20.776   1.153  27.838  0.00  0.00    +0.016 A 
BRANCH  18  21
ATOM     21  O3  UNL     1      20.705   1.900  24.212  0.00  0.00    -0.507 OA
ATOM     22  H15 UNL     1      21.112   1.242  23.558  0.00  0.00    +0.292 HD
ENDBRANCH  18  21
ENDBRANCH   9  15
BRANCH   1  24
ATOM     23  N1  UNL     1      20.736   9.500  35.318  0.00  0.00    -0.306 N 
ATOM     24  C4  UNL     1      20.999   8.241  35.956  0.00  0.00    +0.282 C 
ATOM     25  O1  UNL     1      20.908   8.137  37.209  0.00  0.00    -0.267 OA
ATOM     26  H8  UNL     1      21.117   9.660  34.358  0.00  0.00    +0.149 HD
BRANCH  23  28
ATOM     27  C1  UNL     1      18.656  10.557  36.070  0.00  0.00    +0.027 C 
ATOM     28  C2  UNL     1      20.184  10.646  36.043  0.00  0.00    +0.067 C 
ATOM     29  C3  UNL     1      20.641  11.948  35.380  0.00  0.00    +0.027 C 
ENDBRANCH  23  28
ENDBRANCH   1  24
TORSDOF 4
ENDMDL
MODEL 3
REMARK VINA RESULT:    -6.273     13.778     15.437
REMARK INTER + INTRA:          -7.970
REMARK INTER:                  -7.593
REMARK INTRA:                  -0.377
REMARK UNBOUND:                -0.413
REMARK  Name = /home/qwerty/github/datacon2025hack/step_04_hit_selection/docking/ligands/lig_465.pdb
REMARK  7 active torsions:
REMARK  status: ('A' for Active; 'I' for Inactive)
REMARK    1  A    between atoms: C1_1  and  C2_2
REMARK    2  A    between atoms: C2_2  and  C3_3
REMARK    3  A    between atoms: C2_2  and  N1_4
REMARK    4  A    between atoms: C4_5  and  C5_7
REMARK    5  A    between atoms: C9_15  and  C10_17
REMARK    6  A    between atoms: C13_20  and  O3_21
REMARK    7  A    between atoms: N6_26  and  C18_27
REMARK                            x       y       z     vdW  Elec       q    Type
REMARK                         _______ _______ _______ _____ _____    ______ ____
ROOT
ATOM      1  C5  UNL     1      21.446   1.899  28.096  0.00  0.00    +0.220 A 
ATOM      2  N2  UNL     1      21.316   1.050  27.057  0.00  0.00    -0.123 NA
ATOM      3  N3  UNL     1      21.201   1.784  25.961  0.00  0.00    -0.113 NA
ATOM      4  C6  UNL     1      21.264   3.072  26.348  0.00  0.00    +0.220 A 
ATOM      5  N4  UNL     1      21.167   4.173  25.427  0.00  0.00    -0.297 N 
ATOM      6  C7  UNL     1      20.223   4.072  24.306  0.00  0.00    +0.127 C 
ATOM      7  C8  UNL     1      20.218   5.349  23.464  0.00  0.00    +0.127 C 
ATOM      8  N5  UNL     1      21.598   5.738  23.144  0.00  0.00    -0.295 N 
ATOM      9  C9  UNL     1      21.986   5.942  21.775  0.00  0.00    +0.247 C 
ATOM     10  O2  UNL     1      21.585   5.135  20.891  0.00  0.00    -0.270 OA
ATOM     11  C16 UNL     1      22.626   5.735  24.198  0.00  0.00    +0.127 C 
ATOM     12  C17 UNL     1      22.042   5.346  25.561  0.00  0.00    +0.127 C 
ATOM     13  N6  UNL     1      21.396   3.187  27.688  0.00  0.00    -0.295 N 
ATOM     14  C18 UNL     1      21.307   4.400  28.502  0.00  0.00    +0.154 C 
ENDROOT
BRANCH   9  15
ATOM     15  C10 UNL     1      22.850   7.076  21.381  0.00  0.00    +0.037 A 
ATOM     16  C11 UNL     1      24.246   6.917  21.321  0.00  0.00    +0.016 A 
ATOM     17  C12 UNL     1      25.063   7.984  20.935  0.00  0.00    +0.046 A 
ATOM     18  C13 UNL     1      24.498   9.216  20.592  0.00  0.00    +0.117 A 
ATOM     19  C14 UNL     1      23.107   9.377  20.632  0.00  0.00    +0.046 A 
ATOM     20  C15 UNL     1      22.288   8.313  21.019  0.00  0.00    +0.016 A 
BRANCH  18  21
ATOM     21  O3  UNL     1      25.326  10.269  20.210  0.00  0.00    -0.507 OA
ATOM     22  H15 UNL     1      24.947  11.132  19.837  0.00  0.00    +0.292 HD
ENDBRANCH  18  21
ENDBRANCH   9  15
BRANCH   1  24
ATOM     23  N1  UNL     1      20.468   1.393  30.377  0.00  0.00    -0.306 N 
ATOM     24  C4  UNL     1      21.594   1.433  29.488  0.00  0.00    +0.282 C 
ATOM     25  O1  UNL     1      22.740   1.118  29.906  0.00  0.00    -0.267 OA
ATOM     26  H8  UNL     1      19.617   1.947  30.128  0.00  0.00    +0.149 HD
BRANCH  23  28
ATOM     27  C1  UNL     1      19.269   0.051  32.040  0.00  0.00    +0.027 C 
ATOM     28  C2  UNL     1      20.551   0.823  31.723  0.00  0.00    +0.067 C 
ATOM     29  C3  UNL     1      20.781   1.939  32.745  0.00  0.00    +0.027 C 
ENDBRANCH  23  28
ENDBRANCH   1  24
TORSDOF 4
ENDMDL
MODEL 4
REMARK VINA RESULT:    -6.242      5.733     11.348
REMARK INTER + INTRA:          -7.932
REMARK INTER:                  -7.781
REMARK INTRA:                  -0.151
REMARK UNBOUND:                -0.413
REMARK  Name = /home/qwerty/github/datacon2025hack/step_04_hit_selection/docking/ligands/lig_465.pdb
REMARK  7 active torsions:
REMARK  status: ('A' for Active; 'I' for Inactive)
REMARK    1  A    between atoms: C1_1  and  C2_2
REMARK    2  A    between atoms: C2_2  and  C3_3
REMARK    3  A    between atoms: C2_2  and  N1_4
REMARK    4  A    between atoms: C4_5  and  C5_7
REMARK    5  A    between atoms: C9_15  and  C10_17
REMARK    6  A    between atoms: C13_20  and  O3_21
REMARK    7  A    between atoms: N6_26  and  C18_27
REMARK                            x       y       z     vdW  Elec       q    Type
REMARK                         _______ _______ _______ _____ _____    ______ ____
ROOT
ATOM      1  C5  UNL     1       9.066   7.254  22.338  0.00  0.00    +0.220 A 
ATOM      2  N2  UNL     1       8.053   8.096  22.055  0.00  0.00    -0.123 NA
ATOM      3  N3  UNL     1       7.913   8.905  23.094  0.00  0.00    -0.113 NA
ATOM      4  C6  UNL     1       8.845   8.544  23.996  0.00  0.00    +0.220 A 
ATOM      5  N4  UNL     1       8.997   9.197  25.269  0.00  0.00    -0.297 N 
ATOM      6  C7  UNL     1       7.790   9.619  25.993  0.00  0.00    +0.127 C 
ATOM      7  C8  UNL     1       8.141  10.246  27.344  0.00  0.00    +0.127 C 
ATOM      8  N5  UNL     1       9.200  11.248  27.167  0.00  0.00    -0.295 N 
ATOM      9  C9  UNL     1       9.002  12.591  27.639  0.00  0.00    +0.247 C 
ATOM     10  O2  UNL     1       7.888  13.153  27.457  0.00  0.00    -0.270 OA
ATOM     11  C16 UNL     1      10.379  10.934  26.343  0.00  0.00    +0.127 C 
ATOM     12  C17 UNL     1      10.332   9.498  25.806  0.00  0.00    +0.127 C 
ATOM     13  N6  UNL     1       9.577   7.493  23.567  0.00  0.00    -0.295 N 
ATOM     14  C18 UNL     1      10.543   6.697  24.326  0.00  0.00    +0.154 C 
ENDROOT
BRANCH   9  15
ATOM     15  C10 UNL     1      10.081  13.330  28.332  0.00  0.00    +0.037 A 
ATOM     16  C11 UNL     1      10.909  14.212  27.615  0.00  0.00    +0.016 A 
ATOM     17  C12 UNL     1      11.919  14.921  28.271  0.00  0.00    +0.046 A 
ATOM     18  C13 UNL     1      12.108  14.770  29.648  0.00  0.00    +0.117 A 
ATOM     19  C14 UNL     1      11.275  13.906  30.371  0.00  0.00    +0.046 A 
ATOM     20  C15 UNL     1      10.265  13.194  29.719  0.00  0.00    +0.016 A 
BRANCH  18  21
ATOM     21  O3  UNL     1      13.119  15.484  30.286  0.00  0.00    -0.507 OA
ATOM     22  H15 UNL     1      13.044  15.752  31.261  0.00  0.00    +0.292 HD
ENDBRANCH  18  21
ENDBRANCH   9  15
BRANCH   1  24
ATOM     23  N1  UNL     1      10.902   5.956  21.172  0.00  0.00    -0.306 N 
ATOM     24  C4  UNL     1       9.507   6.201  21.404  0.00  0.00    +0.282 C 
ATOM     25  O1  UNL     1       8.637   5.548  20.768  0.00  0.00    -0.267 OA
ATOM     26  H8  UNL     1      11.589   6.694  21.444  0.00  0.00    +0.149 HD
BRANCH  23  28
ATOM     27  C1  UNL     1      11.238   3.529  21.122  0.00  0.00    +0.027 C 
ATOM     28  C2  UNL     1      11.376   4.842  20.348  0.00  0.00    +0.067 C 
ATOM     29  C3  UNL     1      12.832   5.082  19.939  0.00  0.00    +0.027 C 
ENDBRANCH  23  28
ENDBRANCH   1  24
TORSDOF 4
ENDMDL
MODEL 5
REMARK VINA RESULT:    -6.215     12.949     16.709
REMARK INTER + INTRA:          -7.899
REMARK INTER:                  -7.549
REMARK INTRA:                  -0.350
REMARK UNBOUND:                -0.413
REMARK  Name = /home/qwerty/github/datacon2025hack/step_04_hit_selection/docking/ligands/lig_465.pdb
REMARK  7 active torsions:
REMARK  status: ('A' for Active; 'I' for Inactive)
REMARK    1  A    between atoms: C1_1  and  C2_2
REMARK    2  A    between atoms: C2_2  and  C3_3
REMARK    3  A    between atoms: C2_2  and  N1_4
REMARK    4  A    between atoms: C4_5  and  C5_7
REMARK    5  A    between atoms: C9_15  and  C10_17
REMARK    6  A    between atoms: C13_20  and  O3_21
REMARK    7  A    between atoms: N6_26  and  C18_27
REMARK                            x       y       z     vdW  Elec       q    Type
REMARK                         _______ _______ _______ _____ _____    ______ ____
ROOT
ATOM      1  C5  UNL     1      16.219   0.647  22.986  0.00  0.00    +0.220 A 
ATOM      2  N2  UNL     1      17.059  -0.394  22.815  0.00  0.00    -0.123 NA
ATOM      3  N3  UNL     1      18.050  -0.243  23.681  0.00  0.00    -0.113 NA
ATOM      4  C6  UNL     1      17.799   0.887  24.367  0.00  0.00    +0.220 A 
ATOM      5  N4  UNL     1      18.668   1.386  25.400  0.00  0.00    -0.297 N 
ATOM      6  C7  UNL     1      20.121   1.270  25.214  0.00  0.00    +0.127 C 
ATOM      7  C8  UNL     1      20.883   1.897  26.384  0.00  0.00    +0.127 C 
ATOM      8  N5  UNL     1      20.329   1.413  27.655  0.00  0.00    -0.295 N 
ATOM      9  C9  UNL     1      21.194   0.800  28.626  0.00  0.00    +0.247 C 
ATOM     10  O2  UNL     1      22.078  -0.014  28.242  0.00  0.00    -0.270 OA
ATOM     11  C16 UNL     1      18.872   1.380  27.857  0.00  0.00    +0.127 C 
ATOM     12  C17 UNL     1      18.117   1.939  26.645  0.00  0.00    +0.127 C 
ATOM     13  N6  UNL     1      16.666   1.489  23.944  0.00  0.00    -0.295 N 
ATOM     14  C18 UNL     1      16.162   2.817  24.301  0.00  0.00    +0.154 C 
ENDROOT
BRANCH   9  15
ATOM     15  C10 UNL     1      21.066   1.101  30.069  0.00  0.00    +0.037 A 
ATOM     16  C11 UNL     1      20.373   0.219  30.918  0.00  0.00    +0.016 A 
ATOM     17  C12 UNL     1      20.263   0.495  32.284  0.00  0.00    +0.046 A 
ATOM     18  C13 UNL     1      20.851   1.643  32.821  0.00  0.00    +0.117 A 
ATOM     19  C14 UNL     1      21.558   2.517  31.984  0.00  0.00    +0.046 A 
ATOM     20  C15 UNL     1      21.669   2.246  30.618  0.00  0.00    +0.016 A 
BRANCH  18  21
ATOM     21  O3  UNL     1      20.733   1.904  34.184  0.00  0.00    -0.507 OA
ATOM     22  H15 UNL     1      21.412   1.556  34.851  0.00  0.00    +0.292 HD
ENDBRANCH  18  21
ENDBRANCH   9  15
BRANCH   1  24
ATOM     23  N1  UNL     1      13.705   0.904  22.811  0.00  0.00    -0.306 N 
ATOM     24  C4  UNL     1      14.993   0.816  22.183  0.00  0.00    +0.282 C 
ATOM     25  O1  UNL     1      15.084   0.830  20.926  0.00  0.00    -0.267 OA
ATOM     26  H8  UNL     1      13.609   0.573  23.798  0.00  0.00    +0.149 HD
BRANCH  23  28
ATOM     27  C1  UNL     1      12.354   2.702  21.838  0.00  0.00    +0.027 C 
ATOM     28  C2  UNL     1      12.483   1.193  22.057  0.00  0.00    +0.067 C 
ATOM     29  C3  UNL     1      11.268   0.648  22.811  0.00  0.00    +0.027 C 
ENDBRANCH  23  28
ENDBRANCH   1  24
TORSDOF 4
ENDMDL
MODEL 6
REMARK VINA RESULT:    -6.212     12.756     15.916
REMARK INTER + INTRA:          -7.896
REMARK INTER:                  -7.496
REMARK INTRA:                  -0.400
REMARK UNBOUND:                -0.413
REMARK  Name = /home/qwerty/github/datacon2025hack/step_04_hit_selection/docking/ligands/lig_465.pdb
REMARK  7 active torsions:
REMARK  status: ('A' for Active; 'I' for Inactive)
REMARK    1  A    between atoms: C1_1  and  C2_2
REMARK    2  A    between atoms: C2_2  and  C3_3
REMARK    3  A    between atoms: C2_2  and  N1_4
REMARK    4  A    between atoms: C4_5  and  C5_7
REMARK    5  A    between atoms: C9_15  and  C10_17
REMARK    6  A    between atoms: C13_20  and  O3_21
REMARK    7  A    between atoms: N6_26  and  C18_27
REMARK                            x       y       z     vdW  Elec       q    Type
REMARK                         _______ _______ _______ _____ _____    ______ ____
ROOT
ATOM      1  C5  UNL     1      19.091   5.295  22.693  0.00  0.00    +0.220 A 
ATOM      2  N2  UNL     1      19.240   4.016  22.294  0.00  0.00    -0.123 NA
ATOM      3  N3  UNL     1      19.898   3.380  23.252  0.00  0.00    -0.113 NA
ATOM      4  C6  UNL     1      20.140   4.281  24.222  0.00  0.00    +0.220 A 
ATOM      5  N4  UNL     1      20.848   3.959  25.432  0.00  0.00    -0.297 N 
ATOM      6  C7  UNL     1      21.994   3.043  25.354  0.00  0.00    +0.127 C 
ATOM      7  C8  UNL     1      22.652   2.857  26.723  0.00  0.00    +0.127 C 
ATOM      8  N5  UNL     1      21.626   2.562  27.732  0.00  0.00    -0.295 N 
ATOM      9  C9  UNL     1      21.741   1.384  28.548  0.00  0.00    +0.247 C 
ATOM     10  O2  UNL     1      22.102   0.297  28.018  0.00  0.00    -0.270 OA
ATOM     11  C16 UNL     1      20.392   3.362  27.780  0.00  0.00    +0.127 C 
ATOM     12  C17 UNL     1      20.396   4.479  26.730  0.00  0.00    +0.127 C 
ATOM     13  N6  UNL     1      19.667   5.505  23.898  0.00  0.00    -0.295 N 
ATOM     14  C18 UNL     1      19.898   6.773  24.592  0.00  0.00    +0.154 C 
ENDROOT
BRANCH   9  15
ATOM     15  C10 UNL     1      21.440   1.418  29.996  0.00  0.00    +0.037 A 
ATOM     16  C11 UNL     1      21.951   2.451  30.801  0.00  0.00    +0.016 A 
ATOM     17  C12 UNL     1      21.656   2.493  32.167  0.00  0.00    +0.046 A 
ATOM     18  C13 UNL     1      20.840   1.515  32.742  0.00  0.00    +0.117 A 
ATOM     19  C14 UNL     1      20.313   0.492  31.942  0.00  0.00    +0.046 A 
ATOM     20  C15 UNL     1      20.607   0.446  30.577  0.00  0.00    +0.016 A 
BRANCH  18  21
ATOM     21  O3  UNL     1      20.555   1.570  34.105  0.00  0.00    -0.507 OA
ATOM     22  H15 UNL     1      21.274   1.416  34.803  0.00  0.00    +0.292 HD
ENDBRANCH  18  21
ENDBRANCH   9  15
BRANCH   1  24
ATOM     23  N1  UNL     1      19.011   6.829  20.679  0.00  0.00    -0.306 N 
ATOM     24  C4  UNL     1      18.403   6.307  21.870  0.00  0.00    +0.282 C 
ATOM     25  O1  UNL     1      17.289   6.751  22.257  0.00  0.00    -0.267 OA
ATOM     26  H8  UNL     1      20.040   6.701  20.549  0.00  0.00    +0.149 HD
BRANCH  23  28
ATOM     27  C1  UNL     1      17.666   6.948  18.634  0.00  0.00    +0.027 C 
ATOM     28  C2  UNL     1      18.308   7.741  19.774  0.00  0.00    +0.067 C 
ATOM     29  C3  UNL     1      19.285   8.785  19.229  0.00  0.00    +0.027 C 
ENDBRANCH  23  28
ENDBRANCH   1  24
TORSDOF 4
ENDMDL
MODEL 7
REMARK VINA RESULT:    -6.207      2.161      9.773
REMARK INTER + INTRA:          -7.889
REMARK INTER:                  -7.425
REMARK INTRA:                  -0.464
REMARK UNBOUND:                -0.413
REMARK  Name = /home/qwerty/github/datacon2025hack/step_04_hit_selection/docking/ligands/lig_465.pdb
REMARK  7 active torsions:
REMARK  status: ('A' for Active; 'I' for Inactive)
REMARK    1  A    between atoms: C1_1  and  C2_2
REMARK    2  A    between atoms: C2_2  and  C3_3
REMARK    3  A    between atoms: C2_2  and  N1_4
REMARK    4  A    between atoms: C4_5  and  C5_7
REMARK    5  A    between atoms: C9_15  and  C10_17
REMARK    6  A    between atoms: C13_20  and  O3_21
REMARK    7  A    between atoms: N6_26  and  C18_27
REMARK                            x       y       z     vdW  Elec       q    Type
REMARK                         _______ _______ _______ _____ _____    ______ ____
ROOT
ATOM      1  C5  UNL     1      11.705  13.508  30.333  0.00  0.00    +0.220 A 
ATOM      2  N2  UNL     1      12.282  14.692  30.620  0.00  0.00    -0.123 NA
ATOM      3  N3  UNL     1      12.832  14.580  31.820  0.00  0.00    -0.113 NA
ATOM      4  C6  UNL     1      12.583  13.328  32.246  0.00  0.00    +0.220 A 
ATOM      5  N4  UNL     1      13.022  12.833  33.524  0.00  0.00    -0.297 N 
ATOM      6  C7  UNL     1      12.975  13.735  34.682  0.00  0.00    +0.127 C 
ATOM      7  C8  UNL     1      13.429  13.027  35.960  0.00  0.00    +0.127 C 
ATOM      8  N5  UNL     1      14.693  12.320  35.713  0.00  0.00    -0.295 N 
ATOM      9  C9  UNL     1      15.832  12.573  36.553  0.00  0.00    +0.247 C 
ATOM     10  O2  UNL     1      16.099  13.759  36.892  0.00  0.00    -0.270 OA
ATOM     11  C16 UNL     1      14.853  11.501  34.501  0.00  0.00    +0.127 C 
ATOM     12  C17 UNL     1      13.572  11.477  33.658  0.00  0.00    +0.127 C 
ATOM     13  N6  UNL     1      11.856  12.628  31.348  0.00  0.00    -0.295 N 
ATOM     14  C18 UNL     1      11.227  11.317  31.522  0.00  0.00    +0.154 C 
ENDROOT
BRANCH   9  15
ATOM     15  C10 UNL     1      16.701  11.472  37.024  0.00  0.00    +0.037 A 
ATOM     16  C11 UNL     1      16.153  10.395  37.742  0.00  0.00    +0.016 A 
ATOM     17  C12 UNL     1      16.970   9.347  38.176  0.00  0.00    +0.046 A 
ATOM     18  C13 UNL     1      18.338   9.355  37.889  0.00  0.00    +0.117 A 
ATOM     19  C14 UNL     1      18.888  10.417  37.159  0.00  0.00    +0.046 A 
ATOM     20  C15 UNL     1      18.075  11.467  36.725  0.00  0.00    +0.016 A 
BRANCH  18  21
ATOM     21  O3  UNL     1      19.139   8.303  38.329  0.00  0.00    -0.507 OA
ATOM     22  H15 UNL     1      20.052   8.467  38.737  0.00  0.00    +0.292 HD
ENDBRANCH  18  21
ENDBRANCH   9  15
BRANCH   1  24
ATOM     23  N1  UNL     1       9.553  13.336  29.007  0.00  0.00    -0.306 N 
ATOM     24  C4  UNL     1      10.985  13.262  29.069  0.00  0.00    +0.282 C 
ATOM     25  O1  UNL     1      11.645  12.932  28.047  0.00  0.00    -0.267 OA
ATOM     26  H8  UNL     1       9.014  13.288  29.901  0.00  0.00    +0.149 HD
BRANCH  23  28
ATOM     27  C1  UNL     1       7.653  14.213  27.733  0.00  0.00    +0.027 C 
ATOM     28  C2  UNL     1       8.815  13.218  27.748  0.00  0.00    +0.067 C 
ATOM     29  C3  UNL     1       8.307  11.785  27.577  0.00  0.00    +0.027 C 
ENDBRANCH  23  28
ENDBRANCH   1  24
TORSDOF 4
ENDMDL
MODEL 8
REMARK VINA RESULT:    -6.164      9.904     13.631
REMARK INTER + INTRA:          -7.838
REMARK INTER:                  -7.375
REMARK INTRA:                  -0.463
REMARK UNBOUND:                -0.413
REMARK  Name = /home/qwerty/github/datacon2025hack/step_04_hit_selection/docking/ligands/lig_465.pdb
REMARK  7 active torsions:
REMARK  status: ('A' for Active; 'I' for Inactive)
REMARK    1  A    between atoms: C1_1  and  C2_2
REMARK    2  A    between atoms: C2_2  and  C3_3
REMARK    3  A    between atoms: C2_2  and  N1_4
REMARK    4  A    between atoms: C4_5  and  C5_7
REMARK    5  A    between atoms: C9_15  and  C10_17
REMARK    6  A    between atoms: C13_20  and  O3_21
REMARK    7  A    between atoms: N6_26  and  C18_27
REMARK                            x       y       z     vdW  Elec       q    Type
REMARK                         _______ _______ _______ _____ _____    ______ ____
ROOT
ATOM      1  C5  UNL     1      20.954   2.431  31.938  0.00  0.00    +0.220 A 
ATOM      2  N2  UNL     1      21.023   2.009  33.216  0.00  0.00    -0.123 NA
ATOM      3  N3  UNL     1      21.222   3.078  33.972  0.00  0.00    -0.113 NA
ATOM      4  C6  UNL     1      21.270   4.137  33.143  0.00  0.00    +0.220 A 
ATOM      5  N4  UNL     1      21.481   5.483  33.603  0.00  0.00    -0.297 N 
ATOM      6  C7  UNL     1      22.430   5.711  34.702  0.00  0.00    +0.127 C 
ATOM      7  C8  UNL     1      22.565   7.201  35.022  0.00  0.00    +0.127 C 
ATOM      8  N5  UNL     1      21.232   7.803  35.153  0.00  0.00    -0.295 N 
ATOM      9  C9  UNL     1      20.885   8.525  36.347  0.00  0.00    +0.247 C 
ATOM     10  O2  UNL     1      21.225   8.062  37.471  0.00  0.00    -0.270 OA
ATOM     11  C16 UNL     1      20.191   7.511  34.154  0.00  0.00    +0.127 C 
ATOM     12  C17 UNL     1      20.716   6.602  33.036  0.00  0.00    +0.127 C 
ATOM     13  N6  UNL     1      21.128   3.769  31.851  0.00  0.00    -0.295 N 
ATOM     14  C18 UNL     1      21.314   4.590  30.653  0.00  0.00    +0.154 C 
ENDROOT
BRANCH   9  15
ATOM     15  C10 UNL     1      20.135   9.799  36.287  0.00  0.00    +0.037 A 
ATOM     16  C11 UNL     1      20.699  10.924  35.660  0.00  0.00    +0.016 A 
ATOM     17  C12 UNL     1      19.985  12.124  35.590  0.00  0.00    +0.046 A 
ATOM     18  C13 UNL     1      18.700  12.213  36.131  0.00  0.00    +0.117 A 
ATOM     19  C14 UNL     1      18.125  11.091  36.741  0.00  0.00    +0.046 A 
ATOM     20  C15 UNL     1      18.835   9.890  36.815  0.00  0.00    +0.016 A 
BRANCH  18  21
ATOM     21  O3  UNL     1      18.002  13.416  36.053  0.00  0.00    -0.507 OA
ATOM     22  H15 UNL     1      17.204  13.527  35.437  0.00  0.00    +0.292 HD
ENDBRANCH  18  21
ENDBRANCH   9  15
BRANCH   1  24
ATOM     23  N1  UNL     1      21.844   1.057  30.005  0.00  0.00    -0.306 N 
ATOM     24  C4  UNL     1      20.743   1.507  30.807  0.00  0.00    +0.282 C 
ATOM     25  O1  UNL     1      19.567   1.155  30.520  0.00  0.00    -0.267 OA
ATOM     26  H8  UNL     1      22.741   1.592  30.045  0.00  0.00    +0.149 HD
BRANCH  23  28
ATOM     27  C1  UNL     1      22.931  -0.845  28.906  0.00  0.00    +0.027 C 
ATOM     28  C2  UNL     1      21.689   0.047  28.955  0.00  0.00    +0.067 C 
ATOM     29  C3  UNL     1      21.459   0.733  27.607  0.00  0.00    +0.027 C 
ENDBRANCH  23  28
ENDBRANCH   1  24
TORSDOF 4
ENDMDL
MODEL 9
REMARK VINA RESULT:    -6.044     13.062     14.019
REMARK INTER + INTRA:          -7.693
REMARK INTER:                  -7.228
REMARK INTRA:                  -0.465
REMARK UNBOUND:                -0.413
REMARK  Name = /home/qwerty/github/datacon2025hack/step_04_hit_selection/docking/ligands/lig_465.pdb
REMARK  7 active torsions:
REMARK  status: ('A' for Active; 'I' for Inactive)
REMARK    1  A    between atoms: C1_1  and  C2_2
REMARK    2  A    between atoms: C2_2  and  C3_3
REMARK    3  A    between atoms: C2_2  and  N1_4
REMARK    4  A    between atoms: C4_5  and  C5_7
REMARK    5  A    between atoms: C9_15  and  C10_17
REMARK    6  A    between atoms: C13_20  and  O3_21
REMARK    7  A    between atoms: N6_26  and  C18_27
REMARK                            x       y       z     vdW  Elec       q    Type
REMARK                         _______ _______ _______ _____ _____    ______ ____
ROOT
ATOM      1  C5  UNL     1      20.267   1.862  26.098  0.00  0.00    +0.220 A 
ATOM      2  N2  UNL     1      20.668   1.900  24.811  0.00  0.00    -0.123 NA
ATOM      3  N3  UNL     1      19.639   1.520  24.068  0.00  0.00    -0.113 NA
ATOM      4  C6  UNL     1      18.625   1.257  24.914  0.00  0.00    +0.220 A 
ATOM      5  N4  UNL     1      17.332   0.807  24.471  0.00  0.00    -0.297 N 
ATOM      6  C7  UNL     1      17.262  -0.144  23.354  0.00  0.00    +0.127 C 
ATOM      7  C8  UNL     1      15.817  -0.548  23.056  0.00  0.00    +0.127 C 
ATOM      8  N5  UNL     1      14.974   0.651  22.967  0.00  0.00    -0.295 N 
ATOM      9  C9  UNL     1      14.176   0.881  21.794  0.00  0.00    +0.247 C 
ATOM     10  O2  UNL     1      14.671   0.657  20.655  0.00  0.00    -0.270 OA
ATOM     11  C16 UNL     1      15.088   1.707  23.986  0.00  0.00    +0.127 C 
ATOM     12  C17 UNL     1      16.102   1.338  25.076  0.00  0.00    +0.127 C 
ATOM     13  N6  UNL     1      18.987   1.439  26.203  0.00  0.00    -0.295 N 
ATOM     14  C18 UNL     1      18.240   1.078  27.409  0.00  0.00    +0.154 C 
ENDROOT
BRANCH   9  15
ATOM     15  C10 UNL     1      12.786   1.379  21.894  0.00  0.00    +0.037 A 
ATOM     16  C11 UNL     1      12.427   2.603  21.302  0.00  0.00    +0.016 A 
ATOM     17  C12 UNL     1      11.112   3.067  21.383  0.00  0.00    +0.046 A 
ATOM     18  C13 UNL     1      10.137   2.314  22.043  0.00  0.00    +0.117 A 
ATOM     19  C14 UNL     1      10.483   1.085  22.620  0.00  0.00    +0.046 A 
ATOM     20  C15 UNL     1      11.798   0.618  22.542  0.00  0.00    +0.016 A 
BRANCH  18  21
ATOM     21  O3  UNL     1       8.830   2.790  22.116  0.00  0.00    -0.507 OA
ATOM     22  H15 UNL     1       8.423   3.337  21.366  0.00  0.00    +0.292 HD
ENDBRANCH  18  21
ENDBRANCH   9  15
BRANCH   1  24
ATOM     23  N1  UNL     1      21.767   1.204  28.030  0.00  0.00    -0.306 N 
ATOM     24  C4  UNL     1      21.159   2.219  27.217  0.00  0.00    +0.282 C 
ATOM     25  O1  UNL     1      21.341   3.437  27.486  0.00  0.00    -0.267 OA
ATOM     26  H8  UNL     1      21.365   0.240  28.006  0.00  0.00    +0.149 HD
BRANCH  23  28
ATOM     27  C1  UNL     1      23.876   0.479  29.047  0.00  0.00    +0.027 C 
ATOM     28  C2  UNL     1      22.752   1.517  29.068  0.00  0.00    +0.067 C 
ATOM     29  C3  UNL     1      22.068   1.549  30.437  0.00  0.00    +0.027 C 
ENDBRANCH  23  28
ENDBRANCH   1  24
TORSDOF 4
ENDMDL
