MODEL 1
REMARK VINA RESULT:    -6.798      0.000      0.000
REMARK INTER + INTRA:          -9.215
REMARK INTER:                  -8.388
REMARK INTRA:                  -0.827
REMARK UNBOUND:                -0.827
REMARK  Name = /home/qwerty/github/datacon2025hack/step_04_hit_selection/docking/ligands/lig_80.pdb
REMARK  6 active torsions:
REMARK  status: ('A' for Active; 'I' for Inactive)
REMARK    1  A    between atoms: C1_1  and  C2_2
REMARK    2  A    between atoms: C4_4  and  C5_5
REMARK    3  A    between atoms: N1_6  and  C6_7
REMARK    4  A    between atoms: C9_10  and  N2_11
REMARK    5  A    between atoms: C10_12  and  C11_14
REMARK    6  A    between atoms: C14_17  and  C15_18
REMARK                            x       y       z     vdW  Elec       q    Type
REMARK                         _______ _______ _______ _____ _____    ______ ____
ROOT
ATOM      1  N2  UNL     1      20.694   3.757  28.298  0.00  0.00    -0.282 N 
ATOM      2  C10 UNL     1      19.788   2.651  28.476  0.00  0.00    +0.248 C 
ATOM      3  O1  UNL     1      19.378   2.006  27.473  0.00  0.00    -0.270 OA
ATOM      4  H10 UNL     1      21.129   4.200  29.136  0.00  0.00    +0.155 HD
ENDROOT
BRANCH   1   8
ATOM      5  C6  UNL     1      21.825   5.246  24.474  0.00  0.00    +0.066 A 
ATOM      6  C7  UNL     1      20.694   5.747  25.134  0.00  0.00    +0.029 A 
ATOM      7  C8  UNL     1      20.335   5.257  26.393  0.00  0.00    +0.025 A 
ATOM      8  C9  UNL     1      21.100   4.260  27.014  0.00  0.00    +0.034 A 
ATOM      9  C23 UNL     1      22.207   3.726  26.333  0.00  0.00    +0.025 A 
ATOM     10  C24 UNL     1      22.566   4.215  25.074  0.00  0.00    +0.029 A 
BRANCH   5  16
ATOM     11  C1  UNL     1      24.252   7.724  21.012  0.00  0.00    +0.067 C 
ATOM     12  C2  UNL     1      23.220   6.855  21.649  0.00  0.00    +0.061 A 
ATOM     13  C3  UNL     1      22.261   6.119  20.980  0.00  0.00    +0.047 A 
ATOM     14  C4  UNL     1      21.616   5.419  21.980  0.00  0.00    +0.042 A 
ATOM     15  C5  UNL     1      20.514   4.428  21.760  0.00  0.00    +0.066 C 
ATOM     16  N1  UNL     1      22.172   5.746  23.170  0.00  0.00    -0.237 N 
ATOM     17  N6  UNL     1      23.162   6.600  22.970  0.00  0.00    -0.171 NA
ENDBRANCH   5  16
ENDBRANCH   1   8
BRANCH   2  18
ATOM     18  C11 UNL     1      19.327   2.244  29.825  0.00  0.00    +0.037 A 
ATOM     19  C12 UNL     1      19.735   1.030  30.406  0.00  0.00    +0.014 A 
ATOM     20  C13 UNL     1      19.283   0.664  31.676  0.00  0.00    +0.012 A 
ATOM     21  C14 UNL     1      18.407   1.496  32.396  0.00  0.00    +0.017 A 
ATOM     22  C21 UNL     1      17.991   2.704  31.810  0.00  0.00    +0.012 A 
ATOM     23  C22 UNL     1      18.442   3.070  30.538  0.00  0.00    +0.014 A 
BRANCH  21  24
ATOM     24  C15 UNL     1      17.941   1.088  33.746  0.00  0.00    +0.141 A 
ATOM     25  N3  UNL     1      18.265   1.783  34.874  0.00  0.00    -0.208 NA
ATOM     26  C16 UNL     1      17.653   1.079  35.839  0.00  0.00    +0.178 A 
ATOM     27  N4  UNL     1      17.662   1.351  37.168  0.00  0.00    -0.234 NA
ATOM     28  C17 UNL     1      16.982   0.518  38.013  0.00  0.00    +0.113 A 
ATOM     29  C18 UNL     1      16.284  -0.606  37.510  0.00  0.00    +0.022 A 
ATOM     30  C19 UNL     1      16.288  -0.869  36.127  0.00  0.00    +0.031 A 
ATOM     31  C20 UNL     1      16.996   0.014  35.319  0.00  0.00    +0.086 A 
ATOM     32  N5  UNL     1      17.164  -0.004  33.992  0.00  0.00    -0.337 N 
ATOM     33  H16 UNL     1      16.784  -0.711  33.325  0.00  0.00    +0.167 HD
ENDBRANCH  21  24
ENDBRANCH   2  18
TORSDOF 4
ENDMDL
MODEL 2
REMARK VINA RESULT:    -6.692      1.353     12.527
REMARK INTER + INTRA:          -9.084
REMARK INTER:                  -8.326
REMARK INTRA:                  -0.758
REMARK UNBOUND:                -0.827
REMARK  Name = /home/qwerty/github/datacon2025hack/step_04_hit_selection/docking/ligands/lig_80.pdb
REMARK  6 active torsions:
REMARK  status: ('A' for Active; 'I' for Inactive)
REMARK    1  A    between atoms: C1_1  and  C2_2
REMARK    2  A    between atoms: C4_4  and  C5_5
REMARK    3  A    between atoms: N1_6  and  C6_7
REMARK    4  A    between atoms: C9_10  and  N2_11
REMARK    5  A    between atoms: C10_12  and  C11_14
REMARK    6  A    between atoms: C14_17  and  C15_18
REMARK                            x       y       z     vdW  Elec       q    Type
REMARK                         _______ _______ _______ _____ _____    ______ ____
ROOT
ATOM      1  N2  UNL     1      19.170   2.309  29.657  0.00  0.00    -0.282 N 
ATOM      2  C10 UNL     1      20.299   3.179  29.448  0.00  0.00    +0.248 C 
ATOM      3  O1  UNL     1      21.014   3.527  30.426  0.00  0.00    -0.270 OA
ATOM      4  H10 UNL     1      18.664   1.922  28.831  0.00  0.00    +0.155 HD
ENDROOT
BRANCH   1   8
ATOM      5  C6  UNL     1      17.850   0.947  33.469  0.00  0.00    +0.066 A 
ATOM      6  C7  UNL     1      18.837   0.249  32.758  0.00  0.00    +0.029 A 
ATOM      7  C8  UNL     1      19.269   0.707  31.511  0.00  0.00    +0.025 A 
ATOM      8  C9  UNL     1      18.725   1.873  30.953  0.00  0.00    +0.034 A 
ATOM      9  C23 UNL     1      17.704   2.548  31.644  0.00  0.00    +0.025 A 
ATOM     10  C24 UNL     1      17.271   2.089  32.891  0.00  0.00    +0.029 A 
BRANCH   5  16
ATOM     11  C1  UNL     1      15.851  -2.079  36.764  0.00  0.00    +0.067 C 
ATOM     12  C2  UNL     1      16.499  -0.863  36.191  0.00  0.00    +0.061 A 
ATOM     13  C3  UNL     1      16.998   0.202  36.915  0.00  0.00    +0.047 A 
ATOM     14  C4  UNL     1      17.572   1.018  35.961  0.00  0.00    +0.042 A 
ATOM     15  C5  UNL     1      18.302   2.294  36.250  0.00  0.00    +0.066 C 
ATOM     16  N1  UNL     1      17.401   0.453  34.742  0.00  0.00    -0.237 N 
ATOM     17  N6  UNL     1      16.770  -0.702  34.882  0.00  0.00    -0.171 NA
ENDBRANCH   5  16
ENDBRANCH   1   8
BRANCH   2  18
ATOM     18  C11 UNL     1      20.647   3.677  28.095  0.00  0.00    +0.037 A 
ATOM     19  C12 UNL     1      21.599   3.022  27.294  0.00  0.00    +0.014 A 
ATOM     20  C13 UNL     1      21.915   3.511  26.025  0.00  0.00    +0.012 A 
ATOM     21  C14 UNL     1      21.295   4.670  25.525  0.00  0.00    +0.017 A 
ATOM     22  C21 UNL     1      20.350   5.330  26.331  0.00  0.00    +0.012 A 
ATOM     23  C22 UNL     1      20.035   4.841  27.602  0.00  0.00    +0.014 A 
BRANCH  21  24
ATOM     24  C15 UNL     1      21.645   5.171  24.171  0.00  0.00    +0.141 A 
ATOM     25  N3  UNL     1      21.054   4.694  23.038  0.00  0.00    -0.208 NA
ATOM     26  C16 UNL     1      21.656   5.405  22.071  0.00  0.00    +0.178 A 
ATOM     27  N4  UNL     1      21.428   5.312  20.738  0.00  0.00    -0.234 NA
ATOM     28  C17 UNL     1      22.141   6.116  19.891  0.00  0.00    +0.113 A 
ATOM     29  C18 UNL     1      23.099   7.025  20.399  0.00  0.00    +0.022 A 
ATOM     30  C19 UNL     1      23.321   7.104  21.786  0.00  0.00    +0.031 A 
ATOM     31  C20 UNL     1      22.565   6.263  22.595  0.00  0.00    +0.086 A 
ATOM     32  N5  UNL     1      22.577   6.134  23.927  0.00  0.00    -0.337 N 
ATOM     33  H16 UNL     1      23.182   6.657  24.598  0.00  0.00    +0.167 HD
ENDBRANCH  21  24
ENDBRANCH   2  18
TORSDOF 4
ENDMDL
MODEL 3
REMARK VINA RESULT:    -6.541     10.570     16.976
REMARK INTER + INTRA:          -8.898
REMARK INTER:                  -8.156
REMARK INTRA:                  -0.741
REMARK UNBOUND:                -0.827
REMARK  Name = /home/qwerty/github/datacon2025hack/step_04_hit_selection/docking/ligands/lig_80.pdb
REMARK  6 active torsions:
REMARK  status: ('A' for Active; 'I' for Inactive)
REMARK    1  A    between atoms: C1_1  and  C2_2
REMARK    2  A    between atoms: C4_4  and  C5_5
REMARK    3  A    between atoms: N1_6  and  C6_7
REMARK    4  A    between atoms: C9_10  and  N2_11
REMARK    5  A    between atoms: C10_12  and  C11_14
REMARK    6  A    between atoms: C14_17  and  C15_18
REMARK                            x       y       z     vdW  Elec       q    Type
REMARK                         _______ _______ _______ _____ _____    ______ ____
ROOT
ATOM      1  N2  UNL     1      20.376  13.979  29.324  0.00  0.00    -0.282 N 
ATOM      2  C10 UNL     1      21.710  14.444  29.041  0.00  0.00    +0.248 C 
ATOM      3  O1  UNL     1      22.547  14.561  29.977  0.00  0.00    -0.270 OA
ATOM      4  H10 UNL     1      19.733  13.761  28.532  0.00  0.00    +0.155 HD
ENDROOT
BRANCH   1   8
ATOM      5  C6  UNL     1      18.879  13.168  33.225  0.00  0.00    +0.066 A 
ATOM      6  C7  UNL     1      19.467  12.154  32.456  0.00  0.00    +0.029 A 
ATOM      7  C8  UNL     1      19.962  12.431  31.179  0.00  0.00    +0.025 A 
ATOM      8  C9  UNL     1      19.881  13.727  30.650  0.00  0.00    +0.034 A 
ATOM      9  C23 UNL     1      19.251  14.734  31.402  0.00  0.00    +0.025 A 
ATOM     10  C24 UNL     1      18.755  14.456  32.679  0.00  0.00    +0.029 A 
BRANCH   5  16
ATOM     11  C1  UNL     1      15.597  12.292  36.758  0.00  0.00    +0.067 C 
ATOM     12  C2  UNL     1      16.916  12.504  36.093  0.00  0.00    +0.061 A 
ATOM     13  C3  UNL     1      18.154  12.309  36.674  0.00  0.00    +0.047 A 
ATOM     14  C4  UNL     1      19.048  12.540  35.648  0.00  0.00    +0.042 A 
ATOM     15  C5  UNL     1      20.536  12.405  35.760  0.00  0.00    +0.066 C 
ATOM     16  N1  UNL     1      18.356  12.864  34.530  0.00  0.00    -0.237 N 
ATOM     17  N6  UNL     1      17.059  12.820  34.791  0.00  0.00    -0.171 NA
ENDBRANCH   5  16
ENDBRANCH   1   8
BRANCH   2  18
ATOM     18  C11 UNL     1      22.130  14.784  27.660  0.00  0.00    +0.037 A 
ATOM     19  C12 UNL     1      22.100  16.109  27.188  0.00  0.00    +0.014 A 
ATOM     20  C13 UNL     1      22.495  16.405  25.882  0.00  0.00    +0.012 A 
ATOM     21  C14 UNL     1      22.922  15.388  25.010  0.00  0.00    +0.017 A 
ATOM     22  C21 UNL     1      22.941  14.063  25.479  0.00  0.00    +0.012 A 
ATOM     23  C22 UNL     1      22.545  13.765  26.787  0.00  0.00    +0.014 A 
BRANCH  21  24
ATOM     24  C15 UNL     1      23.339  15.727  23.625  0.00  0.00    +0.141 A 
ATOM     25  N3  UNL     1      22.454  15.795  22.589  0.00  0.00    -0.208 NA
ATOM     26  C16 UNL     1      23.241  16.119  21.551  0.00  0.00    +0.178 A 
ATOM     27  N4  UNL     1      22.848  16.308  20.267  0.00  0.00    -0.234 NA
ATOM     28  C17 UNL     1      23.793  16.632  19.332  0.00  0.00    +0.113 A 
ATOM     29  C18 UNL     1      25.153  16.765  19.700  0.00  0.00    +0.022 A 
ATOM     30  C19 UNL     1      25.539  16.563  21.038  0.00  0.00    +0.031 A 
ATOM     31  C20 UNL     1      24.533  16.237  21.942  0.00  0.00    +0.086 A 
ATOM     32  N5  UNL     1      24.622  15.994  23.254  0.00  0.00    -0.337 N 
ATOM     33  H16 UNL     1      25.492  16.001  23.832  0.00  0.00    +0.167 HD
ENDBRANCH  21  24
ENDBRANCH   2  18
TORSDOF 4
ENDMDL
MODEL 4
REMARK VINA RESULT:    -6.227      5.227      6.564
REMARK INTER + INTRA:          -8.510
REMARK INTER:                  -7.684
REMARK INTRA:                  -0.826
REMARK UNBOUND:                -0.827
REMARK  Name = /home/qwerty/github/datacon2025hack/step_04_hit_selection/docking/ligands/lig_80.pdb
REMARK  6 active torsions:
REMARK  status: ('A' for Active; 'I' for Inactive)
REMARK    1  A    between atoms: C1_1  and  C2_2
REMARK    2  A    between atoms: C4_4  and  C5_5
REMARK    3  A    between atoms: N1_6  and  C6_7
REMARK    4  A    between atoms: C9_10  and  N2_11
REMARK    5  A    between atoms: C10_12  and  C11_14
REMARK    6  A    between atoms: C14_17  and  C15_18
REMARK                            x       y       z     vdW  Elec       q    Type
REMARK                         _______ _______ _______ _____ _____    ______ ____
ROOT
ATOM      1  N2  UNL     1      18.944   2.787  27.648  0.00  0.00    -0.282 N 
ATOM      2  C10 UNL     1      19.847   2.182  28.593  0.00  0.00    +0.248 C 
ATOM      3  O1  UNL     1      20.310   1.031  28.372  0.00  0.00    -0.270 OA
ATOM      4  H10 UNL     1      18.669   3.786  27.772  0.00  0.00    +0.155 HD
ENDROOT
BRANCH   1   8
ATOM      5  C6  UNL     1      17.458   0.855  24.157  0.00  0.00    +0.066 A 
ATOM      6  C7  UNL     1      18.678   1.549  24.132  0.00  0.00    +0.029 A 
ATOM      7  C8  UNL     1      19.160   2.174  25.285  0.00  0.00    +0.025 A 
ATOM      8  C9  UNL     1      18.436   2.115  26.483  0.00  0.00    +0.034 A 
ATOM      9  C23 UNL     1      17.192   1.458  26.498  0.00  0.00    +0.025 A 
ATOM     10  C24 UNL     1      16.709   0.834  25.345  0.00  0.00    +0.029 A 
BRANCH   5  16
ATOM     11  C1  UNL     1      15.635   0.438  19.628  0.00  0.00    +0.067 C 
ATOM     12  C2  UNL     1      16.138   0.046  20.977  0.00  0.00    +0.061 A 
ATOM     13  C3  UNL     1      16.384  -1.245  21.402  0.00  0.00    +0.047 A 
ATOM     14  C4  UNL     1      16.917  -1.088  22.666  0.00  0.00    +0.042 A 
ATOM     15  C5  UNL     1      17.401  -2.205  23.538  0.00  0.00    +0.066 C 
ATOM     16  N1  UNL     1      16.964   0.234  22.958  0.00  0.00    -0.237 N 
ATOM     17  N6  UNL     1      16.513   0.926  21.925  0.00  0.00    -0.171 NA
ENDBRANCH   5  16
ENDBRANCH   1   8
BRANCH   2  18
ATOM     18  C11 UNL     1      20.255   2.891  29.830  0.00  0.00    +0.037 A 
ATOM     19  C12 UNL     1      19.718   4.146  30.169  0.00  0.00    +0.014 A 
ATOM     20  C13 UNL     1      20.121   4.798  31.337  0.00  0.00    +0.012 A 
ATOM     21  C14 UNL     1      21.075   4.219  32.192  0.00  0.00    +0.017 A 
ATOM     22  C21 UNL     1      21.620   2.969  31.847  0.00  0.00    +0.012 A 
ATOM     23  C22 UNL     1      21.217   2.317  30.677  0.00  0.00    +0.014 A 
BRANCH  21  24
ATOM     24  C15 UNL     1      21.488   4.930  33.429  0.00  0.00    +0.141 A 
ATOM     25  N3  UNL     1      20.587   5.492  34.286  0.00  0.00    -0.208 NA
ATOM     26  C16 UNL     1      21.375   6.015  35.238  0.00  0.00    +0.178 A 
ATOM     27  N4  UNL     1      20.970   6.697  36.338  0.00  0.00    -0.234 NA
ATOM     28  C17 UNL     1      21.917   7.166  37.207  0.00  0.00    +0.113 A 
ATOM     29  C18 UNL     1      23.293   6.943  36.960  0.00  0.00    +0.022 A 
ATOM     30  C19 UNL     1      23.691   6.234  35.812  0.00  0.00    +0.031 A 
ATOM     31  C20 UNL     1      22.682   5.783  34.968  0.00  0.00    +0.086 A 
ATOM     32  N5  UNL     1      22.781   5.095  33.824  0.00  0.00    -0.337 N 
ATOM     33  H16 UNL     1      23.661   4.781  33.359  0.00  0.00    +0.167 HD
ENDBRANCH  21  24
ENDBRANCH   2  18
TORSDOF 4
ENDMDL
MODEL 5
REMARK VINA RESULT:    -6.063     11.267     12.463
REMARK INTER + INTRA:          -8.308
REMARK INTER:                  -7.646
REMARK INTRA:                  -0.662
REMARK UNBOUND:                -0.827
REMARK  Name = /home/qwerty/github/datacon2025hack/step_04_hit_selection/docking/ligands/lig_80.pdb
REMARK  6 active torsions:
REMARK  status: ('A' for Active; 'I' for Inactive)
REMARK    1  A    between atoms: C1_1  and  C2_2
REMARK    2  A    between atoms: C4_4  and  C5_5
REMARK    3  A    between atoms: N1_6  and  C6_7
REMARK    4  A    between atoms: C9_10  and  N2_11
REMARK    5  A    between atoms: C10_12  and  C11_14
REMARK    6  A    between atoms: C14_17  and  C15_18
REMARK                            x       y       z     vdW  Elec       q    Type
REMARK                         _______ _______ _______ _____ _____    ______ ____
ROOT
ATOM      1  N2  UNL     1       8.245   1.685  28.334  0.00  0.00    -0.282 N 
ATOM      2  C10 UNL     1       7.082   1.104  28.955  0.00  0.00    +0.248 C 
ATOM      3  O1  UNL     1       6.010   0.991  28.301  0.00  0.00    -0.270 OA
ATOM      4  H10 UNL     1       9.160   1.656  28.835  0.00  0.00    +0.155 HD
ENDROOT
BRANCH   1   8
ATOM      5  C6  UNL     1       8.313   3.344  24.414  0.00  0.00    +0.066 A 
ATOM      6  C7  UNL     1       8.658   2.002  24.633  0.00  0.00    +0.029 A 
ATOM      7  C8  UNL     1       8.626   1.465  25.923  0.00  0.00    +0.025 A 
ATOM      8  C9  UNL     1       8.246   2.257  27.015  0.00  0.00    +0.034 A 
ATOM      9  C23 UNL     1       7.944   3.614  26.803  0.00  0.00    +0.025 A 
ATOM     10  C24 UNL     1       7.978   4.151  25.513  0.00  0.00    +0.029 A 
BRANCH   5  16
ATOM     11  C1  UNL     1       6.844   5.597  20.318  0.00  0.00    +0.067 C 
ATOM     12  C2  UNL     1       7.720   4.856  21.271  0.00  0.00    +0.061 A 
ATOM     13  C3  UNL     1       9.060   4.577  21.086  0.00  0.00    +0.047 A 
ATOM     14  C4  UNL     1       9.444   3.967  22.263  0.00  0.00    +0.042 A 
ATOM     15  C5  UNL     1      10.836   3.514  22.581  0.00  0.00    +0.066 C 
ATOM     16  N1  UNL     1       8.370   3.889  23.085  0.00  0.00    -0.237 N 
ATOM     17  N6  UNL     1       7.327   4.449  22.493  0.00  0.00    -0.171 NA
ENDBRANCH   5  16
ENDBRANCH   1   8
BRANCH   2  18
ATOM     18  C11 UNL     1       7.119   0.622  30.357  0.00  0.00    +0.037 A 
ATOM     19  C12 UNL     1       7.110   1.518  31.442  0.00  0.00    +0.014 A 
ATOM     20  C13 UNL     1       7.149   1.042  32.755  0.00  0.00    +0.012 A 
ATOM     21  C14 UNL     1       7.207  -0.338  33.019  0.00  0.00    +0.017 A 
ATOM     22  C21 UNL     1       7.227  -1.232  31.933  0.00  0.00    +0.012 A 
ATOM     23  C22 UNL     1       7.188  -0.756  30.619  0.00  0.00    +0.014 A 
BRANCH  21  24
ATOM     24  C15 UNL     1       7.247  -0.821  34.423  0.00  0.00    +0.141 A 
ATOM     25  N3  UNL     1       8.389  -1.291  35.004  0.00  0.00    -0.208 NA
ATOM     26  C16 UNL     1       7.978  -1.614  36.240  0.00  0.00    +0.178 A 
ATOM     27  N4  UNL     1       8.738  -2.135  37.234  0.00  0.00    -0.234 NA
ATOM     28  C17 UNL     1       8.149  -2.409  38.438  0.00  0.00    +0.113 A 
ATOM     29  C18 UNL     1       6.771  -2.153  38.639  0.00  0.00    +0.022 A 
ATOM     30  C19 UNL     1       6.000  -1.612  37.593  0.00  0.00    +0.031 A 
ATOM     31  C20 UNL     1       6.657  -1.355  36.395  0.00  0.00    +0.086 A 
ATOM     32  N5  UNL     1       6.169  -0.851  35.255  0.00  0.00    -0.337 N 
ATOM     33  H16 UNL     1       5.182  -0.567  35.071  0.00  0.00    +0.167 HD
ENDBRANCH  21  24
ENDBRANCH   2  18
TORSDOF 4
ENDMDL
MODEL 6
REMARK VINA RESULT:    -6.053      7.569      9.109
REMARK INTER + INTRA:          -8.295
REMARK INTER:                  -7.440
REMARK INTRA:                  -0.856
REMARK UNBOUND:                -0.827
REMARK  Name = /home/qwerty/github/datacon2025hack/step_04_hit_selection/docking/ligands/lig_80.pdb
REMARK  6 active torsions:
REMARK  status: ('A' for Active; 'I' for Inactive)
REMARK    1  A    between atoms: C1_1  and  C2_2
REMARK    2  A    between atoms: C4_4  and  C5_5
REMARK    3  A    between atoms: N1_6  and  C6_7
REMARK    4  A    between atoms: C9_10  and  N2_11
REMARK    5  A    between atoms: C10_12  and  C11_14
REMARK    6  A    between atoms: C14_17  and  C15_18
REMARK                            x       y       z     vdW  Elec       q    Type
REMARK                         _______ _______ _______ _____ _____    ______ ____
ROOT
ATOM      1  N2  UNL     1      20.118   6.886  22.242  0.00  0.00    -0.282 N 
ATOM      2  C10 UNL     1      19.130   6.142  21.503  0.00  0.00    +0.248 C 
ATOM      3  O1  UNL     1      18.685   6.597  20.415  0.00  0.00    -0.270 OA
ATOM      4  H10 UNL     1      20.575   6.445  23.070  0.00  0.00    +0.155 HD
ENDROOT
BRANCH   1   8
ATOM      5  C6  UNL     1      21.405  10.789  21.130  0.00  0.00    +0.066 A 
ATOM      6  C7  UNL     1      20.295  10.609  21.970  0.00  0.00    +0.029 A 
ATOM      7  C8  UNL     1      19.885   9.324  22.335  0.00  0.00    +0.025 A 
ATOM      8  C9  UNL     1      20.576   8.197  21.871  0.00  0.00    +0.034 A 
ATOM      9  C23 UNL     1      21.660   8.374  20.993  0.00  0.00    +0.025 A 
ATOM     10  C24 UNL     1      22.070   9.659  20.627  0.00  0.00    +0.029 A 
BRANCH   5  16
ATOM     11  C1  UNL     1      23.969  14.964  21.065  0.00  0.00    +0.067 C 
ATOM     12  C2  UNL     1      22.912  13.964  20.734  0.00  0.00    +0.061 A 
ATOM     13  C3  UNL     1      21.982  14.080  19.720  0.00  0.00    +0.047 A 
ATOM     14  C4  UNL     1      21.297  12.882  19.752  0.00  0.00    +0.042 A 
ATOM     15  C5  UNL     1      20.205  12.491  18.803  0.00  0.00    +0.066 C 
ATOM     16  N1  UNL     1      21.804  12.116  20.747  0.00  0.00    -0.237 N 
ATOM     17  N6  UNL     1      22.801  12.762  21.330  0.00  0.00    -0.171 NA
ENDBRANCH   5  16
ENDBRANCH   1   8
BRANCH   2  18
ATOM     18  C11 UNL     1      18.623   4.838  21.993  0.00  0.00    +0.037 A 
ATOM     19  C12 UNL     1      17.625   4.130  21.301  0.00  0.00    +0.014 A 
ATOM     20  C13 UNL     1      17.158   2.905  21.784  0.00  0.00    +0.012 A 
ATOM     21  C14 UNL     1      17.670   2.359  22.974  0.00  0.00    +0.017 A 
ATOM     22  C21 UNL     1      18.660   3.073  23.672  0.00  0.00    +0.012 A 
ATOM     23  C22 UNL     1      19.126   4.300  23.189  0.00  0.00    +0.014 A 
BRANCH  21  24
ATOM     24  C15 UNL     1      17.160   1.055  23.469  0.00  0.00    +0.141 A 
ATOM     25  N3  UNL     1      15.956   0.929  24.098  0.00  0.00    -0.208 NA
ATOM     26  C16 UNL     1      15.902  -0.384  24.369  0.00  0.00    +0.178 A 
ATOM     27  N4  UNL     1      14.895  -1.039  24.999  0.00  0.00    -0.234 NA
ATOM     28  C17 UNL     1      15.010  -2.388  25.196  0.00  0.00    +0.113 A 
ATOM     29  C18 UNL     1      16.159  -3.085  24.750  0.00  0.00    +0.022 A 
ATOM     30  C19 UNL     1      17.192  -2.385  24.099  0.00  0.00    +0.031 A 
ATOM     31  C20 UNL     1      17.016  -1.017  23.928  0.00  0.00    +0.086 A 
ATOM     32  N5  UNL     1      17.831  -0.125  23.353  0.00  0.00    -0.337 N 
ATOM     33  H16 UNL     1      18.767  -0.317  22.931  0.00  0.00    +0.167 HD
ENDBRANCH  21  24
ENDBRANCH   2  18
TORSDOF 4
ENDMDL
MODEL 7
REMARK VINA RESULT:    -6.051     10.967     15.573
REMARK INTER + INTRA:          -8.293
REMARK INTER:                  -7.647
REMARK INTRA:                  -0.646
REMARK UNBOUND:                -0.827
REMARK  Name = /home/qwerty/github/datacon2025hack/step_04_hit_selection/docking/ligands/lig_80.pdb
REMARK  6 active torsions:
REMARK  status: ('A' for Active; 'I' for Inactive)
REMARK    1  A    between atoms: C1_1  and  C2_2
REMARK    2  A    between atoms: C4_4  and  C5_5
REMARK    3  A    between atoms: N1_6  and  C6_7
REMARK    4  A    between atoms: C9_10  and  N2_11
REMARK    5  A    between atoms: C10_12  and  C11_14
REMARK    6  A    between atoms: C14_17  and  C15_18
REMARK                            x       y       z     vdW  Elec       q    Type
REMARK                         _______ _______ _______ _____ _____    ______ ____
ROOT
ATOM      1  N2  UNL     1      16.868   9.311  21.463  0.00  0.00    -0.282 N 
ATOM      2  C10 UNL     1      17.332   9.944  20.255  0.00  0.00    +0.248 C 
ATOM      3  O1  UNL     1      16.752   9.712  19.160  0.00  0.00    -0.270 OA
ATOM      4  H10 UNL     1      17.266   9.607  22.380  0.00  0.00    +0.155 HD
ENDROOT
BRANCH   1   8
ATOM      5  C6  UNL     1      13.800   6.360  21.505  0.00  0.00    +0.066 A 
ATOM      6  C7  UNL     1      15.128   6.011  21.220  0.00  0.00    +0.029 A 
ATOM      7  C8  UNL     1      16.130   6.986  21.215  0.00  0.00    +0.025 A 
ATOM      8  C9  UNL     1      15.822   8.324  21.498  0.00  0.00    +0.034 A 
ATOM      9  C23 UNL     1      14.484   8.681  21.740  0.00  0.00    +0.025 A 
ATOM     10  C24 UNL     1      13.483   7.707  21.743  0.00  0.00    +0.029 A 
BRANCH   5  16
ATOM     11  C1  UNL     1      10.012   3.645  23.021  0.00  0.00    +0.067 C 
ATOM     12  C2  UNL     1      11.128   4.136  22.161  0.00  0.00    +0.061 A 
ATOM     13  C3  UNL     1      11.399   3.715  20.873  0.00  0.00    +0.047 A 
ATOM     14  C4  UNL     1      12.450   4.514  20.472  0.00  0.00    +0.042 A 
ATOM     15  C5  UNL     1      13.084   4.481  19.115  0.00  0.00    +0.066 C 
ATOM     16  N1  UNL     1      12.776   5.349  21.487  0.00  0.00    -0.237 N 
ATOM     17  N6  UNL     1      11.959   5.137  22.506  0.00  0.00    -0.171 NA
ENDBRANCH   5  16
ENDBRANCH   1   8
BRANCH   2  18
ATOM     18  C11 UNL     1      18.484  10.879  20.270  0.00  0.00    +0.037 A 
ATOM     19  C12 UNL     1      18.569  11.954  19.368  0.00  0.00    +0.014 A 
ATOM     20  C13 UNL     1      19.666  12.818  19.397  0.00  0.00    +0.012 A 
ATOM     21  C14 UNL     1      20.709  12.628  20.321  0.00  0.00    +0.017 A 
ATOM     22  C21 UNL     1      20.627  11.546  21.216  0.00  0.00    +0.012 A 
ATOM     23  C22 UNL     1      19.530  10.680  21.186  0.00  0.00    +0.014 A 
BRANCH  21  24
ATOM     24  C15 UNL     1      21.864  13.561  20.335  0.00  0.00    +0.141 A 
ATOM     25  N3  UNL     1      22.501  13.956  19.195  0.00  0.00    -0.208 NA
ATOM     26  C16 UNL     1      23.459  14.772  19.661  0.00  0.00    +0.178 A 
ATOM     27  N4  UNL     1      24.384  15.437  18.925  0.00  0.00    -0.234 NA
ATOM     28  C17 UNL     1      25.294  16.227  19.572  0.00  0.00    +0.113 A 
ATOM     29  C18 UNL     1      25.271  16.346  20.982  0.00  0.00    +0.022 A 
ATOM     30  C19 UNL     1      24.303  15.646  21.726  0.00  0.00    +0.031 A 
ATOM     31  C20 UNL     1      23.405  14.861  21.013  0.00  0.00    +0.086 A 
ATOM     32  N5  UNL     1      22.401  14.101  21.465  0.00  0.00    -0.337 N 
ATOM     33  H16 UNL     1      22.124  13.963  22.462  0.00  0.00    +0.167 HD
ENDBRANCH  21  24
ENDBRANCH   2  18
TORSDOF 4
ENDMDL
MODEL 8
REMARK VINA RESULT:    -5.989     11.694     17.485
REMARK INTER + INTRA:          -8.217
REMARK INTER:                  -7.371
REMARK INTRA:                  -0.846
REMARK UNBOUND:                -0.827
REMARK  Name = /home/qwerty/github/datacon2025hack/step_04_hit_selection/docking/ligands/lig_80.pdb
REMARK  6 active torsions:
REMARK  status: ('A' for Active; 'I' for Inactive)
REMARK    1  A    between atoms: C1_1  and  C2_2
REMARK    2  A    between atoms: C4_4  and  C5_5
REMARK    3  A    between atoms: N1_6  and  C6_7
REMARK    4  A    between atoms: C9_10  and  N2_11
REMARK    5  A    between atoms: C10_12  and  C11_14
REMARK    6  A    between atoms: C14_17  and  C15_18
REMARK                            x       y       z     vdW  Elec       q    Type
REMARK                         _______ _______ _______ _____ _____    ______ ____
ROOT
ATOM      1  N2  UNL     1       7.281   1.790  31.132  0.00  0.00    -0.282 N 
ATOM      2  C10 UNL     1       7.276   0.952  29.960  0.00  0.00    +0.248 C 
ATOM      3  O1  UNL     1       7.080  -0.288  30.074  0.00  0.00    -0.270 OA
ATOM      4  H10 UNL     1       7.312   2.826  31.019  0.00  0.00    +0.155 HD
ENDROOT
BRANCH   1   8
ATOM      5  C6  UNL     1       7.015   0.248  35.091  0.00  0.00    +0.066 A 
ATOM      6  C7  UNL     1       8.255   0.358  34.444  0.00  0.00    +0.029 A 
ATOM      7  C8  UNL     1       8.333   0.872  33.147  0.00  0.00    +0.025 A 
ATOM      8  C9  UNL     1       7.174   1.287  32.475  0.00  0.00    +0.034 A 
ATOM      9  C23 UNL     1       5.927   1.135  33.106  0.00  0.00    +0.025 A 
ATOM     10  C24 UNL     1       5.849   0.620  34.402  0.00  0.00    +0.029 A 
BRANCH   5  16
ATOM     11  C1  UNL     1       6.558  -3.084  38.655  0.00  0.00    +0.067 C 
ATOM     12  C2  UNL     1       6.721  -1.759  37.990  0.00  0.00    +0.061 A 
ATOM     13  C3  UNL     1       7.004  -0.566  38.626  0.00  0.00    +0.047 A 
ATOM     14  C4  UNL     1       7.149   0.340  37.595  0.00  0.00    +0.042 A 
ATOM     15  C5  UNL     1       7.515   1.782  37.765  0.00  0.00    +0.066 C 
ATOM     16  N1  UNL     1       6.948  -0.301  36.419  0.00  0.00    -0.237 N 
ATOM     17  N6  UNL     1       6.710  -1.581  36.655  0.00  0.00    -0.171 NA
ENDBRANCH   5  16
ENDBRANCH   1   8
BRANCH   2  18
ATOM     18  C11 UNL     1       7.492   1.521  28.607  0.00  0.00    +0.037 A 
ATOM     19  C12 UNL     1       7.439   2.907  28.376  0.00  0.00    +0.014 A 
ATOM     20  C13 UNL     1       7.640   3.420  27.092  0.00  0.00    +0.012 A 
ATOM     21  C14 UNL     1       7.891   2.563  26.006  0.00  0.00    +0.017 A 
ATOM     22  C21 UNL     1       7.933   1.177  26.237  0.00  0.00    +0.012 A 
ATOM     23  C22 UNL     1       7.731   0.663  27.521  0.00  0.00    +0.014 A 
BRANCH  21  24
ATOM     24  C15 UNL     1       8.104   3.131  24.650  0.00  0.00    +0.141 A 
ATOM     25  N3  UNL     1       9.233   2.888  23.923  0.00  0.00    -0.208 NA
ATOM     26  C16 UNL     1       9.010   3.580  22.795  0.00  0.00    +0.178 A 
ATOM     27  N4  UNL     1       9.840   3.675  21.727  0.00  0.00    -0.234 NA
ATOM     28  C17 UNL     1       9.451   4.433  20.656  0.00  0.00    +0.113 A 
ATOM     29  C18 UNL     1       8.205   5.105  20.666  0.00  0.00    +0.022 A 
ATOM     30  C19 UNL     1       7.360   4.994  21.785  0.00  0.00    +0.031 A 
ATOM     31  C20 UNL     1       7.810   4.209  22.841  0.00  0.00    +0.086 A 
ATOM     32  N5  UNL     1       7.215   3.940  24.008  0.00  0.00    -0.337 N 
ATOM     33  H16 UNL     1       6.288   4.293  24.331  0.00  0.00    +0.167 HD
ENDBRANCH  21  24
ENDBRANCH   2  18
TORSDOF 4
ENDMDL
MODEL 9
REMARK VINA RESULT:    -5.980     10.423     15.314
REMARK INTER + INTRA:          -8.205
REMARK INTER:                  -7.456
REMARK INTRA:                  -0.749
REMARK UNBOUND:                -0.827
REMARK  Name = /home/qwerty/github/datacon2025hack/step_04_hit_selection/docking/ligands/lig_80.pdb
REMARK  6 active torsions:
REMARK  status: ('A' for Active; 'I' for Inactive)
REMARK    1  A    between atoms: C1_1  and  C2_2
REMARK    2  A    between atoms: C4_4  and  C5_5
REMARK    3  A    between atoms: N1_6  and  C6_7
REMARK    4  A    between atoms: C9_10  and  N2_11
REMARK    5  A    between atoms: C10_12  and  C11_14
REMARK    6  A    between atoms: C14_17  and  C15_18
REMARK                            x       y       z     vdW  Elec       q    Type
REMARK                         _______ _______ _______ _____ _____    ______ ____
ROOT
ATOM      1  N2  UNL     1      17.947   8.057  20.854  0.00  0.00    -0.282 N 
ATOM      2  C10 UNL     1      17.567   9.403  20.512  0.00  0.00    +0.248 C 
ATOM      3  O1  UNL     1      16.356   9.678  20.293  0.00  0.00    -0.270 OA
ATOM      4  H10 UNL     1      18.926   7.865  21.160  0.00  0.00    +0.155 HD
ENDROOT
BRANCH   1   8
ATOM      5  C6  UNL     1      15.281   4.738  20.954  0.00  0.00    +0.066 A 
ATOM      6  C7  UNL     1      15.714   5.349  22.140  0.00  0.00    +0.029 A 
ATOM      7  C8  UNL     1      16.583   6.442  22.097  0.00  0.00    +0.025 A 
ATOM      8  C9  UNL     1      17.034   6.946  20.869  0.00  0.00    +0.034 A 
ATOM      9  C23 UNL     1      16.636   6.307  19.681  0.00  0.00    +0.025 A 
ATOM     10  C24 UNL     1      15.768   5.213  19.725  0.00  0.00    +0.029 A 
BRANCH   5  16
ATOM     11  C1  UNL     1      11.146   2.167  21.504  0.00  0.00    +0.067 C 
ATOM     12  C2  UNL     1      12.591   2.465  21.281  0.00  0.00    +0.061 A 
ATOM     13  C3  UNL     1      13.555   1.549  20.908  0.00  0.00    +0.047 A 
ATOM     14  C4  UNL     1      14.695   2.309  20.739  0.00  0.00    +0.042 A 
ATOM     15  C5  UNL     1      16.020   1.779  20.281  0.00  0.00    +0.066 C 
ATOM     16  N1  UNL     1      14.402   3.602  21.014  0.00  0.00    -0.237 N 
ATOM     17  N6  UNL     1      13.119   3.703  21.321  0.00  0.00    -0.171 NA
ENDBRANCH   5  16
ENDBRANCH   1   8
BRANCH   2  18
ATOM     18  C11 UNL     1      18.575  10.486  20.415  0.00  0.00    +0.037 A 
ATOM     19  C12 UNL     1      19.476  10.747  21.463  0.00  0.00    +0.014 A 
ATOM     20  C13 UNL     1      20.414  11.776  21.352  0.00  0.00    +0.012 A 
ATOM     21  C14 UNL     1      20.472  12.576  20.197  0.00  0.00    +0.017 A 
ATOM     22  C21 UNL     1      19.563  12.321  19.154  0.00  0.00    +0.012 A 
ATOM     23  C22 UNL     1      18.624  11.292  19.265  0.00  0.00    +0.014 A 
BRANCH  21  24
ATOM     24  C15 UNL     1      21.479  13.664  20.100  0.00  0.00    +0.141 A 
ATOM     25  N3  UNL     1      22.598  13.698  20.880  0.00  0.00    -0.208 NA
ATOM     26  C16 UNL     1      23.205  14.823  20.472  0.00  0.00    +0.178 A 
ATOM     27  N4  UNL     1      24.375  15.325  20.940  0.00  0.00    -0.234 NA
ATOM     28  C17 UNL     1      24.848  16.494  20.408  0.00  0.00    +0.113 A 
ATOM     29  C18 UNL     1      24.128  17.165  19.391  0.00  0.00    +0.022 A 
ATOM     30  C19 UNL     1      22.916  16.626  18.921  0.00  0.00    +0.031 A 
ATOM     31  C20 UNL     1      22.488  15.436  19.499  0.00  0.00    +0.086 A 
ATOM     32  N5  UNL     1      21.387  14.720  19.245  0.00  0.00    -0.337 N 
ATOM     33  H16 UNL     1      20.641  14.950  18.552  0.00  0.00    +0.167 HD
ENDBRANCH  21  24
ENDBRANCH   2  18
TORSDOF 4
ENDMDL
