REMARK  Name = /home/qwerty/github/datacon2025hack/step_04_hit_selection/docking/ligands/lig_250.pdb
REMARK  8 active torsions:
REMARK  status: ('A' for Active; 'I' for Inactive)
REMARK    1  A    between atoms: C1_1  and  C2_2
REMARK    2  A    between atoms: C5_5  and  N1_6
REMARK    3  A    between atoms: N2_9  and  C7_10
REMARK    4  A    between atoms: C7_10  and  C8_11
REMARK    5  A    between atoms: N4_18  and  C13_19
REMARK    6  A    between atoms: C13_19  and  C14_20
REMARK    7  A    between atoms: C13_19  and  C15_21
REMARK    8  A    between atoms: C22_29  and  C23_30
REMARK                            x       y       z     vdW  Elec       q    Type
REMARK                         _______ _______ _______ _____ _____    ______ ____
ROOT
ATOM      1  C8  UNL     1       0.816   0.146   1.874  0.00  0.00    +0.024 C 
ATOM      2  C9  UNL     1       0.269   1.592   1.875  0.00  0.00    +0.008 C 
ATOM      3  C10 UNL     1      -0.435   1.999   0.570  0.00  0.00    +0.019 C 
ATOM      4  C11 UNL     1       0.235   1.440  -0.697  0.00  0.00    +0.109 C 
ATOM      5  N3  UNL     1       1.559   0.881  -0.403  0.00  0.00    -0.285 N 
ATOM      6  C12 UNL     1       2.689   1.216  -1.230  0.00  0.00    +0.303 C 
ATOM      7  O2  UNL     1       2.776   2.371  -1.732  0.00  0.00    -0.253 OA
ATOM      8  N4  UNL     1       3.713   0.243  -1.491  0.00  0.00    -0.293 N 
ATOM      9  C21 UNL     1       1.673  -0.168   0.619  0.00  0.00    +0.114 C 
ATOM     10  H17 UNL     1       3.488  -0.766  -1.339  0.00  0.00    +0.151 HD
ENDROOT
BRANCH   8  11
ATOM     11  C13 UNL     1       5.054   0.600  -1.964  0.00  0.00    +0.102 C 
ATOM     12  C14 UNL     1       5.298   0.003  -3.353  0.00  0.00    +0.033 C 
BRANCH  11  13
ATOM     13  C15 UNL     1       6.094   0.125  -0.970  0.00  0.00    -0.027 A 
ATOM     14  C16 UNL     1       6.208  -1.238  -0.634  0.00  0.00    +0.008 A 
ATOM     15  C17 UNL     1       7.162  -1.661   0.296  0.00  0.00    +0.038 A 
ATOM     16  C18 UNL     1       8.012  -0.733   0.899  0.00  0.00    +0.123 A 
ATOM     17  F1  UNL     1       8.938  -1.147   1.798  0.00  0.00    -0.205 F 
ATOM     18  C19 UNL     1       7.913   0.622   0.570  0.00  0.00    +0.038 A 
ATOM     19  C20 UNL     1       6.958   1.050  -0.357  0.00  0.00    +0.008 A 
ENDBRANCH  11  13
ENDBRANCH   8  11
BRANCH   1  20
ATOM     20  C7  UNL     1      -0.270  -0.915   2.153  0.00  0.00    +0.110 C 
BRANCH  20  24
ATOM     21  N1  UNL     1      -3.558  -0.764   0.171  0.00  0.00    -0.269 N 
ATOM     22  C6  UNL     1      -2.661  -0.724   1.289  0.00  0.00    +0.304 C 
ATOM     23  O1  UNL     1      -3.089  -0.429   2.438  0.00  0.00    -0.253 OA
ATOM     24  N2  UNL     1      -1.266  -0.990   1.084  0.00  0.00    -0.299 N 
ATOM     25  H6  UNL     1      -3.140  -0.788  -0.786  0.00  0.00    +0.156 HD
ATOM     26  H7  UNL     1      -0.957  -1.299   0.137  0.00  0.00    +0.150 HD
BRANCH  21  31
ATOM     27  C1  UNL     1      -9.293  -0.503   0.577  0.00  0.00    +0.044 C 
ATOM     28  C2  UNL     1      -7.795  -0.531   0.502  0.00  0.00    -0.050 A 
ATOM     29  C3  UNL     1      -7.054  -1.308   1.401  0.00  0.00    +0.005 A 
ATOM     30  C4  UNL     1      -5.663  -1.368   1.299  0.00  0.00    +0.024 A 
ATOM     31  C5  UNL     1      -4.987  -0.652   0.298  0.00  0.00    +0.038 A 
ATOM     32  C22 UNL     1      -5.731   0.127  -0.617  0.00  0.00    -0.029 A 
ATOM     33  C23 UNL     1      -5.049   0.894  -1.715  0.00  0.00    +0.045 C 
ATOM     34  C24 UNL     1      -7.131   0.169  -0.514  0.00  0.00    +0.008 A 
ENDBRANCH  21  31
ENDBRANCH  20  24
ENDBRANCH   1  20
TORSDOF 5
