MODEL 1
REMARK VINA RESULT:    -7.310      0.000      0.000
REMARK INTER + INTRA:          -8.468
REMARK INTER:                  -8.165
REMARK INTRA:                  -0.303
REMARK UNBOUND:                -0.303
REMARK  Name = /home/qwerty/github/datacon2025hack/step_04_hit_selection/docking/ligands/lig_556.pdb
REMARK  4 active torsions:
REMARK  status: ('A' for Active; 'I' for Inactive)
REMARK    1  A    between atoms: C1_1  and  C2_2
REMARK    2  A    between atoms: C6_7  and  C7_8
REMARK    3  A    between atoms: C10_12  and  C11_13
REMARK    4  A    between atoms: C14_18  and  C15_19
REMARK                            x       y       z     vdW  Elec       q    Type
REMARK                         _______ _______ _______ _____ _____    ______ ____
ROOT
ATOM      1  C7  UNL     1      17.754   0.665  34.344  0.00  0.00    +0.139 A 
ATOM      2  N1  UNL     1      17.854   0.030  33.143  0.00  0.00    -0.228 NA
ATOM      3  C8  UNL     1      18.982   0.539  32.621  0.00  0.00    +0.090 A 
ATOM      4  C9  UNL     1      19.564   0.237  31.393  0.00  0.00    +0.043 A 
ATOM      5  C10 UNL     1      20.771   0.891  31.050  0.00  0.00    +0.039 A 
ATOM      6  C18 UNL     1      21.330   1.842  31.946  0.00  0.00    +0.015 A 
ATOM      7  C19 UNL     1      20.712   2.120  33.178  0.00  0.00    +0.028 A 
ATOM      8  C20 UNL     1      19.535   1.440  33.476  0.00  0.00    +0.067 A 
ATOM      9  N3  UNL     1      18.774   1.537  34.572  0.00  0.00    -0.338 N 
ATOM     10  H21 UNL     1      18.952   2.142  35.404  0.00  0.00    +0.167 HD
ENDROOT
BRANCH   5  11
ATOM     11  C11 UNL     1      21.418   0.609  29.750  0.00  0.00    +0.247 C 
ATOM     12  O1  UNL     1      22.166  -0.402  29.646  0.00  0.00    -0.270 OA
ATOM     13  N2  UNL     1      21.216   1.457  28.603  0.00  0.00    -0.298 N 
ATOM     14  C12 UNL     1      21.094   2.916  28.758  0.00  0.00    +0.108 C 
ATOM     15  C13 UNL     1      21.884   3.624  27.656  0.00  0.00    +0.022 C 
ATOM     16  C14 UNL     1      21.396   3.222  26.240  0.00  0.00    -0.011 C 
ATOM     17  C15 UNL     1      22.549   3.306  25.232  0.00  0.00    +0.007 C 
ATOM     18  C16 UNL     1      20.722   1.826  26.204  0.00  0.00    +0.022 C 
ATOM     19  C17 UNL     1      21.293   0.869  27.257  0.00  0.00    +0.108 C 
ENDBRANCH   5  11
BRANCH   1  26
ATOM     20  C1  UNL     1      15.245  -2.507  37.318  0.00  0.00    +0.044 C 
ATOM     21  C2  UNL     1      15.432  -1.128  36.757  0.00  0.00    -0.047 A 
ATOM     22  C3  UNL     1      14.528  -0.107  37.080  0.00  0.00    +0.041 A 
ATOM     23  C4  UNL     1      14.680   1.166  36.528  0.00  0.00    +0.124 A 
ATOM     24  F1  UNL     1      13.804   2.150  36.849  0.00  0.00    -0.205 F 
ATOM     25  C5  UNL     1      15.729   1.428  35.641  0.00  0.00    +0.050 A 
ATOM     26  C6  UNL     1      16.639   0.412  35.291  0.00  0.00    +0.020 A 
ATOM     27  C21 UNL     1      16.473  -0.870  35.852  0.00  0.00    +0.015 A 
ENDBRANCH   1  26
TORSDOF 2
ENDMDL
MODEL 2
REMARK VINA RESULT:    -7.243      9.969     12.912
REMARK INTER + INTRA:          -8.393
REMARK INTER:                  -8.236
REMARK INTRA:                  -0.157
REMARK UNBOUND:                -0.303
REMARK  Name = /home/qwerty/github/datacon2025hack/step_04_hit_selection/docking/ligands/lig_556.pdb
REMARK  4 active torsions:
REMARK  status: ('A' for Active; 'I' for Inactive)
REMARK    1  A    between atoms: C1_1  and  C2_2
REMARK    2  A    between atoms: C6_7  and  C7_8
REMARK    3  A    between atoms: C10_12  and  C11_13
REMARK    4  A    between atoms: C14_18  and  C15_19
REMARK                            x       y       z     vdW  Elec       q    Type
REMARK                         _______ _______ _______ _____ _____    ______ ____
ROOT
ATOM      1  C7  UNL     1      20.133   8.993  36.816  0.00  0.00    +0.139 A 
ATOM      2  N1  UNL     1      19.735  10.011  36.003  0.00  0.00    -0.228 NA
ATOM      3  C8  UNL     1      18.617  10.458  36.599  0.00  0.00    +0.090 A 
ATOM      4  C9  UNL     1      17.792  11.502  36.187  0.00  0.00    +0.043 A 
ATOM      5  C10 UNL     1      16.664  11.811  36.982  0.00  0.00    +0.039 A 
ATOM      6  C18 UNL     1      16.397  11.041  38.147  0.00  0.00    +0.015 A 
ATOM      7  C19 UNL     1      17.255   9.995  38.530  0.00  0.00    +0.028 A 
ATOM      8  C20 UNL     1      18.359   9.739  37.723  0.00  0.00    +0.067 A 
ATOM      9  N3  UNL     1      19.305   8.806  37.879  0.00  0.00    -0.338 N 
ATOM     10  H21 UNL     1      19.374   8.112  38.656  0.00  0.00    +0.167 HD
ENDROOT
BRANCH   5  11
ATOM     11  C11 UNL     1      15.753  12.904  36.577  0.00  0.00    +0.247 C 
ATOM     12  O1  UNL     1      16.153  14.097  36.663  0.00  0.00    -0.270 OA
ATOM     13  N2  UNL     1      14.423  12.640  36.087  0.00  0.00    -0.298 N 
ATOM     14  C12 UNL     1      13.618  11.544  36.650  0.00  0.00    +0.108 C 
ATOM     15  C13 UNL     1      12.173  12.007  36.842  0.00  0.00    +0.022 C 
ATOM     16  C14 UNL     1      11.530  12.476  35.511  0.00  0.00    -0.011 C 
ATOM     17  C15 UNL     1      10.470  13.552  35.778  0.00  0.00    +0.007 C 
ATOM     18  C16 UNL     1      12.573  12.964  34.473  0.00  0.00    +0.022 C 
ATOM     19  C17 UNL     1      13.816  13.576  35.129  0.00  0.00    +0.108 C 
ENDBRANCH   5  11
BRANCH   1  26
ATOM     20  C1  UNL     1      23.657   7.417  33.607  0.00  0.00    +0.044 C 
ATOM     21  C2  UNL     1      23.081   7.441  34.992  0.00  0.00    -0.047 A 
ATOM     22  C3  UNL     1      23.656   6.664  36.007  0.00  0.00    +0.041 A 
ATOM     23  C4  UNL     1      23.098   6.657  37.287  0.00  0.00    +0.124 A 
ATOM     24  F1  UNL     1      23.663   5.907  38.265  0.00  0.00    -0.205 F 
ATOM     25  C5  UNL     1      21.955   7.415  37.560  0.00  0.00    +0.050 A 
ATOM     26  C6  UNL     1      21.353   8.189  36.550  0.00  0.00    +0.020 A 
ATOM     27  C21 UNL     1      21.923   8.186  35.262  0.00  0.00    +0.015 A 
ENDBRANCH   1  26
TORSDOF 2
ENDMDL
MODEL 3
REMARK VINA RESULT:    -7.225      4.966     11.397
REMARK INTER + INTRA:          -8.373
REMARK INTER:                  -7.908
REMARK INTRA:                  -0.464
REMARK UNBOUND:                -0.303
REMARK  Name = /home/qwerty/github/datacon2025hack/step_04_hit_selection/docking/ligands/lig_556.pdb
REMARK  4 active torsions:
REMARK  status: ('A' for Active; 'I' for Inactive)
REMARK    1  A    between atoms: C1_1  and  C2_2
REMARK    2  A    between atoms: C6_7  and  C7_8
REMARK    3  A    between atoms: C10_12  and  C11_13
REMARK    4  A    between atoms: C14_18  and  C15_19
REMARK                            x       y       z     vdW  Elec       q    Type
REMARK                         _______ _______ _______ _____ _____    ______ ____
ROOT
ATOM      1  C7  UNL     1      20.868   4.319  23.270  0.00  0.00    +0.139 A 
ATOM      2  N1  UNL     1      20.269   3.203  23.772  0.00  0.00    -0.228 NA
ATOM      3  C8  UNL     1      20.948   2.978  24.909  0.00  0.00    +0.090 A 
ATOM      4  C9  UNL     1      20.751   1.951  25.829  0.00  0.00    +0.043 A 
ATOM      5  C10 UNL     1      21.583   1.915  26.973  0.00  0.00    +0.039 A 
ATOM      6  C18 UNL     1      22.596   2.899  27.133  0.00  0.00    +0.015 A 
ATOM      7  C19 UNL     1      22.763   3.921  26.180  0.00  0.00    +0.028 A 
ATOM      8  C20 UNL     1      21.911   3.921  25.081  0.00  0.00    +0.067 A 
ATOM      9  N3  UNL     1      21.879   4.780  24.054  0.00  0.00    -0.338 N 
ATOM     10  H21 UNL     1      22.494   5.612  23.918  0.00  0.00    +0.167 HD
ENDROOT
BRANCH   5  11
ATOM     11  C11 UNL     1      21.417   0.836  27.971  0.00  0.00    +0.247 C 
ATOM     12  O1  UNL     1      21.860  -0.315  27.706  0.00  0.00    -0.270 OA
ATOM     13  N2  UNL     1      20.765   1.066  29.235  0.00  0.00    -0.298 N 
ATOM     14  C12 UNL     1      19.610   1.974  29.331  0.00  0.00    +0.108 C 
ATOM     15  C13 UNL     1      18.543   1.362  30.241  0.00  0.00    +0.022 C 
ATOM     16  C14 UNL     1      19.085   1.079  31.666  0.00  0.00    -0.011 C 
ATOM     17  C15 UNL     1      18.352  -0.114  32.292  0.00  0.00    +0.007 C 
ATOM     18  C16 UNL     1      20.621   0.871  31.700  0.00  0.00    +0.022 C 
ATOM     19  C17 UNL     1      21.162   0.262  30.401  0.00  0.00    +0.108 C 
ENDBRANCH   5  11
BRANCH   1  26
ATOM     20  C1  UNL     1      22.056   6.342  18.832  0.00  0.00    +0.044 C 
ATOM     21  C2  UNL     1      21.017   5.915  19.826  0.00  0.00    -0.047 A 
ATOM     22  C3  UNL     1      19.661   6.165  19.578  0.00  0.00    +0.041 A 
ATOM     23  C4  UNL     1      18.697   5.801  20.521  0.00  0.00    +0.124 A 
ATOM     24  F1  UNL     1      17.385   6.042  20.272  0.00  0.00    -0.205 F 
ATOM     25  C5  UNL     1      19.079   5.197  21.721  0.00  0.00    +0.050 A 
ATOM     26  C6  UNL     1      20.438   4.951  21.997  0.00  0.00    +0.020 A 
ATOM     27  C21 UNL     1      21.402   5.325  21.040  0.00  0.00    +0.015 A 
ENDBRANCH   1  26
TORSDOF 2
ENDMDL
MODEL 4
REMARK VINA RESULT:    -7.220      5.151     11.836
REMARK INTER + INTRA:          -8.367
REMARK INTER:                  -8.097
REMARK INTRA:                  -0.270
REMARK UNBOUND:                -0.303
REMARK  Name = /home/qwerty/github/datacon2025hack/step_04_hit_selection/docking/ligands/lig_556.pdb
REMARK  4 active torsions:
REMARK  status: ('A' for Active; 'I' for Inactive)
REMARK    1  A    between atoms: C1_1  and  C2_2
REMARK    2  A    between atoms: C6_7  and  C7_8
REMARK    3  A    between atoms: C10_12  and  C11_13
REMARK    4  A    between atoms: C14_18  and  C15_19
REMARK                            x       y       z     vdW  Elec       q    Type
REMARK                         _______ _______ _______ _____ _____    ______ ____
ROOT
ATOM      1  C7  UNL     1      21.906   5.405  23.578  0.00  0.00    +0.139 A 
ATOM      2  N1  UNL     1      22.589   5.359  24.756  0.00  0.00    -0.228 NA
ATOM      3  C8  UNL     1      22.181   4.200  25.300  0.00  0.00    +0.090 A 
ATOM      4  C9  UNL     1      22.567   3.649  26.519  0.00  0.00    +0.043 A 
ATOM      5  C10 UNL     1      22.016   2.401  26.889  0.00  0.00    +0.039 A 
ATOM      6  C18 UNL     1      21.077   1.768  26.029  0.00  0.00    +0.015 A 
ATOM      7  C19 UNL     1      20.712   2.357  24.805  0.00  0.00    +0.028 A 
ATOM      8  C20 UNL     1      21.293   3.578  24.480  0.00  0.00    +0.067 A 
ATOM      9  N3  UNL     1      21.104   4.323  23.385  0.00  0.00    -0.338 N 
ATOM     10  H21 UNL     1      20.485   4.096  22.576  0.00  0.00    +0.167 HD
ENDROOT
BRANCH   5  11
ATOM     11  C11 UNL     1      22.389   1.783  28.181  0.00  0.00    +0.247 C 
ATOM     12  O1  UNL     1      23.482   1.160  28.267  0.00  0.00    -0.270 OA
ATOM     13  N2  UNL     1      21.537   1.876  29.339  0.00  0.00    -0.298 N 
ATOM     14  C12 UNL     1      20.072   1.825  29.202  0.00  0.00    +0.108 C 
ATOM     15  C13 UNL     1      19.477   0.950  30.307  0.00  0.00    +0.022 C 
ATOM     16  C14 UNL     1      19.836   1.474  31.721  0.00  0.00    -0.011 C 
ATOM     17  C15 UNL     1      19.902   0.313  32.722  0.00  0.00    +0.007 C 
ATOM     18  C16 UNL     1      21.142   2.308  31.746  0.00  0.00    +0.022 C 
ATOM     19  C17 UNL     1      22.147   1.862  30.678  0.00  0.00    +0.108 C 
ENDBRANCH   5  11
BRANCH   1  26
ATOM     20  C1  UNL     1      24.817   8.233  20.623  0.00  0.00    +0.044 C 
ATOM     21  C2  UNL     1      23.460   7.891  21.162  0.00  0.00    -0.047 A 
ATOM     22  C3  UNL     1      22.346   8.663  20.807  0.00  0.00    +0.041 A 
ATOM     23  C4  UNL     1      21.089   8.368  21.338  0.00  0.00    +0.124 A 
ATOM     24  F1  UNL     1      20.015   9.118  20.986  0.00  0.00    -0.205 F 
ATOM     25  C5  UNL     1      20.935   7.308  22.236  0.00  0.00    +0.050 A 
ATOM     26  C6  UNL     1      22.045   6.530  22.618  0.00  0.00    +0.020 A 
ATOM     27  C21 UNL     1      23.308   6.839  22.079  0.00  0.00    +0.015 A 
ENDBRANCH   1  26
TORSDOF 2
ENDMDL
MODEL 5
REMARK VINA RESULT:    -7.159      4.222     10.324
REMARK INTER + INTRA:          -8.299
REMARK INTER:                  -7.841
REMARK INTRA:                  -0.458
REMARK UNBOUND:                -0.303
REMARK  Name = /home/qwerty/github/datacon2025hack/step_04_hit_selection/docking/ligands/lig_556.pdb
REMARK  4 active torsions:
REMARK  status: ('A' for Active; 'I' for Inactive)
REMARK    1  A    between atoms: C1_1  and  C2_2
REMARK    2  A    between atoms: C6_7  and  C7_8
REMARK    3  A    between atoms: C10_12  and  C11_13
REMARK    4  A    between atoms: C14_18  and  C15_19
REMARK                            x       y       z     vdW  Elec       q    Type
REMARK                         _______ _______ _______ _____ _____    ______ ____
ROOT
ATOM      1  C7  UNL     1      21.814   3.887  26.101  0.00  0.00    +0.139 A 
ATOM      2  N1  UNL     1      21.160   4.362  27.197  0.00  0.00    -0.228 NA
ATOM      3  C8  UNL     1      21.531   3.508  28.167  0.00  0.00    +0.090 A 
ATOM      4  C9  UNL     1      21.151   3.524  29.506  0.00  0.00    +0.043 A 
ATOM      5  C10 UNL     1      21.678   2.527  30.359  0.00  0.00    +0.039 A 
ATOM      6  C18 UNL     1      22.547   1.536  29.824  0.00  0.00    +0.015 A 
ATOM      7  C19 UNL     1      22.906   1.554  28.465  0.00  0.00    +0.028 A 
ATOM      8  C20 UNL     1      22.373   2.564  27.670  0.00  0.00    +0.067 A 
ATOM      9  N3  UNL     1      22.566   2.784  26.364  0.00  0.00    -0.338 N 
ATOM     10  H21 UNL     1      23.171   2.227  25.721  0.00  0.00    +0.167 HD
ENDROOT
BRANCH   5  11
ATOM     11  C11 UNL     1      21.293   2.499  31.787  0.00  0.00    +0.247 C 
ATOM     12  O1  UNL     1      22.154   2.800  32.658  0.00  0.00    -0.270 OA
ATOM     13  N2  UNL     1      19.963   2.137  32.206  0.00  0.00    -0.298 N 
ATOM     14  C12 UNL     1      19.209   1.090  31.498  0.00  0.00    +0.108 C 
ATOM     15  C13 UNL     1      18.489   0.195  32.508  0.00  0.00    +0.022 C 
ATOM     16  C14 UNL     1      17.515   0.998  33.408  0.00  0.00    -0.011 C 
ATOM     17  C15 UNL     1      17.382   0.331  34.783  0.00  0.00    +0.007 C 
ATOM     18  C16 UNL     1      17.910   2.491  33.547  0.00  0.00    +0.022 C 
ATOM     19  C17 UNL     1      19.424   2.712  33.449  0.00  0.00    +0.108 C 
ENDBRANCH   5  11
BRANCH   1  26
ATOM     20  C1  UNL     1      19.424   4.357  21.711  0.00  0.00    +0.044 C 
ATOM     21  C2  UNL     1      20.527   4.773  22.638  0.00  0.00    -0.047 A 
ATOM     22  C3  UNL     1      21.477   5.716  22.223  0.00  0.00    +0.041 A 
ATOM     23  C4  UNL     1      22.526   6.075  23.072  0.00  0.00    +0.124 A 
ATOM     24  F1  UNL     1      23.439   6.991  22.665  0.00  0.00    -0.205 F 
ATOM     25  C5  UNL     1      22.641   5.490  24.336  0.00  0.00    +0.050 A 
ATOM     26  C6  UNL     1      21.706   4.529  24.766  0.00  0.00    +0.020 A 
ATOM     27  C21 UNL     1      20.654   4.172  23.900  0.00  0.00    +0.015 A 
ENDBRANCH   1  26
TORSDOF 2
ENDMDL
MODEL 6
REMARK VINA RESULT:    -7.134     11.764     15.094
REMARK INTER + INTRA:          -8.272
REMARK INTER:                  -8.280
REMARK INTRA:                   0.009
REMARK UNBOUND:                -0.303
REMARK  Name = /home/qwerty/github/datacon2025hack/step_04_hit_selection/docking/ligands/lig_556.pdb
REMARK  4 active torsions:
REMARK  status: ('A' for Active; 'I' for Inactive)
REMARK    1  A    between atoms: C1_1  and  C2_2
REMARK    2  A    between atoms: C6_7  and  C7_8
REMARK    3  A    between atoms: C10_12  and  C11_13
REMARK    4  A    between atoms: C14_18  and  C15_19
REMARK                            x       y       z     vdW  Elec       q    Type
REMARK                         _______ _______ _______ _____ _____    ______ ____
ROOT
ATOM      1  C7  UNL     1      14.266   1.794  20.649  0.00  0.00    +0.139 A 
ATOM      2  N1  UNL     1      13.094   1.974  21.318  0.00  0.00    -0.228 NA
ATOM      3  C8  UNL     1      12.611   3.110  20.786  0.00  0.00    +0.090 A 
ATOM      4  C9  UNL     1      11.424   3.763  21.106  0.00  0.00    +0.043 A 
ATOM      5  C10 UNL     1      11.107   4.949  20.403  0.00  0.00    +0.039 A 
ATOM      6  C18 UNL     1      12.010   5.444  19.423  0.00  0.00    +0.015 A 
ATOM      7  C19 UNL     1      13.200   4.755  19.129  0.00  0.00    +0.028 A 
ATOM      8  C20 UNL     1      13.460   3.586  19.837  0.00  0.00    +0.067 A 
ATOM      9  N3  UNL     1      14.515   2.770  19.735  0.00  0.00    -0.338 N 
ATOM     10  H21 UNL     1      15.324   2.875  19.084  0.00  0.00    +0.167 HD
ENDROOT
BRANCH   5  11
ATOM     11  C11 UNL     1       9.860   5.682  20.718  0.00  0.00    +0.247 C 
ATOM     12  O1  UNL     1       8.754   5.090  20.589  0.00  0.00    -0.270 OA
ATOM     13  N2  UNL     1       9.880   7.051  21.169  0.00  0.00    -0.298 N 
ATOM     14  C12 UNL     1      10.862   8.006  20.631  0.00  0.00    +0.108 C 
ATOM     15  C13 UNL     1      10.184   9.350  20.360  0.00  0.00    +0.022 C 
ATOM     16  C14 UNL     1       9.545   9.948  21.640  0.00  0.00    -0.011 C 
ATOM     17  C15 UNL     1       8.328  10.811  21.280  0.00  0.00    +0.007 C 
ATOM     18  C16 UNL     1       9.174   8.871  22.692  0.00  0.00    +0.022 C 
ATOM     19  C17 UNL     1       8.806   7.526  22.055  0.00  0.00    +0.108 C 
ENDBRANCH   5  11
BRANCH   1  26
ATOM     20  C1  UNL     1      16.051  -1.670  23.814  0.00  0.00    +0.044 C 
ATOM     21  C2  UNL     1      16.014  -1.063  22.444  0.00  0.00    -0.047 A 
ATOM     22  C3  UNL     1      16.860  -1.545  21.436  0.00  0.00    +0.041 A 
ATOM     23  C4  UNL     1      16.852  -0.955  20.171  0.00  0.00    +0.124 A 
ATOM     24  F1  UNL     1      17.671  -1.430  19.200  0.00  0.00    -0.205 F 
ATOM     25  C5  UNL     1      16.009   0.128  19.905  0.00  0.00    +0.050 A 
ATOM     26  C6  UNL     1      15.163   0.638  20.908  0.00  0.00    +0.020 A 
ATOM     27  C21 UNL     1      15.182   0.037  22.181  0.00  0.00    +0.015 A 
ENDBRANCH   1  26
TORSDOF 2
ENDMDL
MODEL 7
REMARK VINA RESULT:    -7.057      6.646      9.182
REMARK INTER + INTRA:          -8.185
REMARK INTER:                  -7.844
REMARK INTRA:                  -0.341
REMARK UNBOUND:                -0.303
REMARK  Name = /home/qwerty/github/datacon2025hack/step_04_hit_selection/docking/ligands/lig_556.pdb
REMARK  4 active torsions:
REMARK  status: ('A' for Active; 'I' for Inactive)
REMARK    1  A    between atoms: C1_1  and  C2_2
REMARK    2  A    between atoms: C6_7  and  C7_8
REMARK    3  A    between atoms: C10_12  and  C11_13
REMARK    4  A    between atoms: C14_18  and  C15_19
REMARK                            x       y       z     vdW  Elec       q    Type
REMARK                         _______ _______ _______ _____ _____    ______ ____
ROOT
ATOM      1  C7  UNL     1      21.378   3.864  33.304  0.00  0.00    +0.139 A 
ATOM      2  N1  UNL     1      20.330   4.685  33.590  0.00  0.00    -0.228 NA
ATOM      3  C8  UNL     1      20.893   5.649  34.338  0.00  0.00    +0.090 A 
ATOM      4  C9  UNL     1      20.272   6.758  34.906  0.00  0.00    +0.043 A 
ATOM      5  C10 UNL     1      21.070   7.658  35.651  0.00  0.00    +0.039 A 
ATOM      6  C18 UNL     1      22.457   7.393  35.814  0.00  0.00    +0.015 A 
ATOM      7  C19 UNL     1      23.047   6.262  35.224  0.00  0.00    +0.028 A 
ATOM      8  C20 UNL     1      22.224   5.415  34.489  0.00  0.00    +0.067 A 
ATOM      9  N3  UNL     1      22.552   4.289  33.844  0.00  0.00    -0.338 N 
ATOM     10  H21 UNL     1      23.503   3.864  33.777  0.00  0.00    +0.167 HD
ENDROOT
BRANCH   5  11
ATOM     11  C11 UNL     1      20.450   8.844  36.283  0.00  0.00    +0.247 C 
ATOM     12  O1  UNL     1      20.063   8.766  37.481  0.00  0.00    -0.270 OA
ATOM     13  N2  UNL     1      20.277  10.082  35.565  0.00  0.00    -0.298 N 
ATOM     14  C12 UNL     1      19.933  10.080  34.134  0.00  0.00    +0.108 C 
ATOM     15  C13 UNL     1      18.873  11.148  33.854  0.00  0.00    +0.022 C 
ATOM     16  C14 UNL     1      19.354  12.565  34.258  0.00  0.00    -0.011 C 
ATOM     17  C15 UNL     1      18.162  13.440  34.667  0.00  0.00    +0.007 C 
ATOM     18  C16 UNL     1      20.438  12.545  35.366  0.00  0.00    +0.022 C 
ATOM     19  C17 UNL     1      20.291  11.348  36.313  0.00  0.00    +0.108 C 
ENDBRANCH   5  11
BRANCH   1  26
ATOM     20  C1  UNL     1      22.561   1.258  29.179  0.00  0.00    +0.044 C 
ATOM     21  C2  UNL     1      21.825   1.360  30.482  0.00  0.00    -0.047 A 
ATOM     22  C3  UNL     1      20.961   0.333  30.885  0.00  0.00    +0.041 A 
ATOM     23  C4  UNL     1      20.246   0.445  32.080  0.00  0.00    +0.124 A 
ATOM     24  F1  UNL     1      19.416  -0.555  32.465  0.00  0.00    -0.205 F 
ATOM     25  C5  UNL     1      20.379   1.587  32.874  0.00  0.00    +0.050 A 
ATOM     26  C6  UNL     1      21.229   2.637  32.479  0.00  0.00    +0.020 A 
ATOM     27  C21 UNL     1      21.942   2.515  31.271  0.00  0.00    +0.015 A 
ENDBRANCH   1  26
TORSDOF 2
ENDMDL
MODEL 8
REMARK VINA RESULT:    -7.026      2.346      3.304
REMARK INTER + INTRA:          -8.151
REMARK INTER:                  -7.843
REMARK INTRA:                  -0.308
REMARK UNBOUND:                -0.303
REMARK  Name = /home/qwerty/github/datacon2025hack/step_04_hit_selection/docking/ligands/lig_556.pdb
REMARK  4 active torsions:
REMARK  status: ('A' for Active; 'I' for Inactive)
REMARK    1  A    between atoms: C1_1  and  C2_2
REMARK    2  A    between atoms: C6_7  and  C7_8
REMARK    3  A    between atoms: C10_12  and  C11_13
REMARK    4  A    between atoms: C14_18  and  C15_19
REMARK                            x       y       z     vdW  Elec       q    Type
REMARK                         _______ _______ _______ _____ _____    ______ ____
ROOT
ATOM      1  C7  UNL     1      18.832   2.677  34.620  0.00  0.00    +0.139 A 
ATOM      2  N1  UNL     1      19.734   3.395  33.895  0.00  0.00    -0.228 NA
ATOM      3  C8  UNL     1      20.142   2.518  32.962  0.00  0.00    +0.090 A 
ATOM      4  C9  UNL     1      21.073   2.726  31.946  0.00  0.00    +0.043 A 
ATOM      5  C10 UNL     1      21.342   1.656  31.062  0.00  0.00    +0.039 A 
ATOM      6  C18 UNL     1      20.684   0.410  31.250  0.00  0.00    +0.015 A 
ATOM      7  C19 UNL     1      19.750   0.240  32.288  0.00  0.00    +0.028 A 
ATOM      8  C20 UNL     1      19.509   1.326  33.122  0.00  0.00    +0.067 A 
ATOM      9  N3  UNL     1      18.676   1.404  34.166  0.00  0.00    -0.338 N 
ATOM     10  H21 UNL     1      18.050   0.648  34.522  0.00  0.00    +0.167 HD
ENDROOT
BRANCH   5  11
ATOM     11  C11 UNL     1      22.332   1.829  29.976  0.00  0.00    +0.247 C 
ATOM     12  O1  UNL     1      23.506   1.400  30.145  0.00  0.00    -0.270 OA
ATOM     13  N2  UNL     1      21.989   2.474  28.734  0.00  0.00    -0.298 N 
ATOM     14  C12 UNL     1      21.063   3.618  28.710  0.00  0.00    +0.108 C 
ATOM     15  C13 UNL     1      21.585   4.688  27.748  0.00  0.00    +0.022 C 
ATOM     16  C14 UNL     1      21.753   4.142  26.307  0.00  0.00    -0.011 C 
ATOM     17  C15 UNL     1      22.881   4.886  25.580  0.00  0.00    +0.007 C 
ATOM     18  C16 UNL     1      21.974   2.608  26.260  0.00  0.00    +0.022 C 
ATOM     19  C17 UNL     1      22.696   2.080  27.505  0.00  0.00    +0.108 C 
ENDBRANCH   5  11
BRANCH   1  26
ATOM     20  C1  UNL     1      18.107   6.473  37.823  0.00  0.00    +0.044 C 
ATOM     21  C2  UNL     1      17.736   5.108  37.325  0.00  0.00    -0.047 A 
ATOM     22  C3  UNL     1      16.751   4.361  37.985  0.00  0.00    +0.041 A 
ATOM     23  C4  UNL     1      16.432   3.075  37.544  0.00  0.00    +0.124 A 
ATOM     24  F1  UNL     1      15.475   2.360  38.186  0.00  0.00    -0.205 F 
ATOM     25  C5  UNL     1      17.100   2.521  36.448  0.00  0.00    +0.050 A 
ATOM     26  C6  UNL     1      18.103   3.250  35.780  0.00  0.00    +0.020 A 
ATOM     27  C21 UNL     1      18.419   4.544  36.236  0.00  0.00    +0.015 A 
ENDBRANCH   1  26
TORSDOF 2
ENDMDL
MODEL 9
REMARK VINA RESULT:    -7.021      6.584     10.283
REMARK INTER + INTRA:          -8.145
REMARK INTER:                  -7.877
REMARK INTRA:                  -0.268
REMARK UNBOUND:                -0.303
REMARK  Name = /home/qwerty/github/datacon2025hack/step_04_hit_selection/docking/ligands/lig_556.pdb
REMARK  4 active torsions:
REMARK  status: ('A' for Active; 'I' for Inactive)
REMARK    1  A    between atoms: C1_1  and  C2_2
REMARK    2  A    between atoms: C6_7  and  C7_8
REMARK    3  A    between atoms: C10_12  and  C11_13
REMARK    4  A    between atoms: C14_18  and  C15_19
REMARK                            x       y       z     vdW  Elec       q    Type
REMARK                         _______ _______ _______ _____ _____    ______ ____
ROOT
ATOM      1  C7  UNL     1      21.440   3.222  25.760  0.00  0.00    +0.139 A 
ATOM      2  N1  UNL     1      22.136   4.373  25.545  0.00  0.00    -0.228 NA
ATOM      3  C8  UNL     1      21.791   4.709  24.291  0.00  0.00    +0.090 A 
ATOM      4  C9  UNL     1      22.218   5.813  23.557  0.00  0.00    +0.043 A 
ATOM      5  C10 UNL     1      21.711   5.977  22.247  0.00  0.00    +0.039 A 
ATOM      6  C18 UNL     1      20.815   5.008  21.717  0.00  0.00    +0.015 A 
ATOM      7  C19 UNL     1      20.408   3.906  22.490  0.00  0.00    +0.028 A 
ATOM      8  C20 UNL     1      20.923   3.798  23.778  0.00  0.00    +0.067 A 
ATOM      9  N3  UNL     1      20.687   2.847  24.690  0.00  0.00    -0.338 N 
ATOM     10  H21 UNL     1      20.055   2.024  24.583  0.00  0.00    +0.167 HD
ENDROOT
BRANCH   5  11
ATOM     11  C11 UNL     1      22.145   7.129  21.427  0.00  0.00    +0.247 C 
ATOM     12  O1  UNL     1      23.361   7.464  21.440  0.00  0.00    -0.270 OA
ATOM     13  N2  UNL     1      21.217   7.876  20.617  0.00  0.00    -0.298 N 
ATOM     14  C12 UNL     1      19.842   8.124  21.082  0.00  0.00    +0.108 C 
ATOM     15  C13 UNL     1      19.440   9.566  20.767  0.00  0.00    +0.022 C 
ATOM     16  C14 UNL     1      19.525   9.876  19.250  0.00  0.00    -0.011 C 
ATOM     17  C15 UNL     1      19.844  11.359  19.023  0.00  0.00    +0.007 C 
ATOM     18  C16 UNL     1      20.532   8.967  18.500  0.00  0.00    +0.022 C 
ATOM     19  C17 UNL     1      21.701   8.525  19.389  0.00  0.00    +0.108 C 
ENDBRANCH   5  11
BRANCH   1  26
ATOM     20  C1  UNL     1      24.180   0.925  29.283  0.00  0.00    +0.044 C 
ATOM     21  C2  UNL     1      22.846   1.377  28.768  0.00  0.00    -0.047 A 
ATOM     22  C3  UNL     1      21.673   1.044  29.460  0.00  0.00    +0.041 A 
ATOM     23  C4  UNL     1      20.429   1.432  28.960  0.00  0.00    +0.124 A 
ATOM     24  F1  UNL     1      19.299   1.111  29.638  0.00  0.00    -0.205 F 
ATOM     25  C5  UNL     1      20.343   2.145  27.761  0.00  0.00    +0.050 A 
ATOM     26  C6  UNL     1      21.508   2.475  27.041  0.00  0.00    +0.020 A 
ATOM     27  C21 UNL     1      22.757   2.075  27.554  0.00  0.00    +0.015 A 
ENDBRANCH   1  26
TORSDOF 2
ENDMDL
