MODEL 1
REMARK VINA RESULT:    -6.235      0.000      0.000
REMARK INTER + INTRA:          -7.408
REMARK INTER:                  -6.964
REMARK INTRA:                  -0.445
REMARK UNBOUND:                -0.445
REMARK  Name = /home/qwerty/github/datacon2025hack/step_04_hit_selection/docking/ligands/lig_305.pdb
REMARK  2 active torsions:
REMARK  status: ('A' for Active; 'I' for Inactive)
REMARK    1  A    between atoms: C1_2  and  C10_15
REMARK    2  A    between atoms: N1_3  and  C2_4
REMARK                            x       y       z     vdW  Elec       q    Type
REMARK                         _______ _______ _______ _____ _____    ______ ____
ROOT
ATOM      1  O1  UNL     1      13.451   2.396  23.358  0.00  0.00    -0.270 OA
ATOM      2  C1  UNL     1      13.639   1.590  22.405  0.00  0.00    +0.248 C 
ATOM      3  N1  UNL     1      12.872   1.728  21.198  0.00  0.00    -0.280 N 
ATOM      4  H1  UNL     1      12.687   0.873  20.627  0.00  0.00    +0.155 HD
ENDROOT
BRANCH   3   5
ATOM      5  C2  UNL     1      12.094   2.899  20.911  0.00  0.00    +0.056 A 
ATOM      6  C3  UNL     1      10.739   2.924  21.278  0.00  0.00    +0.074 A 
ATOM      7  C4  UNL     1       9.956   4.049  21.005  0.00  0.00    +0.164 A 
ATOM      8  C5  UNL     1      10.525   5.163  20.377  0.00  0.00    +0.164 A 
ATOM      9  C6  UNL     1      11.861   5.135  19.971  0.00  0.00    +0.071 A 
ATOM     10  C7  UNL     1      12.649   4.006  20.228  0.00  0.00    +0.066 A 
ATOM     11 CL1  UNL     1      14.300   3.982  19.618  0.00  0.00    -0.081 Cl
ATOM     12  O2  UNL     1       9.733   6.296  20.155  0.00  0.00    -0.485 OA
ATOM     13  C8  UNL     1       8.462   6.444  20.793  0.00  0.00    +0.270 C 
ATOM     14  C9  UNL     1       7.733   5.094  20.843  0.00  0.00    +0.270 C 
ATOM     15  O3  UNL     1       8.603   4.080  21.353  0.00  0.00    -0.485 OA
ENDBRANCH   3   5
BRANCH   2  16
ATOM     16  C10 UNL     1      14.628   0.496  22.558  0.00  0.00    +0.041 A 
ATOM     17  C11 UNL     1      15.610   0.255  21.559  0.00  0.00    +0.017 A 
ATOM     18  C12 UNL     1      16.550  -0.780  21.712  0.00  0.00    +0.050 A 
ATOM     19  C13 UNL     1      16.490  -1.548  22.869  0.00  0.00    +0.166 A 
ATOM     20  C14 UNL     1      15.564  -1.322  23.833  0.00  0.00    +0.167 A 
ATOM     21  C15 UNL     1      14.615  -0.310  23.723  0.00  0.00    +0.062 A 
ATOM     22  O4  UNL     1      15.740  -2.226  24.862  0.00  0.00    -0.453 OA
ATOM     23  C16 UNL     1      16.847  -3.074  24.523  0.00  0.00    +0.466 C 
ATOM     24  O5  UNL     1      17.296  -2.606  23.244  0.00  0.00    -0.453 OA
ENDBRANCH   2  16
TORSDOF 2
ENDMDL
MODEL 2
REMARK VINA RESULT:    -6.047      9.147     12.031
REMARK INTER + INTRA:          -7.198
REMARK INTER:                  -6.746
REMARK INTRA:                  -0.452
REMARK UNBOUND:                -0.445
REMARK  Name = /home/qwerty/github/datacon2025hack/step_04_hit_selection/docking/ligands/lig_305.pdb
REMARK  2 active torsions:
REMARK  status: ('A' for Active; 'I' for Inactive)
REMARK    1  A    between atoms: C1_2  and  C10_15
REMARK    2  A    between atoms: N1_3  and  C2_4
REMARK                            x       y       z     vdW  Elec       q    Type
REMARK                         _______ _______ _______ _____ _____    ______ ____
ROOT
ATOM      1  O1  UNL     1      20.591   5.241  24.892  0.00  0.00    -0.270 OA
ATOM      2  C1  UNL     1      21.456   4.699  24.149  0.00  0.00    +0.248 C 
ATOM      3  N1  UNL     1      22.152   3.529  24.609  0.00  0.00    -0.280 N 
ATOM      4  H1  UNL     1      23.116   3.351  24.247  0.00  0.00    +0.155 HD
ENDROOT
BRANCH   3   5
ATOM      5  C2  UNL     1      21.725   2.782  25.758  0.00  0.00    +0.056 A 
ATOM      6  C3  UNL     1      22.324   3.042  27.001  0.00  0.00    +0.074 A 
ATOM      7  C4  UNL     1      21.933   2.325  28.134  0.00  0.00    +0.164 A 
ATOM      8  C5  UNL     1      20.929   1.354  28.038  0.00  0.00    +0.164 A 
ATOM      9  C6  UNL     1      20.355   1.058  26.800  0.00  0.00    +0.071 A 
ATOM     10  C7  UNL     1      20.752   1.762  25.656  0.00  0.00    +0.066 A 
ATOM     11 CL1  UNL     1      20.065   1.292  24.105  0.00  0.00    -0.081 Cl
ATOM     12  O2  UNL     1      20.521   0.681  29.196  0.00  0.00    -0.485 OA
ATOM     13  C8  UNL     1      20.898   1.150  30.493  0.00  0.00    +0.270 C 
ATOM     14  C9  UNL     1      22.343   1.667  30.472  0.00  0.00    +0.270 C 
ATOM     15  O3  UNL     1      22.531   2.566  29.375  0.00  0.00    -0.485 OA
ENDBRANCH   3   5
BRANCH   2  16
ATOM     16  C10 UNL     1      21.760   5.295  22.827  0.00  0.00    +0.041 A 
ATOM     17  C11 UNL     1      21.144   4.800  21.644  0.00  0.00    +0.017 A 
ATOM     18  C12 UNL     1      21.430   5.374  20.392  0.00  0.00    +0.050 A 
ATOM     19  C13 UNL     1      22.323   6.438  20.353  0.00  0.00    +0.166 A 
ATOM     20  C14 UNL     1      22.910   6.924  21.474  0.00  0.00    +0.167 A 
ATOM     21  C15 UNL     1      22.657   6.387  22.733  0.00  0.00    +0.062 A 
ATOM     22  O4  UNL     1      23.742   7.975  21.140  0.00  0.00    -0.453 OA
ATOM     23  C16 UNL     1      23.674   8.160  19.719  0.00  0.00    +0.466 C 
ATOM     24  O5  UNL     1      22.757   7.159  19.257  0.00  0.00    -0.453 OA
ENDBRANCH   2  16
TORSDOF 2
ENDMDL
MODEL 3
REMARK VINA RESULT:    -5.942      1.129      8.154
REMARK INTER + INTRA:          -7.082
REMARK INTER:                  -6.654
REMARK INTRA:                  -0.427
REMARK UNBOUND:                -0.445
REMARK  Name = /home/qwerty/github/datacon2025hack/step_04_hit_selection/docking/ligands/lig_305.pdb
REMARK  2 active torsions:
REMARK  status: ('A' for Active; 'I' for Inactive)
REMARK    1  A    between atoms: C1_2  and  C10_15
REMARK    2  A    between atoms: N1_3  and  C2_4
REMARK                            x       y       z     vdW  Elec       q    Type
REMARK                         _______ _______ _______ _____ _____    ______ ____
ROOT
ATOM      1  O1  UNL     1      13.953   3.522  22.159  0.00  0.00    -0.270 OA
ATOM      2  C1  UNL     1      12.982   2.971  21.570  0.00  0.00    +0.248 C 
ATOM      3  N1  UNL     1      13.089   1.597  21.162  0.00  0.00    -0.280 N 
ATOM      4  H1  UNL     1      12.535   1.282  20.333  0.00  0.00    +0.155 HD
ENDROOT
BRANCH   3   5
ATOM      5  C2  UNL     1      14.137   0.735  21.628  0.00  0.00    +0.056 A 
ATOM      6  C3  UNL     1      13.919  -0.042  22.777  0.00  0.00    +0.074 A 
ATOM      7  C4  UNL     1      14.924  -0.886  23.256  0.00  0.00    +0.164 A 
ATOM      8  C5  UNL     1      16.148  -0.972  22.583  0.00  0.00    +0.164 A 
ATOM      9  C6  UNL     1      16.390  -0.175  21.463  0.00  0.00    +0.071 A 
ATOM     10  C7  UNL     1      15.394   0.685  20.983  0.00  0.00    +0.066 A 
ATOM     11 CL1  UNL     1      15.778   1.734  19.624  0.00  0.00    -0.081 Cl
ATOM     12  O2  UNL     1      17.123  -1.859  23.056  0.00  0.00    -0.485 OA
ATOM     13  C8  UNL     1      16.801  -2.862  24.022  0.00  0.00    +0.270 C 
ATOM     14  C9  UNL     1      15.818  -2.303  25.061  0.00  0.00    +0.270 C 
ATOM     15  O3  UNL     1      14.724  -1.654  24.407  0.00  0.00    -0.485 OA
ENDBRANCH   3   5
BRANCH   2  16
ATOM     16  C10 UNL     1      11.760   3.758  21.283  0.00  0.00    +0.041 A 
ATOM     17  C11 UNL     1      11.793   4.855  20.379  0.00  0.00    +0.017 A 
ATOM     18  C12 UNL     1      10.629   5.595  20.105  0.00  0.00    +0.050 A 
ATOM     19  C13 UNL     1       9.452   5.215  20.740  0.00  0.00    +0.166 A 
ATOM     20  C14 UNL     1       9.405   4.166  21.598  0.00  0.00    +0.167 A 
ATOM     21  C15 UNL     1      10.533   3.406  21.898  0.00  0.00    +0.062 A 
ATOM     22  O4  UNL     1       8.118   4.016  22.074  0.00  0.00    -0.453 OA
ATOM     23  C16 UNL     1       7.303   5.036  21.477  0.00  0.00    +0.466 C 
ATOM     24  O5  UNL     1       8.195   5.778  20.633  0.00  0.00    -0.453 OA
ENDBRANCH   2  16
TORSDOF 2
ENDMDL
MODEL 4
REMARK VINA RESULT:    -5.842     17.172     17.758
REMARK INTER + INTRA:          -6.969
REMARK INTER:                  -6.524
REMARK INTRA:                  -0.445
REMARK UNBOUND:                -0.445
REMARK  Name = /home/qwerty/github/datacon2025hack/step_04_hit_selection/docking/ligands/lig_305.pdb
REMARK  2 active torsions:
REMARK  status: ('A' for Active; 'I' for Inactive)
REMARK    1  A    between atoms: C1_2  and  C10_15
REMARK    2  A    between atoms: N1_3  and  C2_4
REMARK                            x       y       z     vdW  Elec       q    Type
REMARK                         _______ _______ _______ _____ _____    ______ ____
ROOT
ATOM      1  O1  UNL     1      18.408   9.621  34.694  0.00  0.00    -0.270 OA
ATOM      2  C1  UNL     1      19.083   9.694  35.758  0.00  0.00    +0.248 C 
ATOM      3  N1  UNL     1      18.698  10.630  36.779  0.00  0.00    -0.280 N 
ATOM      4  H1  UNL     1      19.441  11.009  37.409  0.00  0.00    +0.155 HD
ENDROOT
BRANCH   3   5
ATOM      5  C2  UNL     1      17.429  11.298  36.771  0.00  0.00    +0.056 A 
ATOM      6  C3  UNL     1      17.372  12.650  36.393  0.00  0.00    +0.074 A 
ATOM      7  C4  UNL     1      16.151  13.327  36.383  0.00  0.00    +0.164 A 
ATOM      8  C5  UNL     1      14.973  12.657  36.735  0.00  0.00    +0.164 A 
ATOM      9  C6  UNL     1      15.022  11.324  37.151  0.00  0.00    +0.071 A 
ATOM     10  C7  UNL     1      16.245  10.641  37.178  0.00  0.00    +0.066 A 
ATOM     11 CL1  UNL     1      16.269   8.993  37.794  0.00  0.00    -0.081 Cl
ATOM     12  O2  UNL     1      13.755  13.343  36.672  0.00  0.00    -0.485 OA
ATOM     13  C8  UNL     1      13.652  14.603  36.003  0.00  0.00    +0.270 C 
ATOM     14  C9  UNL     1      14.905  15.449  36.267  0.00  0.00    +0.270 C 
ATOM     15  O3  UNL     1      16.084  14.676  36.022  0.00  0.00    -0.485 OA
ENDBRANCH   3   5
BRANCH   2  16
ATOM     16  C10 UNL     1      20.277   8.832  35.926  0.00  0.00    +0.041 A 
ATOM     17  C11 UNL     1      20.597   8.266  37.190  0.00  0.00    +0.017 A 
ATOM     18  C12 UNL     1      21.728   7.444  37.342  0.00  0.00    +0.050 A 
ATOM     19  C13 UNL     1      22.511   7.200  36.220  0.00  0.00    +0.166 A 
ATOM     20  C14 UNL     1      22.211   7.726  35.007  0.00  0.00    +0.167 A 
ATOM     21  C15 UNL     1      21.103   8.545  34.811  0.00  0.00    +0.062 A 
ATOM     22  O4  UNL     1      23.152   7.318  34.082  0.00  0.00    -0.453 OA
ATOM     23  C16 UNL     1      24.103   6.482  34.756  0.00  0.00    +0.466 C 
ATOM     24  O5  UNL     1      23.656   6.433  36.118  0.00  0.00    -0.453 OA
ENDBRANCH   2  16
TORSDOF 2
ENDMDL
MODEL 5
REMARK VINA RESULT:    -5.809      7.184     11.149
REMARK INTER + INTRA:          -6.933
REMARK INTER:                  -6.493
REMARK INTRA:                  -0.440
REMARK UNBOUND:                -0.445
REMARK  Name = /home/qwerty/github/datacon2025hack/step_04_hit_selection/docking/ligands/lig_305.pdb
REMARK  2 active torsions:
REMARK  status: ('A' for Active; 'I' for Inactive)
REMARK    1  A    between atoms: C1_2  and  C10_15
REMARK    2  A    between atoms: N1_3  and  C2_4
REMARK                            x       y       z     vdW  Elec       q    Type
REMARK                         _______ _______ _______ _____ _____    ______ ____
ROOT
ATOM      1  O1  UNL     1       7.606   9.506  25.940  0.00  0.00    -0.270 OA
ATOM      2  C1  UNL     1       8.738  10.029  25.745  0.00  0.00    +0.248 C 
ATOM      3  N1  UNL     1       9.570   9.541  24.681  0.00  0.00    -0.280 N 
ATOM      4  H1  UNL     1      10.607   9.628  24.782  0.00  0.00    +0.155 HD
ENDROOT
BRANCH   3   5
ATOM      5  C2  UNL     1       9.074   8.671  23.653  0.00  0.00    +0.056 A 
ATOM      6  C3  UNL     1       9.418   7.310  23.687  0.00  0.00    +0.074 A 
ATOM      7  C4  UNL     1       8.955   6.441  22.696  0.00  0.00    +0.164 A 
ATOM      8  C5  UNL     1       8.131   6.922  21.671  0.00  0.00    +0.164 A 
ATOM      9  C6  UNL     1       7.815   8.281  21.604  0.00  0.00    +0.071 A 
ATOM     10  C7  UNL     1       8.288   9.161  22.586  0.00  0.00    +0.066 A 
ATOM     11 CL1  UNL     1       7.938  10.877  22.409  0.00  0.00    -0.081 Cl
ATOM     12  O2  UNL     1       7.641   6.025  20.716  0.00  0.00    -0.485 OA
ATOM     13  C8  UNL     1       7.729   4.612  20.917  0.00  0.00    +0.270 C 
ATOM     14  C9  UNL     1       9.069   4.252  21.574  0.00  0.00    +0.270 C 
ATOM     15  O3  UNL     1       9.301   5.088  22.712  0.00  0.00    -0.485 OA
ENDBRANCH   3   5
BRANCH   2  16
ATOM     16  C10 UNL     1       9.202  11.120  26.636  0.00  0.00    +0.041 A 
ATOM     17  C11 UNL     1       8.292  11.801  27.490  0.00  0.00    +0.017 A 
ATOM     18  C12 UNL     1       8.738  12.830  28.339  0.00  0.00    +0.050 A 
ATOM     19  C13 UNL     1      10.090  13.150  28.318  0.00  0.00    +0.166 A 
ATOM     20  C14 UNL     1      10.969  12.502  27.514  0.00  0.00    +0.167 A 
ATOM     21  C15 UNL     1      10.572  11.478  26.659  0.00  0.00    +0.062 A 
ATOM     22  O4  UNL     1      12.235  13.022  27.701  0.00  0.00    -0.453 OA
ATOM     23  C16 UNL     1      12.146  14.062  28.685  0.00  0.00    +0.466 C 
ATOM     24  O5  UNL     1      10.760  14.110  29.052  0.00  0.00    -0.453 OA
ENDBRANCH   2  16
TORSDOF 2
ENDMDL
MODEL 6
REMARK VINA RESULT:    -5.800     12.862     15.132
REMARK INTER + INTRA:          -6.923
REMARK INTER:                  -6.548
REMARK INTRA:                  -0.375
REMARK UNBOUND:                -0.445
REMARK  Name = /home/qwerty/github/datacon2025hack/step_04_hit_selection/docking/ligands/lig_305.pdb
REMARK  2 active torsions:
REMARK  status: ('A' for Active; 'I' for Inactive)
REMARK    1  A    between atoms: C1_2  and  C10_15
REMARK    2  A    between atoms: N1_3  and  C2_4
REMARK                            x       y       z     vdW  Elec       q    Type
REMARK                         _______ _______ _______ _____ _____    ______ ____
ROOT
ATOM      1  O1  UNL     1      21.610   2.830  32.697  0.00  0.00    -0.270 OA
ATOM      2  C1  UNL     1      21.818   3.612  31.728  0.00  0.00    +0.248 C 
ATOM      3  N1  UNL     1      22.037   5.009  31.979  0.00  0.00    -0.280 N 
ATOM      4  H1  UNL     1      21.769   5.694  31.237  0.00  0.00    +0.155 HD
ENDROOT
BRANCH   3   5
ATOM      5  C2  UNL     1      22.302   5.523  33.293  0.00  0.00    +0.056 A 
ATOM      6  C3  UNL     1      21.221   5.815  34.141  0.00  0.00    +0.074 A 
ATOM      7  C4  UNL     1      21.449   6.321  35.422  0.00  0.00    +0.164 A 
ATOM      8  C5  UNL     1      22.759   6.527  35.873  0.00  0.00    +0.164 A 
ATOM      9  C6  UNL     1      23.840   6.278  35.024  0.00  0.00    +0.071 A 
ATOM     10  C7  UNL     1      23.619   5.783  33.732  0.00  0.00    +0.066 A 
ATOM     11 CL1  UNL     1      25.007   5.571  32.670  0.00  0.00    -0.081 Cl
ATOM     12  O2  UNL     1      22.964   6.992  37.177  0.00  0.00    -0.485 OA
ATOM     13  C8  UNL     1      21.903   6.995  38.135  0.00  0.00    +0.270 C 
ATOM     14  C9  UNL     1      20.582   7.394  37.462  0.00  0.00    +0.270 C 
ATOM     15  O3  UNL     1      20.382   6.628  36.271  0.00  0.00    -0.485 OA
ENDBRANCH   3   5
BRANCH   2  16
ATOM     16  C10 UNL     1      21.804   3.079  30.344  0.00  0.00    +0.041 A 
ATOM     17  C11 UNL     1      22.140   1.723  30.081  0.00  0.00    +0.017 A 
ATOM     18  C12 UNL     1      22.119   1.220  28.768  0.00  0.00    +0.050 A 
ATOM     19  C13 UNL     1      21.754   2.088  27.745  0.00  0.00    +0.166 A 
ATOM     20  C14 UNL     1      21.423   3.381  27.984  0.00  0.00    +0.167 A 
ATOM     21  C15 UNL     1      21.431   3.920  29.268  0.00  0.00    +0.062 A 
ATOM     22  O4  UNL     1      21.104   4.003  26.793  0.00  0.00    -0.453 OA
ATOM     23  C16 UNL     1      21.242   3.040  25.739  0.00  0.00    +0.466 C 
ATOM     24  O5  UNL     1      21.659   1.832  26.391  0.00  0.00    -0.453 OA
ENDBRANCH   2  16
TORSDOF 2
ENDMDL
MODEL 7
REMARK VINA RESULT:    -5.792     17.141     19.346
REMARK INTER + INTRA:          -6.914
REMARK INTER:                  -6.428
REMARK INTRA:                  -0.486
REMARK UNBOUND:                -0.445
REMARK  Name = /home/qwerty/github/datacon2025hack/step_04_hit_selection/docking/ligands/lig_305.pdb
REMARK  2 active torsions:
REMARK  status: ('A' for Active; 'I' for Inactive)
REMARK    1  A    between atoms: C1_2  and  C10_15
REMARK    2  A    between atoms: N1_3  and  C2_4
REMARK                            x       y       z     vdW  Elec       q    Type
REMARK                         _______ _______ _______ _____ _____    ______ ____
ROOT
ATOM      1  O1  UNL     1      17.342   9.439  35.331  0.00  0.00    -0.270 OA
ATOM      2  C1  UNL     1      17.634  10.532  35.892  0.00  0.00    +0.248 C 
ATOM      3  N1  UNL     1      18.983  10.766  36.328  0.00  0.00    -0.280 N 
ATOM      4  H1  UNL     1      19.138  11.405  37.140  0.00  0.00    +0.155 HD
ENDROOT
BRANCH   3   5
ATOM      5  C2  UNL     1      20.080   9.935  35.918  0.00  0.00    +0.056 A 
ATOM      6  C3  UNL     1      20.553   8.948  36.798  0.00  0.00    +0.074 A 
ATOM      7  C4  UNL     1      21.623   8.130  36.427  0.00  0.00    +0.164 A 
ATOM      8  C5  UNL     1      22.218   8.280  35.169  0.00  0.00    +0.164 A 
ATOM      9  C6  UNL     1      21.782   9.285  34.302  0.00  0.00    +0.071 A 
ATOM     10  C7  UNL     1      20.720  10.119  34.671  0.00  0.00    +0.066 A 
ATOM     11 CL1  UNL     1      20.266  11.426  33.584  0.00  0.00    -0.081 Cl
ATOM     12  O2  UNL     1      23.258   7.419  34.802  0.00  0.00    -0.485 OA
ATOM     13  C8  UNL     1      23.533   6.233  35.553  0.00  0.00    +0.270 C 
ATOM     14  C9  UNL     1      23.362   6.503  37.054  0.00  0.00    +0.270 C 
ATOM     15  O3  UNL     1      22.112   7.154  37.299  0.00  0.00    -0.485 OA
ENDBRANCH   3   5
BRANCH   2  16
ATOM     16  C10 UNL     1      16.575  11.543  36.117  0.00  0.00    +0.041 A 
ATOM     17  C11 UNL     1      15.297  11.164  36.613  0.00  0.00    +0.017 A 
ATOM     18  C12 UNL     1      14.297  12.129  36.831  0.00  0.00    +0.050 A 
ATOM     19  C13 UNL     1      14.602  13.456  36.555  0.00  0.00    +0.166 A 
ATOM     20  C14 UNL     1      15.819  13.832  36.090  0.00  0.00    +0.167 A 
ATOM     21  C15 UNL     1      16.837  12.911  35.859  0.00  0.00    +0.062 A 
ATOM     22  O4  UNL     1      15.841  15.200  35.908  0.00  0.00    -0.453 OA
ATOM     23  C16 UNL     1      14.556  15.718  36.282  0.00  0.00    +0.466 C 
ATOM     24  O5  UNL     1      13.797  14.571  36.688  0.00  0.00    -0.453 OA
ENDBRANCH   2  16
TORSDOF 2
ENDMDL
MODEL 8
REMARK VINA RESULT:    -5.791      5.857      7.967
REMARK INTER + INTRA:          -6.913
REMARK INTER:                  -6.447
REMARK INTRA:                  -0.466
REMARK UNBOUND:                -0.445
REMARK  Name = /home/qwerty/github/datacon2025hack/step_04_hit_selection/docking/ligands/lig_305.pdb
REMARK  2 active torsions:
REMARK  status: ('A' for Active; 'I' for Inactive)
REMARK    1  A    between atoms: C1_2  and  C10_15
REMARK    2  A    between atoms: N1_3  and  C2_4
REMARK                            x       y       z     vdW  Elec       q    Type
REMARK                         _______ _______ _______ _____ _____    ______ ____
ROOT
ATOM      1  O1  UNL     1      20.387   1.421  24.418  0.00  0.00    -0.270 OA
ATOM      2  C1  UNL     1      19.729   1.317  25.490  0.00  0.00    +0.248 C 
ATOM      3  N1  UNL     1      18.310   1.098  25.432  0.00  0.00    -0.280 N 
ATOM      4  H1  UNL     1      17.723   1.445  26.224  0.00  0.00    +0.155 HD
ENDROOT
BRANCH   3   5
ATOM      5  C2  UNL     1      17.638   0.719  24.222  0.00  0.00    +0.056 A 
ATOM      6  C3  UNL     1      17.089   1.721  23.406  0.00  0.00    +0.074 A 
ATOM      7  C4  UNL     1      16.424   1.382  22.225  0.00  0.00    +0.164 A 
ATOM      8  C5  UNL     1      16.316   0.039  21.842  0.00  0.00    +0.164 A 
ATOM      9  C6  UNL     1      16.823  -0.968  22.666  0.00  0.00    +0.071 A 
ATOM     10  C7  UNL     1      17.479  -0.637  23.859  0.00  0.00    +0.066 A 
ATOM     11 CL1  UNL     1      18.020  -1.944  24.905  0.00  0.00    -0.081 Cl
ATOM     12  O2  UNL     1      15.685  -0.274  20.633  0.00  0.00    -0.485 OA
ATOM     13  C8  UNL     1      15.404   0.740  19.663  0.00  0.00    +0.270 C 
ATOM     14  C9  UNL     1      14.952   2.030  20.360  0.00  0.00    +0.270 C 
ATOM     15  O3  UNL     1      15.861   2.369  21.412  0.00  0.00    -0.485 OA
ENDBRANCH   3   5
BRANCH   2  16
ATOM     16  C10 UNL     1      20.427   1.451  26.790  0.00  0.00    +0.041 A 
ATOM     17  C11 UNL     1      21.737   1.999  26.862  0.00  0.00    +0.017 A 
ATOM     18  C12 UNL     1      22.393   2.131  28.100  0.00  0.00    +0.050 A 
ATOM     19  C13 UNL     1      21.717   1.716  29.241  0.00  0.00    +0.166 A 
ATOM     20  C14 UNL     1      20.465   1.200  29.187  0.00  0.00    +0.167 A 
ATOM     21  C15 UNL     1      19.779   1.051  27.985  0.00  0.00    +0.062 A 
ATOM     22  O4  UNL     1      20.043   0.878  30.462  0.00  0.00    -0.453 OA
ATOM     23  C16 UNL     1      21.097   1.214  31.375  0.00  0.00    +0.466 C 
ATOM     24  O5  UNL     1      22.146   1.745  30.554  0.00  0.00    -0.453 OA
ENDBRANCH   2  16
TORSDOF 2
ENDMDL
MODEL 9
REMARK VINA RESULT:    -5.663      8.436      9.893
REMARK INTER + INTRA:          -6.770
REMARK INTER:                  -6.351
REMARK INTRA:                  -0.419
REMARK UNBOUND:                -0.445
REMARK  Name = /home/qwerty/github/datacon2025hack/step_04_hit_selection/docking/ligands/lig_305.pdb
REMARK  2 active torsions:
REMARK  status: ('A' for Active; 'I' for Inactive)
REMARK    1  A    between atoms: C1_2  and  C10_15
REMARK    2  A    between atoms: N1_3  and  C2_4
REMARK                            x       y       z     vdW  Elec       q    Type
REMARK                         _______ _______ _______ _____ _____    ______ ____
ROOT
ATOM      1  O1  UNL     1      20.284   5.298  24.937  0.00  0.00    -0.270 OA
ATOM      2  C1  UNL     1      20.791   4.209  24.548  0.00  0.00    +0.248 C 
ATOM      3  N1  UNL     1      21.112   4.035  23.158  0.00  0.00    -0.280 N 
ATOM      4  H1  UNL     1      21.097   3.067  22.763  0.00  0.00    +0.155 HD
ENDROOT
BRANCH   3   5
ATOM      5  C2  UNL     1      21.140   5.130  22.231  0.00  0.00    +0.056 A 
ATOM      6  C3  UNL     1      22.259   5.979  22.212  0.00  0.00    +0.074 A 
ATOM      7  C4  UNL     1      22.310   7.056  21.325  0.00  0.00    +0.164 A 
ATOM      8  C5  UNL     1      21.251   7.286  20.438  0.00  0.00    +0.164 A 
ATOM      9  C6  UNL     1      20.116   6.473  20.475  0.00  0.00    +0.071 A 
ATOM     10  C7  UNL     1      20.050   5.399  21.372  0.00  0.00    +0.066 A 
ATOM     11 CL1  UNL     1      18.564   4.459  21.443  0.00  0.00    -0.081 Cl
ATOM     12  O2  UNL     1      21.345   8.344  19.526  0.00  0.00    -0.485 OA
ATOM     13  C8  UNL     1      22.589   9.008  19.293  0.00  0.00    +0.270 C 
ATOM     14  C9  UNL     1      23.362   9.165  20.610  0.00  0.00    +0.270 C 
ATOM     15  O3  UNL     1      23.411   7.916  21.306  0.00  0.00    -0.485 OA
ENDBRANCH   3   5
BRANCH   2  16
ATOM     16  C10 UNL     1      21.020   3.119  25.525  0.00  0.00    +0.041 A 
ATOM     17  C11 UNL     1      20.154   1.993  25.579  0.00  0.00    +0.017 A 
ATOM     18  C12 UNL     1      20.379   0.958  26.503  0.00  0.00    +0.050 A 
ATOM     19  C13 UNL     1      21.474   1.070  27.352  0.00  0.00    +0.166 A 
ATOM     20  C14 UNL     1      22.313   2.134  27.304  0.00  0.00    +0.167 A 
ATOM     21  C15 UNL     1      22.128   3.181  26.406  0.00  0.00    +0.062 A 
ATOM     22  O4  UNL     1      23.306   1.981  28.251  0.00  0.00    -0.453 OA
ATOM     23  C16 UNL     1      23.078   0.741  28.937  0.00  0.00    +0.466 C 
ATOM     24  O5  UNL     1      21.899   0.193  28.331  0.00  0.00    -0.453 OA
ENDBRANCH   2  16
TORSDOF 2
ENDMDL
