MODEL 1
REMARK VINA RESULT:    -6.341      0.000      0.000
REMARK INTER + INTRA:          -8.172
REMARK INTER:                  -7.453
REMARK INTRA:                  -0.719
REMARK UNBOUND:                -0.719
REMARK  Name = /home/qwerty/github/datacon2025hack/step_04_hit_selection/docking/ligands/lig_553.pdb
REMARK  3 active torsions:
REMARK  status: ('A' for Active; 'I' for Inactive)
REMARK    1  A    between atoms: C1_2  and  C11_14
REMARK    2  A    between atoms: N1_3  and  C2_4
REMARK    3  A    between atoms: C2_4  and  C3_5
REMARK                            x       y       z     vdW  Elec       q    Type
REMARK                         _______ _______ _______ _____ _____    ______ ____
ROOT
ATOM      1  O1  UNL     1      20.532   2.590  26.246  0.00  0.00    -0.270 OA
ATOM      2  C1  UNL     1      20.670   1.464  26.796  0.00  0.00    +0.246 C 
ATOM      3  N1  UNL     1      20.343   0.270  26.072  0.00  0.00    -0.307 N 
ATOM      4  H1  UNL     1      20.755  -0.641  26.375  0.00  0.00    +0.149 HD
ENDROOT
BRANCH   2   5
ATOM      5  C11 UNL     1      21.197   1.392  28.169  0.00  0.00    +0.063 A 
ATOM      6  C12 UNL     1      22.536   1.515  28.538  0.00  0.00    +0.098 A 
ATOM      7  N2  UNL     1      22.670   1.417  29.880  0.00  0.00    -0.345 N 
ATOM      8  C13 UNL     1      21.427   1.248  30.357  0.00  0.00    +0.139 A 
ATOM      9  N3  UNL     1      21.082   1.149  31.666  0.00  0.00    -0.237 NA
ATOM     10  C14 UNL     1      19.762   1.031  31.998  0.00  0.00    +0.113 A 
ATOM     11  C15 UNL     1      18.768   1.034  30.996  0.00  0.00    +0.020 A 
ATOM     12  C16 UNL     1      19.135   1.146  29.644  0.00  0.00    +0.014 A 
ATOM     13  C17 UNL     1      20.497   1.233  29.353  0.00  0.00    +0.031 A 
ATOM     14  H12 UNL     1      23.555   1.478  30.430  0.00  0.00    +0.167 HD
ENDBRANCH   2   5
BRANCH   3  15
ATOM     15  C2  UNL     1      19.451   0.280  24.916  0.00  0.00    +0.139 C 
BRANCH  15  16
ATOM     16  C3  UNL     1      18.084  -0.200  25.322  0.00  0.00    -0.030 A 
ATOM     17  C4  UNL     1      17.327   0.516  26.279  0.00  0.00    +0.009 A 
ATOM     18  C5  UNL     1      16.071   0.040  26.691  0.00  0.00    +0.046 A 
ATOM     19  C6  UNL     1      15.602  -1.150  26.138  0.00  0.00    +0.124 A 
ATOM     20  C7  UNL     1      16.327  -1.849  25.219  0.00  0.00    -0.002 A 
ATOM     21  C8  UNL     1      17.577  -1.404  24.789  0.00  0.00    +0.012 A 
ATOM     22  C9  UNL     1      15.590  -3.075  24.817  0.00  0.00    +0.080 C 
ATOM     23  C10 UNL     1      14.291  -2.977  25.656  0.00  0.00    +0.234 C 
ATOM     24  O2  UNL     1      14.408  -1.776  26.418  0.00  0.00    -0.491 OA
ENDBRANCH  15  16
ENDBRANCH   3  15
TORSDOF 3
ENDMDL
MODEL 2
REMARK VINA RESULT:    -6.271      5.971      8.461
REMARK INTER + INTRA:          -8.090
REMARK INTER:                  -7.278
REMARK INTRA:                  -0.812
REMARK UNBOUND:                -0.719
REMARK  Name = /home/qwerty/github/datacon2025hack/step_04_hit_selection/docking/ligands/lig_553.pdb
REMARK  3 active torsions:
REMARK  status: ('A' for Active; 'I' for Inactive)
REMARK    1  A    between atoms: C1_2  and  C11_14
REMARK    2  A    between atoms: N1_3  and  C2_4
REMARK    3  A    between atoms: C2_4  and  C3_5
REMARK                            x       y       z     vdW  Elec       q    Type
REMARK                         _______ _______ _______ _____ _____    ______ ____
ROOT
ATOM      1  O1  UNL     1      22.717   6.113  32.244  0.00  0.00    -0.270 OA
ATOM      2  C1  UNL     1      22.724   5.451  33.317  0.00  0.00    +0.246 C 
ATOM      3  N1  UNL     1      22.809   4.020  33.275  0.00  0.00    -0.307 N 
ATOM      4  H1  UNL     1      23.145   3.503  34.117  0.00  0.00    +0.149 HD
ENDROOT
BRANCH   2   5
ATOM      5  C11 UNL     1      22.677   6.165  34.603  0.00  0.00    +0.063 A 
ATOM      6  C12 UNL     1      23.730   6.863  35.191  0.00  0.00    +0.098 A 
ATOM      7  N2  UNL     1      23.341   7.415  36.363  0.00  0.00    -0.345 N 
ATOM      8  C13 UNL     1      22.050   7.081  36.509  0.00  0.00    +0.139 A 
ATOM      9  N3  UNL     1      21.239   7.463  37.527  0.00  0.00    -0.237 NA
ATOM     10  C14 UNL     1      19.926   7.084  37.509  0.00  0.00    +0.113 A 
ATOM     11  C15 UNL     1      19.414   6.324  36.435  0.00  0.00    +0.020 A 
ATOM     12  C16 UNL     1      20.261   5.942  35.381  0.00  0.00    +0.014 A 
ATOM     13  C17 UNL     1      21.599   6.327  35.459  0.00  0.00    +0.031 A 
ATOM     14  H12 UNL     1      23.921   7.994  37.009  0.00  0.00    +0.167 HD
ENDBRANCH   2   5
BRANCH   3  15
ATOM     15  C2  UNL     1      22.442   3.254  32.087  0.00  0.00    +0.139 C 
BRANCH  15  16
ATOM     16  C3  UNL     1      21.276   2.357  32.398  0.00  0.00    -0.030 A 
ATOM     17  C4  UNL     1      20.957   1.271  31.547  0.00  0.00    +0.009 A 
ATOM     18  C5  UNL     1      19.840   0.464  31.815  0.00  0.00    +0.046 A 
ATOM     19  C6  UNL     1      19.059   0.765  32.929  0.00  0.00    +0.124 A 
ATOM     20  C7  UNL     1      19.354   1.812  33.751  0.00  0.00    -0.002 A 
ATOM     21  C8  UNL     1      20.457   2.632  33.514  0.00  0.00    +0.012 A 
ATOM     22  C9  UNL     1      18.349   1.900  34.841  0.00  0.00    +0.080 C 
ATOM     23  C10 UNL     1      17.405   0.713  34.525  0.00  0.00    +0.234 C 
ATOM     24  O2  UNL     1      17.929   0.099  33.348  0.00  0.00    -0.491 OA
ENDBRANCH  15  16
ENDBRANCH   3  15
TORSDOF 3
ENDMDL
MODEL 3
REMARK VINA RESULT:    -6.233     14.000     15.170
REMARK INTER + INTRA:          -8.045
REMARK INTER:                  -7.464
REMARK INTRA:                  -0.581
REMARK UNBOUND:                -0.719
REMARK  Name = /home/qwerty/github/datacon2025hack/step_04_hit_selection/docking/ligands/lig_553.pdb
REMARK  3 active torsions:
REMARK  status: ('A' for Active; 'I' for Inactive)
REMARK    1  A    between atoms: C1_2  and  C11_14
REMARK    2  A    between atoms: N1_3  and  C2_4
REMARK    3  A    between atoms: C2_4  and  C3_5
REMARK                            x       y       z     vdW  Elec       q    Type
REMARK                         _______ _______ _______ _____ _____    ______ ____
ROOT
ATOM      1  O1  UNL     1       7.946   9.583  27.738  0.00  0.00    -0.270 OA
ATOM      2  C1  UNL     1       8.182  10.678  27.158  0.00  0.00    +0.246 C 
ATOM      3  N1  UNL     1       7.897  10.824  25.760  0.00  0.00    -0.307 N 
ATOM      4  H1  UNL     1       7.771  11.780  25.362  0.00  0.00    +0.149 HD
ENDROOT
BRANCH   2   5
ATOM      5  C11 UNL     1       8.720  11.804  27.939  0.00  0.00    +0.063 A 
ATOM      6  C12 UNL     1       8.083  12.440  29.004  0.00  0.00    +0.098 A 
ATOM      7  N2  UNL     1       8.863  13.423  29.507  0.00  0.00    -0.345 N 
ATOM      8  C13 UNL     1       9.988  13.401  28.776  0.00  0.00    +0.139 A 
ATOM      9  N3  UNL     1      11.075  14.193  28.964  0.00  0.00    -0.237 NA
ATOM     10  C14 UNL     1      12.171  14.016  28.167  0.00  0.00    +0.113 A 
ATOM     11  C15 UNL     1      12.183  13.009  27.178  0.00  0.00    +0.020 A 
ATOM     12  C16 UNL     1      11.056  12.189  26.998  0.00  0.00    +0.014 A 
ATOM     13  C17 UNL     1       9.950  12.428  27.815  0.00  0.00    +0.031 A 
ATOM     14  H12 UNL     1       8.641  14.055  30.307  0.00  0.00    +0.167 HD
ENDBRANCH   2   5
BRANCH   3  15
ATOM     15  C2  UNL     1       7.772   9.675  24.868  0.00  0.00    +0.139 C 
BRANCH  15  16
ATOM     16  C3  UNL     1       8.504   9.946  23.582  0.00  0.00    -0.030 A 
ATOM     17  C4  UNL     1       7.789  10.228  22.394  0.00  0.00    +0.009 A 
ATOM     18  C5  UNL     1       8.473  10.434  21.185  0.00  0.00    +0.046 A 
ATOM     19  C6  UNL     1       9.863  10.347  21.190  0.00  0.00    +0.124 A 
ATOM     20  C7  UNL     1      10.561  10.070  22.329  0.00  0.00    -0.002 A 
ATOM     21  C8  UNL     1       9.912   9.861  23.545  0.00  0.00    +0.012 A 
ATOM     22  C9  UNL     1      12.017  10.029  22.034  0.00  0.00    +0.080 C 
ATOM     23  C10 UNL     1      12.062  10.336  20.516  0.00  0.00    +0.234 C 
ATOM     24  O2  UNL     1      10.704  10.509  20.111  0.00  0.00    -0.491 OA
ENDBRANCH  15  16
ENDBRANCH   3  15
TORSDOF 3
ENDMDL
MODEL 4
REMARK VINA RESULT:    -6.164     13.728     15.135
REMARK INTER + INTRA:          -7.964
REMARK INTER:                  -7.203
REMARK INTRA:                  -0.761
REMARK UNBOUND:                -0.719
REMARK  Name = /home/qwerty/github/datacon2025hack/step_04_hit_selection/docking/ligands/lig_553.pdb
REMARK  3 active torsions:
REMARK  status: ('A' for Active; 'I' for Inactive)
REMARK    1  A    between atoms: C1_2  and  C11_14
REMARK    2  A    between atoms: N1_3  and  C2_4
REMARK    3  A    between atoms: C2_4  and  C3_5
REMARK                            x       y       z     vdW  Elec       q    Type
REMARK                         _______ _______ _______ _____ _____    ______ ____
ROOT
ATOM      1  O1  UNL     1      23.059  16.276  20.318  0.00  0.00    -0.270 OA
ATOM      2  C1  UNL     1      23.637  15.227  20.713  0.00  0.00    +0.246 C 
ATOM      3  N1  UNL     1      23.968  14.195  19.774  0.00  0.00    -0.307 N 
ATOM      4  H1  UNL     1      24.716  13.507  20.014  0.00  0.00    +0.149 HD
ENDROOT
BRANCH   2   5
ATOM      5  C11 UNL     1      23.992  15.093  22.136  0.00  0.00    +0.063 A 
ATOM      6  C12 UNL     1      25.100  15.665  22.760  0.00  0.00    +0.098 A 
ATOM      7  N2  UNL     1      25.117  15.356  24.076  0.00  0.00    -0.345 N 
ATOM      8  C13 UNL     1      24.023  14.608  24.287  0.00  0.00    +0.139 A 
ATOM      9  N3  UNL     1      23.614  14.114  25.482  0.00  0.00    -0.237 NA
ATOM     10  C14 UNL     1      22.445  13.411  25.546  0.00  0.00    +0.113 A 
ATOM     11  C15 UNL     1      21.660  13.219  24.388  0.00  0.00    +0.020 A 
ATOM     12  C16 UNL     1      22.088  13.743  23.156  0.00  0.00    +0.014 A 
ATOM     13  C17 UNL     1      23.303  14.428  23.136  0.00  0.00    +0.031 A 
ATOM     14  H12 UNL     1      25.825  15.653  24.783  0.00  0.00    +0.167 HD
ENDBRANCH   2   5
BRANCH   3  15
ATOM     15  C2  UNL     1      23.296  14.072  18.484  0.00  0.00    +0.139 C 
BRANCH  15  16
ATOM     16  C3  UNL     1      22.037  13.264  18.639  0.00  0.00    -0.030 A 
ATOM     17  C4  UNL     1      20.804  13.901  18.915  0.00  0.00    +0.009 A 
ATOM     18  C5  UNL     1      19.638  13.141  19.106  0.00  0.00    +0.046 A 
ATOM     19  C6  UNL     1      19.735  11.754  19.023  0.00  0.00    +0.124 A 
ATOM     20  C7  UNL     1      20.919  11.130  18.764  0.00  0.00    -0.002 A 
ATOM     21  C8  UNL     1      22.094  11.856  18.568  0.00  0.00    +0.012 A 
ATOM     22  C9  UNL     1      20.724   9.657  18.746  0.00  0.00    +0.080 C 
ATOM     23  C10 UNL     1      19.208   9.515  19.035  0.00  0.00    +0.234 C 
ATOM     24  O2  UNL     1      18.713  10.845  19.187  0.00  0.00    -0.491 OA
ENDBRANCH  15  16
ENDBRANCH   3  15
TORSDOF 3
ENDMDL
MODEL 5
REMARK VINA RESULT:    -6.136     14.522     16.526
REMARK INTER + INTRA:          -7.931
REMARK INTER:                  -7.185
REMARK INTRA:                  -0.745
REMARK UNBOUND:                -0.719
REMARK  Name = /home/qwerty/github/datacon2025hack/step_04_hit_selection/docking/ligands/lig_553.pdb
REMARK  3 active torsions:
REMARK  status: ('A' for Active; 'I' for Inactive)
REMARK    1  A    between atoms: C1_2  and  C11_14
REMARK    2  A    between atoms: N1_3  and  C2_4
REMARK    3  A    between atoms: C2_4  and  C3_5
REMARK                            x       y       z     vdW  Elec       q    Type
REMARK                         _______ _______ _______ _____ _____    ______ ____
ROOT
ATOM      1  O1  UNL     1      12.014  13.608  29.685  0.00  0.00    -0.270 OA
ATOM      2  C1  UNL     1      10.842  13.511  30.140  0.00  0.00    +0.246 C 
ATOM      3  N1  UNL     1      10.539  14.007  31.451  0.00  0.00    -0.307 N 
ATOM      4  H1  UNL     1       9.550  14.235  31.696  0.00  0.00    +0.149 HD
ENDROOT
BRANCH   2   5
ATOM      5  C11 UNL     1       9.790  12.915  29.299  0.00  0.00    +0.063 A 
ATOM      6  C12 UNL     1       9.209  13.503  28.176  0.00  0.00    +0.098 A 
ATOM      7  N2  UNL     1       8.289  12.677  27.629  0.00  0.00    -0.345 N 
ATOM      8  C13 UNL     1       8.297  11.572  28.389  0.00  0.00    +0.139 A 
ATOM      9  N3  UNL     1       7.557  10.454  28.177  0.00  0.00    -0.237 NA
ATOM     10  C14 UNL     1       7.715   9.385  29.013  0.00  0.00    +0.113 A 
ATOM     11  C15 UNL     1       8.651   9.432  30.069  0.00  0.00    +0.020 A 
ATOM     12  C16 UNL     1       9.419  10.591  30.274  0.00  0.00    +0.014 A 
ATOM     13  C17 UNL     1       9.200  11.667  29.413  0.00  0.00    +0.031 A 
ATOM     14  H12 UNL     1       7.707  12.857  26.781  0.00  0.00    +0.167 HD
ENDBRANCH   2   5
BRANCH   3  15
ATOM     15  C2  UNL     1      11.571  14.210  32.463  0.00  0.00    +0.139 C 
BRANCH  15  16
ATOM     16  C3  UNL     1      11.544  13.080  33.455  0.00  0.00    -0.030 A 
ATOM     17  C4  UNL     1      11.738  11.745  33.027  0.00  0.00    +0.009 A 
ATOM     18  C5  UNL     1      11.664  10.686  33.948  0.00  0.00    +0.046 A 
ATOM     19  C6  UNL     1      11.391  10.989  35.280  0.00  0.00    +0.124 A 
ATOM     20  C7  UNL     1      11.197  12.271  35.701  0.00  0.00    -0.002 A 
ATOM     21  C8  UNL     1      11.264  13.344  34.812  0.00  0.00    +0.012 A 
ATOM     22  C9  UNL     1      10.914  12.290  37.159  0.00  0.00    +0.080 C 
ATOM     23  C10 UNL     1      10.981  10.788  37.534  0.00  0.00    +0.234 C 
ATOM     24  O2  UNL     1      11.274  10.095  36.321  0.00  0.00    -0.491 OA
ENDBRANCH  15  16
ENDBRANCH   3  15
TORSDOF 3
ENDMDL
MODEL 6
REMARK VINA RESULT:    -6.104      4.067      8.322
REMARK INTER + INTRA:          -7.894
REMARK INTER:                  -7.069
REMARK INTRA:                  -0.825
REMARK UNBOUND:                -0.719
REMARK  Name = /home/qwerty/github/datacon2025hack/step_04_hit_selection/docking/ligands/lig_553.pdb
REMARK  3 active torsions:
REMARK  status: ('A' for Active; 'I' for Inactive)
REMARK    1  A    between atoms: C1_2  and  C11_14
REMARK    2  A    between atoms: N1_3  and  C2_4
REMARK    3  A    between atoms: C2_4  and  C3_5
REMARK                            x       y       z     vdW  Elec       q    Type
REMARK                         _______ _______ _______ _____ _____    ______ ____
ROOT
ATOM      1  O1  UNL     1      16.908   0.057  25.452  0.00  0.00    -0.270 OA
ATOM      2  C1  UNL     1      17.585  -0.133  24.405  0.00  0.00    +0.246 C 
ATOM      3  N1  UNL     1      19.015  -0.208  24.482  0.00  0.00    -0.307 N 
ATOM      4  H1  UNL     1      19.544  -0.683  23.717  0.00  0.00    +0.149 HD
ENDROOT
BRANCH   2   5
ATOM      5  C11 UNL     1      16.890  -0.307  23.119  0.00  0.00    +0.063 A 
ATOM      6  C12 UNL     1      16.342  -1.496  22.640  0.00  0.00    +0.098 A 
ATOM      7  N2  UNL     1      15.762  -1.301  21.434  0.00  0.00    -0.345 N 
ATOM      8  C13 UNL     1      15.928   0.002  21.160  0.00  0.00    +0.139 A 
ATOM      9  N3  UNL     1      15.459   0.651  20.064  0.00  0.00    -0.237 NA
ATOM     10  C14 UNL     1      15.664   1.997  19.950  0.00  0.00    +0.113 A 
ATOM     11  C15 UNL     1      16.336   2.708  20.968  0.00  0.00    +0.020 A 
ATOM     12  C16 UNL     1      16.809   2.028  22.103  0.00  0.00    +0.014 A 
ATOM     13  C17 UNL     1      16.602   0.649  22.160  0.00  0.00    +0.031 A 
ATOM     14  H12 UNL     1      15.272  -2.013  20.849  0.00  0.00    +0.167 HD
ENDBRANCH   2   5
BRANCH   3  15
ATOM     15  C2  UNL     1      19.765   0.358  25.600  0.00  0.00    +0.139 C 
BRANCH  15  16
ATOM     16  C3  UNL     1      20.427   1.639  25.175  0.00  0.00    -0.030 A 
ATOM     17  C4  UNL     1      21.393   2.258  26.004  0.00  0.00    +0.009 A 
ATOM     18  C5  UNL     1      21.975   3.480  25.626  0.00  0.00    +0.046 A 
ATOM     19  C6  UNL     1      21.570   4.061  24.426  0.00  0.00    +0.124 A 
ATOM     20  C7  UNL     1      20.635   3.475  23.624  0.00  0.00    -0.002 A 
ATOM     21  C8  UNL     1      20.040   2.262  23.970  0.00  0.00    +0.012 A 
ATOM     22  C9  UNL     1      20.395   4.319  22.425  0.00  0.00    +0.080 C 
ATOM     23  C10 UNL     1      21.359   5.511  22.654  0.00  0.00    +0.234 C 
ATOM     24  O2  UNL     1      22.016   5.250  23.894  0.00  0.00    -0.491 OA
ENDBRANCH  15  16
ENDBRANCH   3  15
TORSDOF 3
ENDMDL
MODEL 7
REMARK VINA RESULT:    -6.003      7.674     10.465
REMARK INTER + INTRA:          -7.775
REMARK INTER:                  -7.403
REMARK INTRA:                  -0.372
REMARK UNBOUND:                -0.719
REMARK  Name = /home/qwerty/github/datacon2025hack/step_04_hit_selection/docking/ligands/lig_553.pdb
REMARK  3 active torsions:
REMARK  status: ('A' for Active; 'I' for Inactive)
REMARK    1  A    between atoms: C1_2  and  C11_14
REMARK    2  A    between atoms: N1_3  and  C2_4
REMARK    3  A    between atoms: C2_4  and  C3_5
REMARK                            x       y       z     vdW  Elec       q    Type
REMARK                         _______ _______ _______ _____ _____    ______ ____
ROOT
ATOM      1  O1  UNL     1      13.452   3.678  21.807  0.00  0.00    -0.270 OA
ATOM      2  C1  UNL     1      12.595   2.846  21.404  0.00  0.00    +0.246 C 
ATOM      3  N1  UNL     1      13.018   1.595  20.845  0.00  0.00    -0.307 N 
ATOM      4  H1  UNL     1      12.352   0.792  20.824  0.00  0.00    +0.149 HD
ENDROOT
BRANCH   2   5
ATOM      5  C11 UNL     1      11.163   3.161  21.546  0.00  0.00    +0.063 A 
ATOM      6  C12 UNL     1      10.207   2.362  22.171  0.00  0.00    +0.098 A 
ATOM      7  N2  UNL     1       8.994   2.958  22.138  0.00  0.00    -0.345 N 
ATOM      8  C13 UNL     1       9.182   4.129  21.512  0.00  0.00    +0.139 A 
ATOM      9  N3  UNL     1       8.237   5.078  21.297  0.00  0.00    -0.237 NA
ATOM     10  C14 UNL     1       8.596   6.248  20.687  0.00  0.00    +0.113 A 
ATOM     11  C15 UNL     1       9.936   6.475  20.306  0.00  0.00    +0.020 A 
ATOM     12  C16 UNL     1      10.909   5.489  20.542  0.00  0.00    +0.014 A 
ATOM     13  C17 UNL     1      10.488   4.300  21.139  0.00  0.00    +0.031 A 
ATOM     14  H12 UNL     1       8.101   2.589  22.534  0.00  0.00    +0.167 HD
ENDBRANCH   2   5
BRANCH   3  15
ATOM     15  C2  UNL     1      14.360   1.401  20.302  0.00  0.00    +0.139 C 
BRANCH  15  16
ATOM     16  C3  UNL     1      15.109   0.400  21.138  0.00  0.00    -0.030 A 
ATOM     17  C4  UNL     1      16.310  -0.178  20.662  0.00  0.00    +0.009 A 
ATOM     18  C5  UNL     1      16.983  -1.147  21.425  0.00  0.00    +0.046 A 
ATOM     19  C6  UNL     1      16.432  -1.523  22.648  0.00  0.00    +0.124 A 
ATOM     20  C7  UNL     1      15.272  -0.977  23.112  0.00  0.00    -0.002 A 
ATOM     21  C8  UNL     1      14.581  -0.012  22.380  0.00  0.00    +0.012 A 
ATOM     22  C9  UNL     1      14.921  -1.572  24.427  0.00  0.00    +0.080 C 
ATOM     23  C10 UNL     1      16.084  -2.568  24.667  0.00  0.00    +0.234 C 
ATOM     24  O2  UNL     1      16.937  -2.455  23.527  0.00  0.00    -0.491 OA
ENDBRANCH  15  16
ENDBRANCH   3  15
TORSDOF 3
ENDMDL
MODEL 8
REMARK VINA RESULT:    -5.971     13.090     14.472
REMARK INTER + INTRA:          -7.737
REMARK INTER:                  -7.005
REMARK INTRA:                  -0.732
REMARK UNBOUND:                -0.719
REMARK  Name = /home/qwerty/github/datacon2025hack/step_04_hit_selection/docking/ligands/lig_553.pdb
REMARK  3 active torsions:
REMARK  status: ('A' for Active; 'I' for Inactive)
REMARK    1  A    between atoms: C1_2  and  C11_14
REMARK    2  A    between atoms: N1_3  and  C2_4
REMARK    3  A    between atoms: C2_4  and  C3_5
REMARK                            x       y       z     vdW  Elec       q    Type
REMARK                         _______ _______ _______ _____ _____    ______ ____
ROOT
ATOM      1  O1  UNL     1      22.838  15.324  20.135  0.00  0.00    -0.270 OA
ATOM      2  C1  UNL     1      23.362  14.300  20.652  0.00  0.00    +0.246 C 
ATOM      3  N1  UNL     1      23.656  13.157  19.837  0.00  0.00    -0.307 N 
ATOM      4  H1  UNL     1      24.368  12.467  20.163  0.00  0.00    +0.149 HD
ENDROOT
BRANCH   2   5
ATOM      5  C11 UNL     1      23.693  14.307  22.087  0.00  0.00    +0.063 A 
ATOM      6  C12 UNL     1      24.849  14.837  22.657  0.00  0.00    +0.098 A 
ATOM      7  N2  UNL     1      24.827  14.693  24.001  0.00  0.00    -0.345 N 
ATOM      8  C13 UNL     1      23.661  14.090  24.281  0.00  0.00    +0.139 A 
ATOM      9  N3  UNL     1      23.197  13.790  25.520  0.00  0.00    -0.237 NA
ATOM     10  C14 UNL     1      21.961  13.220  25.647  0.00  0.00    +0.113 A 
ATOM     11  C15 UNL     1      21.168  12.967  24.506  0.00  0.00    +0.020 A 
ATOM     12  C16 UNL     1      21.655  13.291  23.228  0.00  0.00    +0.014 A 
ATOM     13  C17 UNL     1      22.934  13.842  23.148  0.00  0.00    +0.031 A 
ATOM     14  H12 UNL     1      25.557  15.002  24.680  0.00  0.00    +0.167 HD
ENDBRANCH   2   5
BRANCH   3  15
ATOM     15  C2  UNL     1      22.995  12.924  18.556  0.00  0.00    +0.139 C 
BRANCH  15  16
ATOM     16  C3  UNL     1      21.816  12.011  18.750  0.00  0.00    -0.030 A 
ATOM     17  C4  UNL     1      21.954  10.613  18.579  0.00  0.00    +0.009 A 
ATOM     18  C5  UNL     1      20.840   9.767  18.714  0.00  0.00    +0.046 A 
ATOM     19  C6  UNL     1      19.607  10.343  19.012  0.00  0.00    +0.124 A 
ATOM     20  C7  UNL     1      19.463  11.690  19.173  0.00  0.00    -0.002 A 
ATOM     21  C8  UNL     1      20.548  12.556  19.046  0.00  0.00    +0.012 A 
ATOM     22  C9  UNL     1      18.044  12.016  19.470  0.00  0.00    +0.080 C 
ATOM     23  C10 UNL     1      17.370  10.621  19.464  0.00  0.00    +0.234 C 
ATOM     24  O2  UNL     1      18.408   9.685  19.175  0.00  0.00    -0.491 OA
ENDBRANCH  15  16
ENDBRANCH   3  15
TORSDOF 3
ENDMDL
MODEL 9
REMARK VINA RESULT:    -5.967     11.787     13.893
REMARK INTER + INTRA:          -7.732
REMARK INTER:                  -7.040
REMARK INTRA:                  -0.693
REMARK UNBOUND:                -0.719
REMARK  Name = /home/qwerty/github/datacon2025hack/step_04_hit_selection/docking/ligands/lig_553.pdb
REMARK  3 active torsions:
REMARK  status: ('A' for Active; 'I' for Inactive)
REMARK    1  A    between atoms: C1_2  and  C11_14
REMARK    2  A    between atoms: N1_3  and  C2_4
REMARK    3  A    between atoms: C2_4  and  C3_5
REMARK                            x       y       z     vdW  Elec       q    Type
REMARK                         _______ _______ _______ _____ _____    ______ ____
ROOT
ATOM      1  O1  UNL     1      19.813   6.603  36.935  0.00  0.00    -0.270 OA
ATOM      2  C1  UNL     1      20.502   7.657  36.867  0.00  0.00    +0.246 C 
ATOM      3  N1  UNL     1      20.100   8.823  37.598  0.00  0.00    -0.307 N 
ATOM      4  H1  UNL     1      20.807   9.559  37.817  0.00  0.00    +0.149 HD
ENDROOT
BRANCH   2   5
ATOM      5  C11 UNL     1      21.733   7.662  36.059  0.00  0.00    +0.063 A 
ATOM      6  C12 UNL     1      22.873   6.898  36.301  0.00  0.00    +0.098 A 
ATOM      7  N2  UNL     1      23.812   7.133  35.356  0.00  0.00    -0.345 N 
ATOM      8  C13 UNL     1      23.266   8.026  34.517  0.00  0.00    +0.139 A 
ATOM      9  N3  UNL     1      23.841   8.515  33.390  0.00  0.00    -0.237 NA
ATOM     10  C14 UNL     1      23.135   9.383  32.606  0.00  0.00    +0.113 A 
ATOM     11  C15 UNL     1      21.817   9.751  32.952  0.00  0.00    +0.020 A 
ATOM     12  C16 UNL     1      21.227   9.231  34.117  0.00  0.00    +0.014 A 
ATOM     13  C17 UNL     1      21.998   8.372  34.900  0.00  0.00    +0.031 A 
ATOM     14  H12 UNL     1      24.757   6.696  35.287  0.00  0.00    +0.167 HD
ENDBRANCH   2   5
BRANCH   3  15
ATOM     15  C2  UNL     1      18.727   9.020  38.056  0.00  0.00    +0.139 C 
BRANCH  15  16
ATOM     16  C3  UNL     1      18.161  10.273  37.448  0.00  0.00    -0.030 A 
ATOM     17  C4  UNL     1      18.991  11.154  36.714  0.00  0.00    +0.009 A 
ATOM     18  C5  UNL     1      18.469  12.348  36.187  0.00  0.00    +0.046 A 
ATOM     19  C6  UNL     1      17.126  12.637  36.413  0.00  0.00    +0.124 A 
ATOM     20  C7  UNL     1      16.319  11.798  37.123  0.00  0.00    -0.002 A 
ATOM     21  C8  UNL     1      16.806  10.605  37.659  0.00  0.00    +0.012 A 
ATOM     22  C9  UNL     1      14.949  12.365  37.213  0.00  0.00    +0.080 C 
ATOM     23  C10 UNL     1      15.082  13.691  36.423  0.00  0.00    +0.234 C 
ATOM     24  O2  UNL     1      16.440  13.753  35.987  0.00  0.00    -0.491 OA
ENDBRANCH  15  16
ENDBRANCH   3  15
TORSDOF 3
ENDMDL
