REMARK  Name = /home/qwerty/github/datacon2025hack/step_04_hit_selection/docking/ligands/lig_320.pdb
REMARK  5 active torsions:
REMARK  status: ('A' for Active; 'I' for Inactive)
REMARK    1  A    between atoms: C1_1  and  C2_2
REMARK    2  A    between atoms: C5_5  and  N1_6
REMARK    3  A    between atoms: C6_7  and  C7_9
REMARK    4  A    between atoms: C7_9  and  C8_10
REMARK    5  A    between atoms: C16_19  and  C17_20
REMARK                            x       y       z     vdW  Elec       q    Type
REMARK                         _______ _______ _______ _____ _____    ______ ____
ROOT
ATOM      1  N1  UNL     1       0.719   0.508  -1.226  0.00  0.00    -0.283 N 
ATOM      2  C6  UNL     1      -0.413   0.626  -0.349  0.00  0.00    +0.228 C 
ATOM      3  O1  UNL     1      -0.234   0.991   0.845  0.00  0.00    -0.275 OA
ATOM      4  H6  UNL     1       0.605   0.739  -2.237  0.00  0.00    +0.155 HD
ENDROOT
BRANCH   1   9
ATOM      5  C1  UNL     1       6.057  -0.053   0.742  0.00  0.00    +0.065 C 
ATOM      6  C2  UNL     1       4.662   0.106   0.226  0.00  0.00    +0.039 A 
ATOM      7  C3  UNL     1       4.351   1.135  -0.668  0.00  0.00    +0.025 A 
ATOM      8  C4  UNL     1       3.046   1.254  -1.146  0.00  0.00    +0.027 A 
ATOM      9  C5  UNL     1       2.056   0.358  -0.727  0.00  0.00    +0.055 A 
ATOM     10  C16 UNL     1       2.419  -0.700   0.138  0.00  0.00    +0.060 A 
ATOM     11  C17 UNL     1       1.437  -1.750   0.569  0.00  0.00    +0.067 C 
ATOM     12  N2  UNL     1       3.700  -0.783   0.592  0.00  0.00    -0.255 NA
ENDBRANCH   1   9
BRANCH   2  13
ATOM     13  C7  UNL     1      -1.824   0.345  -0.818  0.00  0.00    +0.072 C 
ATOM     14  C14 UNL     1      -2.018  -0.405  -2.135  0.00  0.00    +0.022 C 
ATOM     15  C15 UNL     1      -2.289   1.092  -2.064  0.00  0.00    +0.022 C 
BRANCH  13  16
ATOM     16  C8  UNL     1      -2.876   0.078   0.229  0.00  0.00    -0.032 A 
ATOM     17  C9  UNL     1      -3.620   1.136   0.777  0.00  0.00    +0.006 A 
ATOM     18  C10 UNL     1      -4.563   0.889   1.779  0.00  0.00    +0.020 A 
ATOM     19  C11 UNL     1      -4.758  -0.413   2.252  0.00  0.00    +0.041 A 
ATOM     20 CL1  UNL     1      -5.940  -0.721   3.511  0.00  0.00    -0.084 Cl
ATOM     21  C12 UNL     1      -4.005  -1.468   1.725  0.00  0.00    +0.020 A 
ATOM     22  C13 UNL     1      -3.061  -1.223   0.723  0.00  0.00    +0.006 A 
ENDBRANCH  13  16
ENDBRANCH   2  13
TORSDOF 3
