REMARK  Name = /home/qwerty/github/datacon2025hack/step_04_hit_selection/docking/ligands/lig_175.pdb
REMARK  6 active torsions:
REMARK  status: ('A' for Active; 'I' for Inactive)
REMARK    1  A    between atoms: C1_1  and  C2_2
REMARK    2  A    between atoms: C2_2  and  N1_3
REMARK    3  A    between atoms: C2_2  and  C15_19
REMARK    4  A    between atoms: N2_6  and  C4_7
REMARK    5  A    between atoms: C7_10  and  C8_11
REMARK    6  A    between atoms: C18_22  and  N4_23
REMARK                            x       y       z     vdW  Elec       q    Type
REMARK                         _______ _______ _______ _____ _____    ______ ____
ROOT
ATOM      1  N1  UNL     1       2.160   0.975  -2.239  0.00  0.00    -0.293 N 
ATOM      2  C3  UNL     1       0.945   0.379  -1.763  0.00  0.00    +0.304 C 
ATOM      3  O1  UNL     1       0.927  -0.838  -1.431  0.00  0.00    -0.252 OA
ATOM      4  N2  UNL     1      -0.255   1.165  -1.704  0.00  0.00    -0.269 N 
ATOM      5  H5  UNL     1       2.135   1.976  -2.539  0.00  0.00    +0.151 HD
ATOM      6  H6  UNL     1      -0.281   2.052  -2.255  0.00  0.00    +0.156 HD
ENDROOT
BRANCH   4   7
ATOM      7  C4  UNL     1      -1.452   0.758  -1.018  0.00  0.00    +0.035 A 
ATOM      8  C5  UNL     1      -1.399   0.011   0.170  0.00  0.00    +0.024 A 
ATOM      9  C6  UNL     1      -2.576  -0.352   0.832  0.00  0.00    +0.012 A 
ATOM     10  C7  UNL     1      -3.831   0.042   0.329  0.00  0.00    +0.000 A 
ATOM     11  C13 UNL     1      -3.876   0.799  -0.855  0.00  0.00    +0.012 A 
ATOM     12  C14 UNL     1      -2.698   1.162  -1.514  0.00  0.00    +0.024 A 
BRANCH  10  13
ATOM     13  C8  UNL     1      -5.094  -0.341   1.010  0.00  0.00    +0.071 A 
ATOM     14  C9  UNL     1      -5.153  -0.543   2.402  0.00  0.00    +0.028 A 
ATOM     15  C10 UNL     1      -6.367  -0.898   2.995  0.00  0.00    +0.004 A 
ATOM     16  C11 UNL     1      -7.510  -1.044   2.210  0.00  0.00    +0.020 A 
ATOM     17  C12 UNL     1      -7.423  -0.827   0.834  0.00  0.00    +0.111 A 
ATOM     18  N3  UNL     1      -6.233  -0.482   0.273  0.00  0.00    -0.255 NA
ENDBRANCH  10  13
ENDBRANCH   4   7
BRANCH   1  20
ATOM     19  C1  UNL     1       4.478   1.014  -3.079  0.00  0.00    +0.033 C 
ATOM     20  C2  UNL     1       3.424   0.232  -2.290  0.00  0.00    +0.102 C 
BRANCH  20  21
ATOM     21  C15 UNL     1       3.925  -0.056  -0.890  0.00  0.00    -0.027 A 
ATOM     22  C16 UNL     1       4.357  -1.348  -0.547  0.00  0.00    +0.007 A 
ATOM     23  C17 UNL     1       4.831  -1.616   0.741  0.00  0.00    +0.023 A 
ATOM     24  C18 UNL     1       4.886  -0.596   1.700  0.00  0.00    +0.025 A 
ATOM     25  C19 UNL     1       4.467   0.696   1.360  0.00  0.00    +0.023 A 
ATOM     26  C20 UNL     1       3.993   0.967   0.073  0.00  0.00    +0.007 A 
BRANCH  24  27
ATOM     27  N4  UNL     1       5.371  -0.872   3.017  0.00  0.00    -0.358 N 
ATOM     28  H17 UNL     1       5.417  -0.119   3.739  0.00  0.00    +0.142 HD
ATOM     29  H18 UNL     1       5.687  -1.833   3.280  0.00  0.00    +0.142 HD
ENDBRANCH  24  27
ENDBRANCH  20  21
ENDBRANCH   1  20
TORSDOF 5
