REMARK  Name = /home/qwerty/github/datacon2025hack/step_04_hit_selection/docking/ligands/lig_617.pdb
REMARK  11 active torsions:
REMARK  status: ('A' for Active; 'I' for Inactive)
REMARK    1  A    between atoms: C1_1  and  C2_2
REMARK    2  A    between atoms: C2_2  and  C3_3
REMARK    3  A    between atoms: C2_2  and  C4_4
REMARK    4  A    between atoms: C8_8  and  O1_9
REMARK    5  A    between atoms: O1_9  and  C9_10
REMARK    6  A    between atoms: C9_10  and  C10_11
REMARK    7  A    between atoms: C9_10  and  C11_12
REMARK    8  A    between atoms: N1_14  and  C12_15
REMARK    9  A    between atoms: C12_15  and  C13_16
REMARK   10  A    between atoms: C12_15  and  C14_17
REMARK   11  A    between atoms: C18_21  and  N2_22
REMARK                            x       y       z     vdW  Elec       q    Type
REMARK                         _______ _______ _______ _____ _____    ______ ____
ROOT
ATOM      1  C11 UNL     1       0.544  -1.656  -2.358  0.00  0.00    +0.254 C 
ATOM      2  O2  UNL     1       0.725  -0.459  -2.715  0.00  0.00    -0.272 OA
ATOM      3  N1  UNL     1       1.637  -2.428  -1.841  0.00  0.00    -0.306 N 
ATOM      4  H15 UNL     1       1.490  -3.448  -1.661  0.00  0.00    +0.149 HD
ENDROOT
BRANCH   1   5
ATOM      5  C9  UNL     1      -0.821  -2.274  -2.495  0.00  0.00    +0.255 C 
ATOM      6  C10 UNL     1      -1.038  -2.738  -3.932  0.00  0.00    +0.062 C 
BRANCH   5   7
ATOM      7  O1  UNL     1      -1.834  -1.323  -2.154  0.00  0.00    -0.480 OA
BRANCH   7  12
ATOM      8  C4  UNL     1      -3.244   0.828   0.517  0.00  0.00    -0.041 A 
ATOM      9  C5  UNL     1      -2.498   0.401   1.632  0.00  0.00    +0.004 A 
ATOM     10  C6  UNL     1      -1.546  -0.613   1.500  0.00  0.00    +0.004 A 
ATOM     11  C7  UNL     1      -1.318  -1.206   0.257  0.00  0.00    +0.046 A 
ATOM     12  C8  UNL     1      -2.041  -0.780  -0.874  0.00  0.00    +0.122 A 
ATOM     13  C22 UNL     1      -3.002   0.228  -0.733  0.00  0.00    +0.049 A 
BRANCH   8  15
ATOM     14  C1  UNL     1      -3.633   3.261   1.018  0.00  0.00    +0.012 C 
ATOM     15  C2  UNL     1      -4.285   1.925   0.642  0.00  0.00    +0.013 C 
ATOM     16  C3  UNL     1      -5.379   1.541   1.648  0.00  0.00    +0.012 C 
ENDBRANCH   8  15
ENDBRANCH   7  12
ENDBRANCH   5   7
ENDBRANCH   1   5
BRANCH   3  17
ATOM     17  C12 UNL     1       2.902  -1.800  -1.448  0.00  0.00    +0.100 C 
ATOM     18  C13 UNL     1       4.006  -2.853  -1.301  0.00  0.00    +0.033 C 
BRANCH  17  19
ATOM     19  C14 UNL     1       2.714  -1.032  -0.156  0.00  0.00    -0.026 A 
ATOM     20  C15 UNL     1       2.228  -1.677   0.994  0.00  0.00    +0.005 A 
ATOM     21  C16 UNL     1       2.049  -0.965   2.180  0.00  0.00    +0.002 A 
ATOM     22  C17 UNL     1       2.338   0.400   2.232  0.00  0.00    +0.026 A 
ATOM     23  C18 UNL     1       2.816   1.070   1.091  0.00  0.00    +0.049 A 
ATOM     24  C21 UNL     1       3.007   0.342  -0.098  0.00  0.00    +0.031 A 
BRANCH  23  25
ATOM     25  N2  UNL     1       3.103   2.482   1.141  0.00  0.00    -0.288 N 
ATOM     26  C19 UNL     1       3.091   3.370   0.128  0.00  0.00    +0.229 A 
ATOM     27  N3  UNL     1       3.399   4.607   0.564  0.00  0.00    -0.138 NA
ATOM     28  N4  UNL     1       3.613   4.519   1.868  0.00  0.00    -0.138 NA
ATOM     29  C20 UNL     1       3.431   3.230   2.212  0.00  0.00    +0.229 A 
ENDBRANCH  23  25
ENDBRANCH  17  19
ENDBRANCH   3  17
TORSDOF 7
