MODEL 1
REMARK VINA RESULT:    -5.197      0.000      0.000
REMARK INTER + INTRA:          -7.766
REMARK INTER:                  -7.020
REMARK INTRA:                  -0.745
REMARK UNBOUND:                -0.745
REMARK  Name = /home/qwerty/github/datacon2025hack/step_04_hit_selection/docking/ligands/lig_649.pdb
REMARK  9 active torsions:
REMARK  status: ('A' for Active; 'I' for Inactive)
REMARK    1  A    between atoms: C1_1  and  C2_2
REMARK    2  A    between atoms: C2_2  and  C3_3
REMARK    3  A    between atoms: C2_2  and  N2_13
REMARK    4  A    between atoms: C5_7  and  O2_8
REMARK    5  A    between atoms: C7_10  and  C8_11
REMARK    6  A    between atoms: C8_11  and  O3_12
REMARK    7  A    between atoms: N2_13  and  C9_14
REMARK    8  A    between atoms: N2_13  and  S1_20
REMARK    9  A    between atoms: S1_20  and  C15_21
REMARK                            x       y       z     vdW  Elec       q    Type
REMARK                         _______ _______ _______ _____ _____    ______ ____
ROOT
ATOM      1  C1  UNL     1      21.347   4.885  30.356  0.00  0.00    +0.040 C 
ATOM      2  C2  UNL     1      21.315   4.208  31.733  0.00  0.00    +0.180 C 
ENDROOT
BRANCH   2   3
ATOM      3  C3  UNL     1      22.584   4.475  32.514  0.00  0.00    +0.238 C 
ATOM      4  O1  UNL     1      23.519   3.627  32.487  0.00  0.00    -0.273 OA
ATOM      5  N1  UNL     1      22.727   5.657  33.329  0.00  0.00    -0.292 N 
ATOM      6  C4  UNL     1      21.601   6.463  33.776  0.00  0.00    +0.139 C 
ATOM      7  C5  UNL     1      22.185   7.507  34.729  0.00  0.00    +0.134 C 
ATOM      8  C6  UNL     1      23.561   6.970  35.119  0.00  0.00    +0.057 C 
ATOM      9  C7  UNL     1      23.976   6.027  33.986  0.00  0.00    +0.104 C 
BRANCH   7  10
ATOM     10  O2  UNL     1      22.331   8.740  34.072  0.00  0.00    -0.390 OA
ATOM     11  H8  UNL     1      22.416   9.428  34.781  0.00  0.00    +0.210 HD
ENDBRANCH   7  10
BRANCH   9  12
ATOM     12  C8  UNL     1      24.922   6.723  32.995  0.00  0.00    +0.178 C 
BRANCH  12  13
ATOM     13  O3  UNL     1      25.292   7.982  33.485  0.00  0.00    -0.393 OA
ATOM     14  H14 UNL     1      25.773   7.816  34.338  0.00  0.00    +0.209 HD
ENDBRANCH  12  13
ENDBRANCH   9  12
ENDBRANCH   2   3
BRANCH   2  15
ATOM     15  N2  UNL     1      21.077   2.763  31.589  0.00  0.00    -0.196 N 
BRANCH  15  16
ATOM     16  C9  UNL     1      21.312   2.094  30.341  0.00  0.00    +0.052 A 
ATOM     17  C10 UNL     1      22.586   1.594  30.036  0.00  0.00    +0.025 A 
ATOM     18  C11 UNL     1      22.809   0.928  28.825  0.00  0.00    +0.002 A 
ATOM     19  C12 UNL     1      21.758   0.753  27.920  0.00  0.00    +0.000 A 
ATOM     20  C13 UNL     1      20.483   1.239  28.225  0.00  0.00    +0.002 A 
ATOM     21  C14 UNL     1      20.258   1.904  29.433  0.00  0.00    +0.025 A 
ENDBRANCH  15  16
BRANCH  15  22
ATOM     22  S1  UNL     1      20.252   1.895  32.850  0.00  0.00    +0.043 S 
ATOM     23  C15 UNL     1      18.514   2.277  32.819  0.00  0.00    +0.218 C 
ATOM     24  O4  UNL     1      20.433   0.415  32.646  0.00  0.00    -0.155 OA
ATOM     25  O5  UNL     1      20.825   2.272  34.188  0.00  0.00    -0.155 OA
ENDBRANCH  15  22
ENDBRANCH   2  15
TORSDOF 7
ENDMDL
MODEL 2
REMARK VINA RESULT:    -5.100     13.340     14.481
REMARK INTER + INTRA:          -7.634
REMARK INTER:                  -6.807
REMARK INTRA:                  -0.826
REMARK UNBOUND:                -0.745
REMARK  Name = /home/qwerty/github/datacon2025hack/step_04_hit_selection/docking/ligands/lig_649.pdb
REMARK  9 active torsions:
REMARK  status: ('A' for Active; 'I' for Inactive)
REMARK    1  A    between atoms: C1_1  and  C2_2
REMARK    2  A    between atoms: C2_2  and  C3_3
REMARK    3  A    between atoms: C2_2  and  N2_13
REMARK    4  A    between atoms: C5_7  and  O2_8
REMARK    5  A    between atoms: C7_10  and  C8_11
REMARK    6  A    between atoms: C8_11  and  O3_12
REMARK    7  A    between atoms: N2_13  and  C9_14
REMARK    8  A    between atoms: N2_13  and  S1_20
REMARK    9  A    between atoms: S1_20  and  C15_21
REMARK                            x       y       z     vdW  Elec       q    Type
REMARK                         _______ _______ _______ _____ _____    ______ ____
ROOT
ATOM      1  C1  UNL     1      19.765  12.170  22.625  0.00  0.00    +0.040 C 
ATOM      2  C2  UNL     1      20.954  12.260  21.659  0.00  0.00    +0.180 C 
ENDROOT
BRANCH   2   3
ATOM      3  C3  UNL     1      21.398  13.693  21.453  0.00  0.00    +0.238 C 
ATOM      4  O1  UNL     1      20.748  14.436  20.666  0.00  0.00    -0.273 OA
ATOM      5  N1  UNL     1      22.577  14.211  22.102  0.00  0.00    -0.292 N 
ATOM      6  C4  UNL     1      23.620  13.366  22.665  0.00  0.00    +0.139 C 
ATOM      7  C5  UNL     1      24.738  14.313  23.101  0.00  0.00    +0.134 C 
ATOM      8  C6  UNL     1      24.463  15.625  22.367  0.00  0.00    +0.057 C 
ATOM      9  C7  UNL     1      22.966  15.617  22.046  0.00  0.00    +0.104 C 
BRANCH   7  10
ATOM     10  O2  UNL     1      24.679  14.532  24.487  0.00  0.00    -0.390 OA
ATOM     11  H8  UNL     1      25.393  13.973  24.891  0.00  0.00    +0.210 HD
ENDBRANCH   7  10
BRANCH   9  12
ATOM     12  C8  UNL     1      22.168  16.438  23.073  0.00  0.00    +0.178 C 
BRANCH  12  13
ATOM     13  O3  UNL     1      23.036  17.003  24.016  0.00  0.00    -0.393 OA
ATOM     14  H14 UNL     1      22.781  17.960  24.088  0.00  0.00    +0.209 HD
ENDBRANCH  12  13
ENDBRANCH   9  12
ENDBRANCH   2   3
BRANCH   2  15
ATOM     15  N2  UNL     1      20.622  11.619  20.376  0.00  0.00    -0.196 N 
BRANCH  15  16
ATOM     16  C9  UNL     1      19.280  11.211  20.076  0.00  0.00    +0.052 A 
ATOM     17  C10 UNL     1      18.404  12.088  19.418  0.00  0.00    +0.025 A 
ATOM     18  C11 UNL     1      17.100  11.682  19.114  0.00  0.00    +0.002 A 
ATOM     19  C12 UNL     1      16.669  10.398  19.457  0.00  0.00    +0.000 A 
ATOM     20  C13 UNL     1      17.542   9.515  20.103  0.00  0.00    +0.002 A 
ATOM     21  C14 UNL     1      18.845   9.919  20.408  0.00  0.00    +0.025 A 
ENDBRANCH  15  16
BRANCH  15  22
ATOM     22  S1  UNL     1      21.900  11.104  19.313  0.00  0.00    +0.043 S 
ATOM     23  C15 UNL     1      23.272  10.486  20.263  0.00  0.00    +0.218 C 
ATOM     24  O4  UNL     1      21.395  10.012  18.410  0.00  0.00    -0.155 OA
ATOM     25  O5  UNL     1      22.356  12.260  18.466  0.00  0.00    -0.155 OA
ENDBRANCH  15  22
ENDBRANCH   2  15
TORSDOF 7
ENDMDL
MODEL 3
REMARK VINA RESULT:    -5.042      5.076      7.746
REMARK INTER + INTRA:          -7.556
REMARK INTER:                  -6.881
REMARK INTRA:                  -0.675
REMARK UNBOUND:                -0.745
REMARK  Name = /home/qwerty/github/datacon2025hack/step_04_hit_selection/docking/ligands/lig_649.pdb
REMARK  9 active torsions:
REMARK  status: ('A' for Active; 'I' for Inactive)
REMARK    1  A    between atoms: C1_1  and  C2_2
REMARK    2  A    between atoms: C2_2  and  C3_3
REMARK    3  A    between atoms: C2_2  and  N2_13
REMARK    4  A    between atoms: C5_7  and  O2_8
REMARK    5  A    between atoms: C7_10  and  C8_11
REMARK    6  A    between atoms: C8_11  and  O3_12
REMARK    7  A    between atoms: N2_13  and  C9_14
REMARK    8  A    between atoms: N2_13  and  S1_20
REMARK    9  A    between atoms: S1_20  and  C15_21
REMARK                            x       y       z     vdW  Elec       q    Type
REMARK                         _______ _______ _______ _____ _____    ______ ____
ROOT
ATOM      1  C1  UNL     1      20.493  10.890  35.606  0.00  0.00    +0.040 C 
ATOM      2  C2  UNL     1      20.930   9.428  35.433  0.00  0.00    +0.180 C 
ENDROOT
BRANCH   2   3
ATOM      3  C3  UNL     1      21.088   9.064  33.972  0.00  0.00    +0.238 C 
ATOM      4  O1  UNL     1      20.084   9.110  33.209  0.00  0.00    -0.273 OA
ATOM      5  N1  UNL     1      22.354   8.616  33.446  0.00  0.00    -0.292 N 
ATOM      6  C4  UNL     1      23.438   8.117  34.280  0.00  0.00    +0.139 C 
ATOM      7  C5  UNL     1      24.511   7.612  33.315  0.00  0.00    +0.134 C 
ATOM      8  C6  UNL     1      23.800   7.449  31.973  0.00  0.00    +0.057 C 
ATOM      9  C7  UNL     1      22.591   8.387  32.024  0.00  0.00    +0.104 C 
BRANCH   7  10
ATOM     10  O2  UNL     1      25.539   8.562  33.188  0.00  0.00    -0.390 OA
ATOM     11  H8  UNL     1      26.365   8.130  33.527  0.00  0.00    +0.210 HD
ENDBRANCH   7  10
BRANCH   9  12
ATOM     12  C8  UNL     1      22.881   9.715  31.305  0.00  0.00    +0.178 C 
BRANCH  12  13
ATOM     13  O3  UNL     1      22.222   9.746  30.069  0.00  0.00    -0.393 OA
ATOM     14  H14 UNL     1      22.707  10.412  29.515  0.00  0.00    +0.209 HD
ENDBRANCH  12  13
ENDBRANCH   9  12
ENDBRANCH   2   3
BRANCH   2  15
ATOM     15  N2  UNL     1      19.980   8.526  36.104  0.00  0.00    -0.196 N 
BRANCH  15  16
ATOM     16  C9  UNL     1      18.706   9.001  36.565  0.00  0.00    +0.052 A 
ATOM     17  C10 UNL     1      18.568   9.502  37.868  0.00  0.00    +0.025 A 
ATOM     18  C11 UNL     1      17.328   9.978  38.309  0.00  0.00    +0.002 A 
ATOM     19  C12 UNL     1      16.226   9.963  37.450  0.00  0.00    +0.000 A 
ATOM     20  C13 UNL     1      16.362   9.475  36.146  0.00  0.00    +0.002 A 
ATOM     21  C14 UNL     1      17.599   8.999  35.703  0.00  0.00    +0.025 A 
ENDBRANCH  15  16
BRANCH  15  22
ATOM     22  S1  UNL     1      20.494   6.937  36.588  0.00  0.00    +0.043 S 
ATOM     23  C15 UNL     1      21.962   7.048  37.588  0.00  0.00    +0.218 C 
ATOM     24  O4  UNL     1      19.405   6.275  37.386  0.00  0.00    -0.155 OA
ATOM     25  O5  UNL     1      20.779   6.100  35.371  0.00  0.00    -0.155 OA
ENDBRANCH  15  22
ENDBRANCH   2  15
TORSDOF 7
ENDMDL
MODEL 4
REMARK VINA RESULT:    -4.989     15.176     17.122
REMARK INTER + INTRA:          -7.484
REMARK INTER:                  -6.881
REMARK INTRA:                  -0.603
REMARK UNBOUND:                -0.745
REMARK  Name = /home/qwerty/github/datacon2025hack/step_04_hit_selection/docking/ligands/lig_649.pdb
REMARK  9 active torsions:
REMARK  status: ('A' for Active; 'I' for Inactive)
REMARK    1  A    between atoms: C1_1  and  C2_2
REMARK    2  A    between atoms: C2_2  and  C3_3
REMARK    3  A    between atoms: C2_2  and  N2_13
REMARK    4  A    between atoms: C5_7  and  O2_8
REMARK    5  A    between atoms: C7_10  and  C8_11
REMARK    6  A    between atoms: C8_11  and  O3_12
REMARK    7  A    between atoms: N2_13  and  C9_14
REMARK    8  A    between atoms: N2_13  and  S1_20
REMARK    9  A    between atoms: S1_20  and  C15_21
REMARK                            x       y       z     vdW  Elec       q    Type
REMARK                         _______ _______ _______ _____ _____    ______ ____
ROOT
ATOM      1  C1  UNL     1      10.630  10.434  25.734  0.00  0.00    +0.040 C 
ATOM      2  C2  UNL     1       9.404   9.526  25.903  0.00  0.00    +0.180 C 
ENDROOT
BRANCH   2   3
ATOM      3  C3  UNL     1       8.481   9.607  24.705  0.00  0.00    +0.238 C 
ATOM      4  O1  UNL     1       7.531  10.438  24.710  0.00  0.00    -0.273 OA
ATOM      5  N1  UNL     1       8.637   8.720  23.579  0.00  0.00    -0.292 N 
ATOM      6  C4  UNL     1       9.389   7.474  23.638  0.00  0.00    +0.139 C 
ATOM      7  C5  UNL     1       9.164   6.784  22.292  0.00  0.00    +0.134 C 
ATOM      8  C6  UNL     1       7.937   7.468  21.690  0.00  0.00    +0.057 C 
ATOM      9  C7  UNL     1       7.865   8.849  22.347  0.00  0.00    +0.104 C 
BRANCH   7  10
ATOM     10  O2  UNL     1      10.271   6.984  21.451  0.00  0.00    -0.390 OA
ATOM     11  H8  UNL     1      10.962   7.439  21.999  0.00  0.00    +0.210 HD
ENDBRANCH   7  10
BRANCH   9  12
ATOM     12  C8  UNL     1       8.472   9.934  21.443  0.00  0.00    +0.178 C 
BRANCH  12  13
ATOM     13  O3  UNL     1       7.489  10.863  21.078  0.00  0.00    -0.393 OA
ATOM     14  H14 UNL     1       7.974  11.673  20.772  0.00  0.00    +0.209 HD
ENDBRANCH  12  13
ENDBRANCH   9  12
ENDBRANCH   2   3
BRANCH   2  15
ATOM     15  N2  UNL     1       8.688   9.858  27.145  0.00  0.00    -0.196 N 
BRANCH  15  16
ATOM     16  C9  UNL     1       8.956  11.077  27.852  0.00  0.00    +0.052 A 
ATOM     17  C10 UNL     1       8.314  12.267  27.478  0.00  0.00    +0.025 A 
ATOM     18  C11 UNL     1       8.565  13.452  28.179  0.00  0.00    +0.002 A 
ATOM     19  C12 UNL     1       9.451  13.451  29.260  0.00  0.00    +0.000 A 
ATOM     20  C13 UNL     1      10.084  12.264  29.645  0.00  0.00    +0.002 A 
ATOM     21  C14 UNL     1       9.835  11.080  28.947  0.00  0.00    +0.025 A 
ENDBRANCH  15  16
BRANCH  15  22
ATOM     22  S1  UNL     1       7.701   8.652  27.920  0.00  0.00    +0.043 S 
ATOM     23  C15 UNL     1       8.730   7.453  28.736  0.00  0.00    +0.218 C 
ATOM     24  O4  UNL     1       6.809   9.309  28.938  0.00  0.00    -0.155 OA
ATOM     25  O5  UNL     1       6.841   7.963  26.897  0.00  0.00    -0.155 OA
ENDBRANCH  15  22
ENDBRANCH   2  15
TORSDOF 7
ENDMDL
MODEL 5
REMARK VINA RESULT:    -4.985      6.061     10.026
REMARK INTER + INTRA:          -7.478
REMARK INTER:                  -6.709
REMARK INTRA:                  -0.769
REMARK UNBOUND:                -0.745
REMARK  Name = /home/qwerty/github/datacon2025hack/step_04_hit_selection/docking/ligands/lig_649.pdb
REMARK  9 active torsions:
REMARK  status: ('A' for Active; 'I' for Inactive)
REMARK    1  A    between atoms: C1_1  and  C2_2
REMARK    2  A    between atoms: C2_2  and  C3_3
REMARK    3  A    between atoms: C2_2  and  N2_13
REMARK    4  A    between atoms: C5_7  and  O2_8
REMARK    5  A    between atoms: C7_10  and  C8_11
REMARK    6  A    between atoms: C8_11  and  O3_12
REMARK    7  A    between atoms: N2_13  and  C9_14
REMARK    8  A    between atoms: N2_13  and  S1_20
REMARK    9  A    between atoms: S1_20  and  C15_21
REMARK                            x       y       z     vdW  Elec       q    Type
REMARK                         _______ _______ _______ _____ _____    ______ ____
ROOT
ATOM      1  C1  UNL     1      18.230   1.374  27.535  0.00  0.00    +0.040 C 
ATOM      2  C2  UNL     1      18.906   1.678  26.191  0.00  0.00    +0.180 C 
ENDROOT
BRANCH   2   3
ATOM      3  C3  UNL     1      18.797   0.509  25.234  0.00  0.00    +0.238 C 
ATOM      4  O1  UNL     1      19.667  -0.405  25.270  0.00  0.00    -0.273 OA
ATOM      5  N1  UNL     1      17.744   0.444  24.250  0.00  0.00    -0.292 N 
ATOM      6  C4  UNL     1      16.966   1.600  23.830  0.00  0.00    +0.139 C 
ATOM      7  C5  UNL     1      16.087   1.118  22.677  0.00  0.00    +0.134 C 
ATOM      8  C6  UNL     1      16.722  -0.190  22.206  0.00  0.00    +0.057 C 
ATOM      9  C7  UNL     1      17.515  -0.722  23.403  0.00  0.00    +0.104 C 
BRANCH   7  10
ATOM     10  O2  UNL     1      14.781   0.867  23.132  0.00  0.00    -0.390 OA
ATOM     11  H8  UNL     1      14.705  -0.117  23.238  0.00  0.00    +0.210 HD
ENDBRANCH   7  10
BRANCH   9  12
ATOM     12  C8  UNL     1      16.724  -1.796  24.167  0.00  0.00    +0.178 C 
BRANCH  12  13
ATOM     13  O3  UNL     1      15.540  -2.101  23.482  0.00  0.00    -0.393 OA
ATOM     14  H14 UNL     1      15.233  -1.252  23.071  0.00  0.00    +0.209 HD
ENDBRANCH  12  13
ENDBRANCH   9  12
ENDBRANCH   2   3
BRANCH   2  15
ATOM     15  N2  UNL     1      20.312   2.061  26.399  0.00  0.00    -0.196 N 
BRANCH  15  16
ATOM     16  C9  UNL     1      20.963   1.837  27.659  0.00  0.00    +0.052 A 
ATOM     17  C10 UNL     1      21.555   0.597  27.939  0.00  0.00    +0.025 A 
ATOM     18  C11 UNL     1      22.202   0.387  29.162  0.00  0.00    +0.002 A 
ATOM     19  C12 UNL     1      22.266   1.416  30.105  0.00  0.00    +0.000 A 
ATOM     20  C13 UNL     1      21.687   2.659  29.826  0.00  0.00    +0.002 A 
ATOM     21  C14 UNL     1      21.041   2.871  28.605  0.00  0.00    +0.025 A 
ENDBRANCH  15  16
BRANCH  15  22
ATOM     22  S1  UNL     1      21.127   3.033  25.209  0.00  0.00    +0.043 S 
ATOM     23  C15 UNL     1      20.607   4.729  25.347  0.00  0.00    +0.218 C 
ATOM     24  O4  UNL     1      22.614   2.956  25.427  0.00  0.00    -0.155 OA
ATOM     25  O5  UNL     1      20.813   2.522  23.830  0.00  0.00    -0.155 OA
ENDBRANCH  15  22
ENDBRANCH   2  15
TORSDOF 7
ENDMDL
MODEL 6
REMARK VINA RESULT:    -4.881     13.592     14.939
REMARK INTER + INTRA:          -7.339
REMARK INTER:                  -6.602
REMARK INTRA:                  -0.737
REMARK UNBOUND:                -0.745
REMARK  Name = /home/qwerty/github/datacon2025hack/step_04_hit_selection/docking/ligands/lig_649.pdb
REMARK  9 active torsions:
REMARK  status: ('A' for Active; 'I' for Inactive)
REMARK    1  A    between atoms: C1_1  and  C2_2
REMARK    2  A    between atoms: C2_2  and  C3_3
REMARK    3  A    between atoms: C2_2  and  N2_13
REMARK    4  A    between atoms: C5_7  and  O2_8
REMARK    5  A    between atoms: C7_10  and  C8_11
REMARK    6  A    between atoms: C8_11  and  O3_12
REMARK    7  A    between atoms: N2_13  and  C9_14
REMARK    8  A    between atoms: N2_13  and  S1_20
REMARK    9  A    between atoms: S1_20  and  C15_21
REMARK                            x       y       z     vdW  Elec       q    Type
REMARK                         _______ _______ _______ _____ _____    ______ ____
ROOT
ATOM      1  C1  UNL     1      10.178   0.502  33.393  0.00  0.00    +0.040 C 
ATOM      2  C2  UNL     1       8.687   0.364  33.733  0.00  0.00    +0.180 C 
ENDROOT
BRANCH   2   3
ATOM      3  C3  UNL     1       8.470  -0.532  34.934  0.00  0.00    +0.238 C 
ATOM      4  O1  UNL     1       8.577  -1.783  34.802  0.00  0.00    -0.273 OA
ATOM      5  N1  UNL     1       8.095   0.013  36.215  0.00  0.00    -0.292 N 
ATOM      6  C4  UNL     1       7.532   1.345  36.387  0.00  0.00    +0.139 C 
ATOM      7  C5  UNL     1       7.140   1.448  37.861  0.00  0.00    +0.134 C 
ATOM      8  C6  UNL     1       7.099   0.007  38.368  0.00  0.00    +0.057 C 
ATOM      9  C7  UNL     1       8.010  -0.791  37.431  0.00  0.00    +0.104 C 
BRANCH   7  10
ATOM     10  O2  UNL     1       8.113   2.168  38.575  0.00  0.00    -0.390 OA
ATOM     11  H8  UNL     1       8.552   1.519  39.184  0.00  0.00    +0.210 HD
ENDBRANCH   7  10
BRANCH   9  12
ATOM     12  C8  UNL     1       9.406  -0.991  38.042  0.00  0.00    +0.178 C 
BRANCH  12  13
ATOM     13  O3  UNL     1       9.931  -2.229  37.647  0.00  0.00    -0.393 OA
ATOM     14  H14 UNL     1      10.293  -2.651  38.470  0.00  0.00    +0.209 HD
ENDBRANCH  12  13
ENDBRANCH   9  12
ENDBRANCH   2   3
BRANCH   2  15
ATOM     15  N2  UNL     1       7.938  -0.126  32.564  0.00  0.00    -0.196 N 
BRANCH  15  16
ATOM     16  C9  UNL     1       8.618  -0.614  31.399  0.00  0.00    +0.052 A 
ATOM     17  C10 UNL     1       8.784   0.214  30.278  0.00  0.00    +0.025 A 
ATOM     18  C11 UNL     1       9.461  -0.259  29.149  0.00  0.00    +0.002 A 
ATOM     19  C12 UNL     1       9.981  -1.556  29.137  0.00  0.00    +0.000 A 
ATOM     20  C13 UNL     1       9.829  -2.382  30.257  0.00  0.00    +0.002 A 
ATOM     21  C14 UNL     1       9.154  -1.911  31.386  0.00  0.00    +0.025 A 
ENDBRANCH  15  16
BRANCH  15  22
ATOM     22  S1  UNL     1       6.219   0.127  32.474  0.00  0.00    +0.043 S 
ATOM     23  C15 UNL     1       5.872   1.832  32.100  0.00  0.00    +0.218 C 
ATOM     24  O4  UNL     1       5.638  -0.741  31.391  0.00  0.00    -0.155 OA
ATOM     25  O5  UNL     1       5.579  -0.240  33.784  0.00  0.00    -0.155 OA
ENDBRANCH  15  22
ENDBRANCH   2  15
TORSDOF 7
ENDMDL
MODEL 7
REMARK VINA RESULT:    -4.829      8.959     11.395
REMARK INTER + INTRA:          -7.267
REMARK INTER:                  -6.463
REMARK INTRA:                  -0.805
REMARK UNBOUND:                -0.745
REMARK  Name = /home/qwerty/github/datacon2025hack/step_04_hit_selection/docking/ligands/lig_649.pdb
REMARK  9 active torsions:
REMARK  status: ('A' for Active; 'I' for Inactive)
REMARK    1  A    between atoms: C1_1  and  C2_2
REMARK    2  A    between atoms: C2_2  and  C3_3
REMARK    3  A    between atoms: C2_2  and  N2_13
REMARK    4  A    between atoms: C5_7  and  O2_8
REMARK    5  A    between atoms: C7_10  and  C8_11
REMARK    6  A    between atoms: C8_11  and  O3_12
REMARK    7  A    between atoms: N2_13  and  C9_14
REMARK    8  A    between atoms: N2_13  and  S1_20
REMARK    9  A    between atoms: S1_20  and  C15_21
REMARK                            x       y       z     vdW  Elec       q    Type
REMARK                         _______ _______ _______ _____ _____    ______ ____
ROOT
ATOM      1  C1  UNL     1      15.183   9.401  35.031  0.00  0.00    +0.040 C 
ATOM      2  C2  UNL     1      15.708  10.842  34.977  0.00  0.00    +0.180 C 
ENDROOT
BRANCH   2   3
ATOM      3  C3  UNL     1      16.831  11.064  35.968  0.00  0.00    +0.238 C 
ATOM      4  O1  UNL     1      16.600  10.947  37.203  0.00  0.00    -0.273 OA
ATOM      5  N1  UNL     1      18.149  11.453  35.530  0.00  0.00    -0.292 N 
ATOM      6  C4  UNL     1      18.422  12.026  34.220  0.00  0.00    +0.139 C 
ATOM      7  C5  UNL     1      19.896  12.432  34.238  0.00  0.00    +0.134 C 
ATOM      8  C6  UNL     1      20.285  12.468  35.715  0.00  0.00    +0.057 C 
ATOM      9  C7  UNL     1      19.295  11.543  36.430  0.00  0.00    +0.104 C 
BRANCH   7  10
ATOM     10  O2  UNL     1      20.675  11.470  33.573  0.00  0.00    -0.390 OA
ATOM     11  H8  UNL     1      20.418  10.589  33.951  0.00  0.00    +0.210 HD
ENDBRANCH   7  10
BRANCH   9  12
ATOM     12  C8  UNL     1      19.901  10.151  36.671  0.00  0.00    +0.178 C 
BRANCH  12  13
ATOM     13  O3  UNL     1      19.477   9.649  37.909  0.00  0.00    -0.393 OA
ATOM     14  H14 UNL     1      18.658  10.157  38.146  0.00  0.00    +0.209 HD
ENDBRANCH  12  13
ENDBRANCH   9  12
ENDBRANCH   2   3
BRANCH   2  15
ATOM     15  N2  UNL     1      14.610  11.797  35.200  0.00  0.00    -0.196 N 
BRANCH  15  16
ATOM     16  C9  UNL     1      13.340  11.361  35.705  0.00  0.00    +0.052 A 
ATOM     17  C10 UNL     1      12.373  10.837  34.833  0.00  0.00    +0.025 A 
ATOM     18  C11 UNL     1      11.142  10.399  35.332  0.00  0.00    +0.002 A 
ATOM     19  C12 UNL     1      10.874  10.473  36.701  0.00  0.00    +0.000 A 
ATOM     20  C13 UNL     1      11.839  10.983  37.577  0.00  0.00    +0.002 A 
ATOM     21  C14 UNL     1      13.070  11.422  37.081  0.00  0.00    +0.025 A 
ENDBRANCH  15  16
BRANCH  15  22
ATOM     22  S1  UNL     1      14.747  13.424  34.601  0.00  0.00    +0.043 S 
ATOM     23  C15 UNL     1      15.778  14.388  35.685  0.00  0.00    +0.218 C 
ATOM     24  O4  UNL     1      15.361  13.406  33.227  0.00  0.00    -0.155 OA
ATOM     25  O5  UNL     1      13.384  14.052  34.514  0.00  0.00    -0.155 OA
ENDBRANCH  15  22
ENDBRANCH   2  15
TORSDOF 7
ENDMDL
MODEL 8
REMARK VINA RESULT:    -4.827     12.452     14.297
REMARK INTER + INTRA:          -7.266
REMARK INTER:                  -6.484
REMARK INTRA:                  -0.782
REMARK UNBOUND:                -0.745
REMARK  Name = /home/qwerty/github/datacon2025hack/step_04_hit_selection/docking/ligands/lig_649.pdb
REMARK  9 active torsions:
REMARK  status: ('A' for Active; 'I' for Inactive)
REMARK    1  A    between atoms: C1_1  and  C2_2
REMARK    2  A    between atoms: C2_2  and  C3_3
REMARK    3  A    between atoms: C2_2  and  N2_13
REMARK    4  A    between atoms: C5_7  and  O2_8
REMARK    5  A    between atoms: C7_10  and  C8_11
REMARK    6  A    between atoms: C8_11  and  O3_12
REMARK    7  A    between atoms: N2_13  and  C9_14
REMARK    8  A    between atoms: N2_13  and  S1_20
REMARK    9  A    between atoms: S1_20  and  C15_21
REMARK                            x       y       z     vdW  Elec       q    Type
REMARK                         _______ _______ _______ _____ _____    ______ ____
ROOT
ATOM      1  C1  UNL     1      11.428  11.224  31.354  0.00  0.00    +0.040 C 
ATOM      2  C2  UNL     1      12.160  12.570  31.254  0.00  0.00    +0.180 C 
ENDROOT
BRANCH   2   3
ATOM      3  C3  UNL     1      11.968  13.403  32.503  0.00  0.00    +0.238 C 
ATOM      4  O1  UNL     1      10.908  14.074  32.644  0.00  0.00    -0.273 OA
ATOM      5  N1  UNL     1      12.994  13.484  33.514  0.00  0.00    -0.292 N 
ATOM      6  C4  UNL     1      14.384  13.124  33.276  0.00  0.00    +0.139 C 
ATOM      7  C5  UNL     1      15.141  13.507  34.548  0.00  0.00    +0.134 C 
ATOM      8  C6  UNL     1      14.217  14.471  35.289  0.00  0.00    +0.057 C 
ATOM      9  C7  UNL     1      12.803  14.158  34.794  0.00  0.00    +0.104 C 
BRANCH   7  10
ATOM     10  O2  UNL     1      15.367  12.370  35.342  0.00  0.00    -0.390 OA
ATOM     11  H8  UNL     1      15.988  12.651  36.064  0.00  0.00    +0.210 HD
ENDBRANCH   7  10
BRANCH   9  12
ATOM     12  C8  UNL     1      12.053  13.245  35.777  0.00  0.00    +0.178 C 
BRANCH  12  13
ATOM     13  O3  UNL     1      12.857  12.974  36.891  0.00  0.00    -0.393 OA
ATOM     14  H14 UNL     1      13.643  12.472  36.549  0.00  0.00    +0.209 HD
ENDBRANCH  12  13
ENDBRANCH   9  12
ENDBRANCH   2   3
BRANCH   2  15
ATOM     15  N2  UNL     1      11.722  13.304  30.056  0.00  0.00    -0.196 N 
BRANCH  15  16
ATOM     16  C9  UNL     1      10.543  12.913  29.336  0.00  0.00    +0.052 A 
ATOM     17  C10 UNL     1       9.285  13.398  29.723  0.00  0.00    +0.025 A 
ATOM     18  C11 UNL     1       8.140  13.028  29.010  0.00  0.00    +0.002 A 
ATOM     19  C12 UNL     1       8.247  12.178  27.905  0.00  0.00    +0.000 A 
ATOM     20  C13 UNL     1       9.501  11.701  27.508  0.00  0.00    +0.002 A 
ATOM     21  C14 UNL     1      10.646  12.070  28.219  0.00  0.00    +0.025 A 
ENDBRANCH  15  16
BRANCH  15  22
ATOM     22  S1  UNL     1      12.773  14.489  29.338  0.00  0.00    +0.043 S 
ATOM     23  C15 UNL     1      14.133  13.684  28.520  0.00  0.00    +0.218 C 
ATOM     24  O4  UNL     1      12.005  15.302  28.332  0.00  0.00    -0.155 OA
ATOM     25  O5  UNL     1      13.303  15.412  30.401  0.00  0.00    -0.155 OA
ENDBRANCH  15  22
ENDBRANCH   2  15
TORSDOF 7
ENDMDL
MODEL 9
REMARK VINA RESULT:    -4.702      2.279      7.044
REMARK INTER + INTRA:          -7.097
REMARK INTER:                  -6.255
REMARK INTRA:                  -0.842
REMARK UNBOUND:                -0.745
REMARK  Name = /home/qwerty/github/datacon2025hack/step_04_hit_selection/docking/ligands/lig_649.pdb
REMARK  9 active torsions:
REMARK  status: ('A' for Active; 'I' for Inactive)
REMARK    1  A    between atoms: C1_1  and  C2_2
REMARK    2  A    between atoms: C2_2  and  C3_3
REMARK    3  A    between atoms: C2_2  and  N2_13
REMARK    4  A    between atoms: C5_7  and  O2_8
REMARK    5  A    between atoms: C7_10  and  C8_11
REMARK    6  A    between atoms: C8_11  and  O3_12
REMARK    7  A    between atoms: N2_13  and  C9_14
REMARK    8  A    between atoms: N2_13  and  S1_20
REMARK    9  A    between atoms: S1_20  and  C15_21
REMARK                            x       y       z     vdW  Elec       q    Type
REMARK                         _______ _______ _______ _____ _____    ______ ____
ROOT
ATOM      1  C1  UNL     1      19.598   5.880  33.330  0.00  0.00    +0.040 C 
ATOM      2  C2  UNL     1      21.003   5.746  32.727  0.00  0.00    +0.180 C 
ENDROOT
BRANCH   2   3
ATOM      3  C3  UNL     1      21.476   4.308  32.729  0.00  0.00    +0.238 C 
ATOM      4  O1  UNL     1      21.956   3.815  33.787  0.00  0.00    -0.273 OA
ATOM      5  N1  UNL     1      21.433   3.504  31.532  0.00  0.00    -0.292 N 
ATOM      6  C4  UNL     1      21.317   4.065  30.193  0.00  0.00    +0.139 C 
ATOM      7  C5  UNL     1      21.469   2.888  29.231  0.00  0.00    +0.134 C 
ATOM      8  C6  UNL     1      22.101   1.770  30.059  0.00  0.00    +0.057 C 
ATOM      9  C7  UNL     1      21.746   2.079  31.516  0.00  0.00    +0.104 C 
BRANCH   7  10
ATOM     10  O2  UNL     1      20.210   2.472  28.766  0.00  0.00    -0.390 OA
ATOM     11  H8  UNL     1      19.543   2.817  29.415  0.00  0.00    +0.210 HD
ENDBRANCH   7  10
BRANCH   9  12
ATOM     12  C8  UNL     1      20.534   1.257  31.985  0.00  0.00    +0.178 C 
BRANCH  12  13
ATOM     13  O3  UNL     1      20.620   1.015  33.362  0.00  0.00    -0.393 OA
ATOM     14  H14 UNL     1      21.280   1.666  33.716  0.00  0.00    +0.209 HD
ENDBRANCH  12  13
ENDBRANCH   9  12
ENDBRANCH   2   3
BRANCH   2  15
ATOM     15  N2  UNL     1      21.952   6.616  33.440  0.00  0.00    -0.196 N 
BRANCH  15  16
ATOM     16  C9  UNL     1      21.603   7.225  34.692  0.00  0.00    +0.052 A 
ATOM     17  C10 UNL     1      21.971   6.618  35.901  0.00  0.00    +0.025 A 
ATOM     18  C11 UNL     1      21.642   7.222  37.120  0.00  0.00    +0.002 A 
ATOM     19  C12 UNL     1      20.953   8.438  37.134  0.00  0.00    +0.000 A 
ATOM     20  C13 UNL     1      20.594   9.054  35.931  0.00  0.00    +0.002 A 
ATOM     21  C14 UNL     1      20.922   8.453  34.712  0.00  0.00    +0.025 A 
ENDBRANCH  15  16
BRANCH  15  22
ATOM     22  S1  UNL     1      23.412   7.134  32.647  0.00  0.00    +0.043 S 
ATOM     23  C15 UNL     1      24.778   6.113  33.156  0.00  0.00    +0.218 C 
ATOM     24  O4  UNL     1      23.242   7.021  31.157  0.00  0.00    -0.155 OA
ATOM     25  O5  UNL     1      23.700   8.568  32.995  0.00  0.00    -0.155 OA
ENDBRANCH  15  22
ENDBRANCH   2  15
TORSDOF 7
ENDMDL
