MODEL 1
REMARK VINA RESULT:    -6.801      0.000      0.000
REMARK INTER + INTRA:          -9.324
REMARK INTER:                  -8.391
REMARK INTRA:                  -0.933
REMARK UNBOUND:                -0.933
REMARK  Name = /home/qwerty/github/datacon2025hack/step_04_hit_selection/docking/ligands/lig_42.pdb
REMARK  6 active torsions:
REMARK  status: ('A' for Active; 'I' for Inactive)
REMARK    1  A    between atoms: C1_1  and  C2_2
REMARK    2  A    between atoms: C2_2  and  C3_3
REMARK    3  A    between atoms: C3_3  and  C4_4
REMARK    4  A    between atoms: C3_3  and  C5_5
REMARK    5  A    between atoms: C9_11  and  C10_12
REMARK    6  A    between atoms: N2_14  and  C11_15
REMARK                            x       y       z     vdW  Elec       q    Type
REMARK                         _______ _______ _______ _____ _____    ______ ____
ROOT
ATOM      1  C10 UNL     1      12.708  14.234  31.983  0.00  0.00    +0.222 C 
ATOM      2  O2  UNL     1      13.821  13.704  31.707  0.00  0.00    -0.275 OA
ATOM      3  N2  UNL     1      11.910  14.811  30.938  0.00  0.00    -0.285 N 
ATOM      4  H17 UNL     1      11.293  15.620  31.173  0.00  0.00    +0.155 HD
ENDROOT
BRANCH   3   5
ATOM      5  C11 UNL     1      12.056  14.446  29.559  0.00  0.00    +0.038 A 
ATOM      6  C12 UNL     1      12.891  15.207  28.721  0.00  0.00    +0.023 A 
ATOM      7  C13 UNL     1      13.030  14.875  27.359  0.00  0.00    +0.002 A 
ATOM      8  C14 UNL     1      12.309  13.798  26.818  0.00  0.00    +0.005 A 
ATOM      9  C15 UNL     1      11.465  13.071  27.652  0.00  0.00    -0.024 A 
ATOM     10  C16 UNL     1      11.338  13.378  28.991  0.00  0.00    -0.004 A 
ATOM     11  C17 UNL     1      10.275  12.541  29.612  0.00  0.00    +0.144 C 
ATOM     12  N3  UNL     1       9.823  11.698  28.504  0.00  0.00    -0.301 N 
ATOM     13  C18 UNL     1       8.764  10.738  28.624  0.00  0.00    +0.161 A 
ATOM     14  N4  UNL     1       8.057  10.553  29.760  0.00  0.00    -0.233 NA
ATOM     15  C19 UNL     1       7.099   9.599  29.602  0.00  0.00    +0.120 A 
ATOM     16  C20 UNL     1       7.040   9.019  28.337  0.00  0.00    +0.068 A 
ATOM     17  S1  UNL     1       8.226   9.734  27.384  0.00  0.00    -0.061 S 
ATOM     18  C21 UNL     1      10.535  11.981  27.260  0.00  0.00    +0.142 C 
ENDBRANCH   3   5
BRANCH   1  25
ATOM     19  C5  UNL     1      12.788  12.127  36.524  0.00  0.00    +0.218 C 
ATOM     20  O1  UNL     1      13.940  12.324  37.003  0.00  0.00    -0.275 OA
ATOM     21  N1  UNL     1      12.256  13.072  35.584  0.00  0.00    -0.301 N 
ATOM     22  C6  UNL     1      11.345  14.130  36.036  0.00  0.00    +0.108 C 
ATOM     23  C7  UNL     1      10.233  14.356  34.999  0.00  0.00    +0.020 C 
ATOM     24  C8  UNL     1      10.731  14.292  33.534  0.00  0.00    +0.016 C 
ATOM     25  C9  UNL     1      12.267  14.307  33.423  0.00  0.00    +0.093 C 
ATOM     26  C22 UNL     1      12.887  13.169  34.262  0.00  0.00    +0.120 C 
BRANCH  19  27
ATOM     27  C3  UNL     1      12.026  10.875  36.925  0.00  0.00    +0.072 C 
ATOM     28  C4  UNL     1      10.926  11.167  37.960  0.00  0.00    +0.017 C 
BRANCH  27  30
ATOM     29  C1  UNL     1      12.623   9.459  34.819  0.00  0.00    +0.004 C 
ATOM     30  C2  UNL     1      11.524  10.047  35.713  0.00  0.00    +0.009 C 
ENDBRANCH  27  30
ENDBRANCH  19  27
ENDBRANCH   1  25
TORSDOF 4
ENDMDL
MODEL 2
REMARK VINA RESULT:    -6.600     14.881     16.348
REMARK INTER + INTRA:          -9.076
REMARK INTER:                  -8.054
REMARK INTRA:                  -1.023
REMARK UNBOUND:                -0.933
REMARK  Name = /home/qwerty/github/datacon2025hack/step_04_hit_selection/docking/ligands/lig_42.pdb
REMARK  6 active torsions:
REMARK  status: ('A' for Active; 'I' for Inactive)
REMARK    1  A    between atoms: C1_1  and  C2_2
REMARK    2  A    between atoms: C2_2  and  C3_3
REMARK    3  A    between atoms: C3_3  and  C4_4
REMARK    4  A    between atoms: C3_3  and  C5_5
REMARK    5  A    between atoms: C9_11  and  C10_12
REMARK    6  A    between atoms: N2_14  and  C11_15
REMARK                            x       y       z     vdW  Elec       q    Type
REMARK                         _______ _______ _______ _____ _____    ______ ____
ROOT
ATOM      1  C10 UNL     1      17.443   4.353  21.886  0.00  0.00    +0.222 C 
ATOM      2  O2  UNL     1      17.151   5.453  22.435  0.00  0.00    -0.275 OA
ATOM      3  N2  UNL     1      18.782   4.117  21.425  0.00  0.00    -0.285 N 
ATOM      4  H17 UNL     1      18.921   3.492  20.600  0.00  0.00    +0.155 HD
ENDROOT
BRANCH   3   5
ATOM      5  C11 UNL     1      19.915   4.838  21.929  0.00  0.00    +0.038 A 
ATOM      6  C12 UNL     1      20.469   5.885  21.170  0.00  0.00    +0.023 A 
ATOM      7  C13 UNL     1      21.594   6.589  21.640  0.00  0.00    +0.002 A 
ATOM      8  C14 UNL     1      22.194   6.231  22.858  0.00  0.00    +0.005 A 
ATOM      9  C15 UNL     1      21.653   5.175  23.585  0.00  0.00    -0.024 A 
ATOM     10  C16 UNL     1      20.539   4.492  23.141  0.00  0.00    -0.004 A 
ATOM     11  C17 UNL     1      20.260   3.331  24.030  0.00  0.00    +0.144 C 
ATOM     12  N3  UNL     1      21.304   3.432  25.050  0.00  0.00    -0.301 N 
ATOM     13  C18 UNL     1      21.457   2.488  26.119  0.00  0.00    +0.161 A 
ATOM     14  N4  UNL     1      20.676   1.394  26.259  0.00  0.00    -0.233 NA
ATOM     15  C19 UNL     1      21.042   0.654  27.342  0.00  0.00    +0.120 A 
ATOM     16  C20 UNL     1      22.116   1.157  28.070  0.00  0.00    +0.068 A 
ATOM     17  S1  UNL     1      22.630   2.575  27.324  0.00  0.00    -0.061 S 
ATOM     18  C21 UNL     1      22.198   4.566  24.826  0.00  0.00    +0.142 C 
ENDBRANCH   3   5
BRANCH   1  25
ATOM     19  C5  UNL     1      15.426  -0.009  23.290  0.00  0.00    +0.218 C 
ATOM     20  O1  UNL     1      14.834   0.194  24.388  0.00  0.00    -0.275 OA
ATOM     21  N1  UNL     1      15.555   1.078  22.360  0.00  0.00    -0.301 N 
ATOM     22  C6  UNL     1      14.604   1.219  21.253  0.00  0.00    +0.108 C 
ATOM     23  C7  UNL     1      15.331   1.682  19.980  0.00  0.00    +0.020 C 
ATOM     24  C8  UNL     1      16.424   2.747  20.245  0.00  0.00    +0.016 C 
ATOM     25  C9  UNL     1      16.358   3.330  21.669  0.00  0.00    +0.093 C 
ATOM     26  C22 UNL     1      16.424   2.204  22.723  0.00  0.00    +0.120 C 
BRANCH  19  27
ATOM     27  C3  UNL     1      16.017  -1.380  23.012  0.00  0.00    +0.072 C 
ATOM     28  C4  UNL     1      17.257  -1.307  22.104  0.00  0.00    +0.017 C 
BRANCH  27  30
ATOM     29  C1  UNL     1      17.677  -2.212  24.842  0.00  0.00    +0.004 C 
ATOM     30  C2  UNL     1      16.245  -2.223  24.295  0.00  0.00    +0.009 C 
ENDBRANCH  27  30
ENDBRANCH  19  27
ENDBRANCH   1  25
TORSDOF 4
ENDMDL
MODEL 3
REMARK VINA RESULT:    -6.562      5.375     10.863
REMARK INTER + INTRA:          -9.030
REMARK INTER:                  -8.215
REMARK INTRA:                  -0.815
REMARK UNBOUND:                -0.933
REMARK  Name = /home/qwerty/github/datacon2025hack/step_04_hit_selection/docking/ligands/lig_42.pdb
REMARK  6 active torsions:
REMARK  status: ('A' for Active; 'I' for Inactive)
REMARK    1  A    between atoms: C1_1  and  C2_2
REMARK    2  A    between atoms: C2_2  and  C3_3
REMARK    3  A    between atoms: C3_3  and  C4_4
REMARK    4  A    between atoms: C3_3  and  C5_5
REMARK    5  A    between atoms: C9_11  and  C10_12
REMARK    6  A    between atoms: N2_14  and  C11_15
REMARK                            x       y       z     vdW  Elec       q    Type
REMARK                         _______ _______ _______ _____ _____    ______ ____
ROOT
ATOM      1  C10 UNL     1       8.004   8.571  25.361  0.00  0.00    +0.222 C 
ATOM      2  O2  UNL     1       8.657   7.557  25.736  0.00  0.00    -0.275 OA
ATOM      3  N2  UNL     1       7.275   9.350  26.323  0.00  0.00    -0.285 N 
ATOM      4  H17 UNL     1       6.408   9.840  26.011  0.00  0.00    +0.155 HD
ENDROOT
BRANCH   3   5
ATOM      5  C11 UNL     1       7.582   9.337  27.724  0.00  0.00    +0.038 A 
ATOM      6  C12 UNL     1       6.875   8.479  28.585  0.00  0.00    +0.023 A 
ATOM      7  C13 UNL     1       7.148   8.469  29.967  0.00  0.00    +0.002 A 
ATOM      8  C14 UNL     1       8.110   9.341  30.502  0.00  0.00    +0.005 A 
ATOM      9  C15 UNL     1       8.783  10.204  29.643  0.00  0.00    -0.024 A 
ATOM     10  C16 UNL     1       8.534  10.206  28.286  0.00  0.00    -0.004 A 
ATOM     11  C17 UNL     1       9.282  11.314  27.628  0.00  0.00    +0.144 C 
ATOM     12  N3  UNL     1      10.011  11.930  28.737  0.00  0.00    -0.301 N 
ATOM     13  C18 UNL     1      10.854  13.080  28.585  0.00  0.00    +0.161 A 
ATOM     14  N4  UNL     1      11.020  13.727  27.411  0.00  0.00    -0.233 NA
ATOM     15  C19 UNL     1      11.854  14.795  27.542  0.00  0.00    +0.120 A 
ATOM     16  C20 UNL     1      12.357  15.002  28.823  0.00  0.00    +0.068 A 
ATOM     17  S1  UNL     1      11.728  13.809  29.827  0.00  0.00    -0.061 S 
ATOM     18  C21 UNL     1       9.743  11.275  30.015  0.00  0.00    +0.142 C 
ENDBRANCH   3   5
BRANCH   1  25
ATOM     19  C5  UNL     1      10.226   8.254  20.885  0.00  0.00    +0.218 C 
ATOM     20  O1  UNL     1      10.078   7.065  20.483  0.00  0.00    -0.275 OA
ATOM     21  N1  UNL     1       9.240   8.816  21.765  0.00  0.00    -0.301 N 
ATOM     22  C6  UNL     1       8.164   9.657  21.228  0.00  0.00    +0.108 C 
ATOM     23  C7  UNL     1       7.876  10.829  22.180  0.00  0.00    +0.020 C 
ATOM     24  C8  UNL     1       7.921  10.434  23.677  0.00  0.00    +0.016 C 
ATOM     25  C9  UNL     1       7.953   8.910  23.893  0.00  0.00    +0.093 C 
ATOM     26  C22 UNL     1       9.131   8.274  23.126  0.00  0.00    +0.120 C 
BRANCH  19  27
ATOM     27  C3  UNL     1      11.461   9.029  20.461  0.00  0.00    +0.072 C 
ATOM     28  C4  UNL     1      11.153  10.065  19.366  0.00  0.00    +0.017 C 
BRANCH  27  30
ATOM     29  C1  UNL     1      13.757   9.291  21.668  0.00  0.00    +0.004 C 
ATOM     30  C2  UNL     1      12.258   9.616  21.656  0.00  0.00    +0.009 C 
ENDBRANCH  27  30
ENDBRANCH  19  27
ENDBRANCH   1  25
TORSDOF 4
ENDMDL
MODEL 4
REMARK VINA RESULT:    -6.547     13.675     15.368
REMARK INTER + INTRA:          -9.011
REMARK INTER:                  -8.347
REMARK INTRA:                  -0.664
REMARK UNBOUND:                -0.933
REMARK  Name = /home/qwerty/github/datacon2025hack/step_04_hit_selection/docking/ligands/lig_42.pdb
REMARK  6 active torsions:
REMARK  status: ('A' for Active; 'I' for Inactive)
REMARK    1  A    between atoms: C1_1  and  C2_2
REMARK    2  A    between atoms: C2_2  and  C3_3
REMARK    3  A    between atoms: C3_3  and  C4_4
REMARK    4  A    between atoms: C3_3  and  C5_5
REMARK    5  A    between atoms: C9_11  and  C10_12
REMARK    6  A    between atoms: N2_14  and  C11_15
REMARK                            x       y       z     vdW  Elec       q    Type
REMARK                         _______ _______ _______ _____ _____    ______ ____
ROOT
ATOM      1  C10 UNL     1      19.657   0.952  25.098  0.00  0.00    +0.222 C 
ATOM      2  O2  UNL     1      19.811   0.874  23.847  0.00  0.00    -0.275 OA
ATOM      3  N2  UNL     1      18.440   0.487  25.701  0.00  0.00    -0.285 N 
ATOM      4  H17 UNL     1      18.108   0.953  26.574  0.00  0.00    +0.155 HD
ENDROOT
BRANCH   3   5
ATOM      5  C11 UNL     1      17.571  -0.460  25.064  0.00  0.00    +0.038 A 
ATOM      6  C12 UNL     1      17.827  -1.837  25.195  0.00  0.00    +0.023 A 
ATOM      7  C13 UNL     1      16.997  -2.781  24.559  0.00  0.00    +0.002 A 
ATOM      8  C14 UNL     1      15.923  -2.353  23.762  0.00  0.00    +0.005 A 
ATOM      9  C15 UNL     1      15.698  -0.987  23.618  0.00  0.00    -0.024 A 
ATOM     10  C16 UNL     1      16.495  -0.057  24.253  0.00  0.00    -0.004 A 
ATOM     11  C17 UNL     1      16.125   1.319  23.819  0.00  0.00    +0.144 C 
ATOM     12  N3  UNL     1      15.014   1.090  22.895  0.00  0.00    -0.301 N 
ATOM     13  C18 UNL     1      14.345   2.144  22.189  0.00  0.00    +0.161 A 
ATOM     14  N4  UNL     1      14.707   3.443  22.280  0.00  0.00    -0.233 NA
ATOM     15  C19 UNL     1      13.925   4.235  21.497  0.00  0.00    +0.120 A 
ATOM     16  C20 UNL     1      12.935   3.570  20.779  0.00  0.00    +0.068 A 
ATOM     17  S1  UNL     1      13.050   1.931  21.134  0.00  0.00    -0.061 S 
ATOM     18  C21 UNL     1      14.701  -0.328  22.737  0.00  0.00    +0.142 C 
ENDBRANCH   3   5
BRANCH   1  25
ATOM     19  C5  UNL     1      22.384   0.810  29.295  0.00  0.00    +0.218 C 
ATOM     20  O1  UNL     1      23.227  -0.121  29.157  0.00  0.00    -0.275 OA
ATOM     21  N1  UNL     1      21.907   1.493  28.125  0.00  0.00    -0.301 N 
ATOM     22  C6  UNL     1      22.508   2.768  27.718  0.00  0.00    +0.108 C 
ATOM     23  C7  UNL     1      21.425   3.727  27.197  0.00  0.00    +0.020 C 
ATOM     24  C8  UNL     1      20.347   3.030  26.331  0.00  0.00    +0.016 C 
ATOM     25  C9  UNL     1      20.737   1.595  25.931  0.00  0.00    +0.093 C 
ATOM     26  C22 UNL     1      21.064   0.749  27.181  0.00  0.00    +0.120 C 
BRANCH  19  27
ATOM     27  C3  UNL     1      21.873   1.143  30.685  0.00  0.00    +0.072 C 
ATOM     28  C4  UNL     1      22.220   2.582  31.106  0.00  0.00    +0.017 C 
BRANCH  27  30
ATOM     29  C1  UNL     1      20.005   0.311  32.303  0.00  0.00    +0.004 C 
ATOM     30  C2  UNL     1      20.377   0.786  30.893  0.00  0.00    +0.009 C 
ENDBRANCH  27  30
ENDBRANCH  19  27
ENDBRANCH   1  25
TORSDOF 4
ENDMDL
MODEL 5
REMARK VINA RESULT:    -6.513      3.955      8.648
REMARK INTER + INTRA:          -8.969
REMARK INTER:                  -8.294
REMARK INTRA:                  -0.675
REMARK UNBOUND:                -0.933
REMARK  Name = /home/qwerty/github/datacon2025hack/step_04_hit_selection/docking/ligands/lig_42.pdb
REMARK  6 active torsions:
REMARK  status: ('A' for Active; 'I' for Inactive)
REMARK    1  A    between atoms: C1_1  and  C2_2
REMARK    2  A    between atoms: C2_2  and  C3_3
REMARK    3  A    between atoms: C3_3  and  C4_4
REMARK    4  A    between atoms: C3_3  and  C5_5
REMARK    5  A    between atoms: C9_11  and  C10_12
REMARK    6  A    between atoms: N2_14  and  C11_15
REMARK                            x       y       z     vdW  Elec       q    Type
REMARK                         _______ _______ _______ _____ _____    ______ ____
ROOT
ATOM      1  C10 UNL     1      12.146  14.040  31.857  0.00  0.00    +0.222 C 
ATOM      2  O2  UNL     1      12.418  15.081  32.520  0.00  0.00    -0.275 OA
ATOM      3  N2  UNL     1      12.369  12.745  32.434  0.00  0.00    -0.285 N 
ATOM      4  H17 UNL     1      12.610  11.952  31.799  0.00  0.00    +0.155 HD
ENDROOT
BRANCH   3   5
ATOM      5  C11 UNL     1      12.453  12.530  33.849  0.00  0.00    +0.038 A 
ATOM      6  C12 UNL     1      11.281  12.551  34.628  0.00  0.00    +0.023 A 
ATOM      7  C13 UNL     1      11.346  12.363  36.022  0.00  0.00    +0.002 A 
ATOM      8  C14 UNL     1      12.588  12.184  36.653  0.00  0.00    +0.005 A 
ATOM      9  C15 UNL     1      13.742  12.193  35.875  0.00  0.00    -0.024 A 
ATOM     10  C16 UNL     1      13.684  12.357  34.506  0.00  0.00    -0.004 A 
ATOM     11  C17 UNL     1      15.059  12.468  33.943  0.00  0.00    +0.144 C 
ATOM     12  N3  UNL     1      15.915  12.319  35.121  0.00  0.00    -0.301 N 
ATOM     13  C18 UNL     1      17.346  12.393  35.070  0.00  0.00    +0.161 A 
ATOM     14  N4  UNL     1      18.035  12.650  33.936  0.00  0.00    -0.233 NA
ATOM     15  C19 UNL     1      19.377  12.686  34.164  0.00  0.00    +0.120 A 
ATOM     16  C20 UNL     1      19.762  12.456  35.482  0.00  0.00    +0.068 A 
ATOM     17  S1  UNL     1      18.371  12.207  36.393  0.00  0.00    -0.061 S 
ATOM     18  C21 UNL     1      15.148  12.138  36.351  0.00  0.00    +0.142 C 
ENDBRANCH   3   5
BRANCH   1  25
ATOM     19  C5  UNL     1       8.527  13.043  28.543  0.00  0.00    +0.218 C 
ATOM     20  O1  UNL     1       7.553  13.799  28.821  0.00  0.00    -0.275 OA
ATOM     21  N1  UNL     1       9.858  13.480  28.862  0.00  0.00    -0.301 N 
ATOM     22  C6  UNL     1      10.694  14.110  27.835  0.00  0.00    +0.108 C 
ATOM     23  C7  UNL     1      12.152  13.645  27.974  0.00  0.00    +0.020 C 
ATOM     24  C8  UNL     1      12.628  13.531  29.443  0.00  0.00    +0.016 C 
ATOM     25  C9  UNL     1      11.650  14.181  30.440  0.00  0.00    +0.093 C 
ATOM     26  C22 UNL     1      10.232  13.592  30.277  0.00  0.00    +0.120 C 
BRANCH  19  27
ATOM     27  C3  UNL     1       8.254  11.684  27.924  0.00  0.00    +0.072 C 
ATOM     28  C4  UNL     1       9.452  11.161  27.112  0.00  0.00    +0.017 C 
BRANCH  27  30
ATOM     29  C1  UNL     1       8.691  10.181  30.009  0.00  0.00    +0.004 C 
ATOM     30  C2  UNL     1       7.699  10.647  28.937  0.00  0.00    +0.009 C 
ENDBRANCH  27  30
ENDBRANCH  19  27
ENDBRANCH   1  25
TORSDOF 4
ENDMDL
MODEL 6
REMARK VINA RESULT:    -6.466     13.790     16.494
REMARK INTER + INTRA:          -8.911
REMARK INTER:                  -8.144
REMARK INTRA:                  -0.767
REMARK UNBOUND:                -0.933
REMARK  Name = /home/qwerty/github/datacon2025hack/step_04_hit_selection/docking/ligands/lig_42.pdb
REMARK  6 active torsions:
REMARK  status: ('A' for Active; 'I' for Inactive)
REMARK    1  A    between atoms: C1_1  and  C2_2
REMARK    2  A    between atoms: C2_2  and  C3_3
REMARK    3  A    between atoms: C3_3  and  C4_4
REMARK    4  A    between atoms: C3_3  and  C5_5
REMARK    5  A    between atoms: C9_11  and  C10_12
REMARK    6  A    between atoms: N2_14  and  C11_15
REMARK                            x       y       z     vdW  Elec       q    Type
REMARK                         _______ _______ _______ _____ _____    ______ ____
ROOT
ATOM      1  C10 UNL     1      23.309  11.003  19.937  0.00  0.00    +0.222 C 
ATOM      2  O2  UNL     1      24.105  11.939  19.643  0.00  0.00    -0.275 OA
ATOM      3  N2  UNL     1      22.011  11.307  20.469  0.00  0.00    -0.285 N 
ATOM      4  H17 UNL     1      21.571  10.627  21.127  0.00  0.00    +0.155 HD
ENDROOT
BRANCH   3   5
ATOM      5  C11 UNL     1      21.373  12.577  20.279  0.00  0.00    +0.038 A 
ATOM      6  C12 UNL     1      20.894  12.934  19.005  0.00  0.00    +0.023 A 
ATOM      7  C13 UNL     1      20.285  14.186  18.796  0.00  0.00    +0.002 A 
ATOM      8  C14 UNL     1      20.177  15.104  19.852  0.00  0.00    +0.005 A 
ATOM      9  C15 UNL     1      20.679  14.750  21.101  0.00  0.00    -0.024 A 
ATOM     10  C16 UNL     1      21.261  13.518  21.319  0.00  0.00    -0.004 A 
ATOM     11  C17 UNL     1      21.835  13.456  22.692  0.00  0.00    +0.144 C 
ATOM     12  N3  UNL     1      21.497  14.763  23.255  0.00  0.00    -0.301 N 
ATOM     13  C18 UNL     1      21.883  15.179  24.572  0.00  0.00    +0.161 A 
ATOM     14  N4  UNL     1      22.631  14.417  25.399  0.00  0.00    -0.233 NA
ATOM     15  C19 UNL     1      22.873  15.051  26.580  0.00  0.00    +0.120 A 
ATOM     16  C20 UNL     1      22.316  16.321  26.697  0.00  0.00    +0.068 A 
ATOM     17  S1  UNL     1      21.500  16.664  25.268  0.00  0.00    -0.061 S 
ATOM     18  C21 UNL     1      20.772  15.609  22.309  0.00  0.00    +0.142 C 
ENDBRANCH   3   5
BRANCH   1  25
ATOM     19  C5  UNL     1      22.092   6.149  20.101  0.00  0.00    +0.218 C 
ATOM     20  O1  UNL     1      21.407   5.904  19.067  0.00  0.00    -0.275 OA
ATOM     21  N1  UNL     1      23.067   7.202  20.055  0.00  0.00    -0.301 N 
ATOM     22  C6  UNL     1      24.477   6.891  19.798  0.00  0.00    +0.108 C 
ATOM     23  C7  UNL     1      25.386   7.779  20.664  0.00  0.00    +0.020 C 
ATOM     24  C8  UNL     1      24.890   9.241  20.782  0.00  0.00    +0.016 C 
ATOM     25  C9  UNL     1      23.767   9.574  19.783  0.00  0.00    +0.093 C 
ATOM     26  C22 UNL     1      22.591   8.586  19.933  0.00  0.00    +0.120 C 
BRANCH  19  27
ATOM     27  C3  UNL     1      21.828   5.352  21.367  0.00  0.00    +0.072 C 
ATOM     28  C4  UNL     1      22.225   6.125  22.637  0.00  0.00    +0.017 C 
BRANCH  27  30
ATOM     29  C1  UNL     1      20.054   4.011  22.727  0.00  0.00    +0.004 C 
ATOM     30  C2  UNL     1      20.396   4.758  21.432  0.00  0.00    +0.009 C 
ENDBRANCH  27  30
ENDBRANCH  19  27
ENDBRANCH   1  25
TORSDOF 4
ENDMDL
MODEL 7
REMARK VINA RESULT:    -6.464      4.575      7.598
REMARK INTER + INTRA:          -8.908
REMARK INTER:                  -7.854
REMARK INTRA:                  -1.054
REMARK UNBOUND:                -0.933
REMARK  Name = /home/qwerty/github/datacon2025hack/step_04_hit_selection/docking/ligands/lig_42.pdb
REMARK  6 active torsions:
REMARK  status: ('A' for Active; 'I' for Inactive)
REMARK    1  A    between atoms: C1_1  and  C2_2
REMARK    2  A    between atoms: C2_2  and  C3_3
REMARK    3  A    between atoms: C3_3  and  C4_4
REMARK    4  A    between atoms: C3_3  and  C5_5
REMARK    5  A    between atoms: C9_11  and  C10_12
REMARK    6  A    between atoms: N2_14  and  C11_15
REMARK                            x       y       z     vdW  Elec       q    Type
REMARK                         _______ _______ _______ _____ _____    ______ ____
ROOT
ATOM      1  C10 UNL     1      14.900  14.593  27.939  0.00  0.00    +0.222 C 
ATOM      2  O2  UNL     1      14.856  13.400  27.526  0.00  0.00    -0.275 OA
ATOM      3  N2  UNL     1      13.682  15.295  28.232  0.00  0.00    -0.285 N 
ATOM      4  H17 UNL     1      13.661  16.330  28.101  0.00  0.00    +0.155 HD
ENDROOT
BRANCH   3   5
ATOM      5  C11 UNL     1      12.449  14.622  28.520  0.00  0.00    +0.038 A 
ATOM      6  C12 UNL     1      11.502  14.432  27.498  0.00  0.00    +0.023 A 
ATOM      7  C13 UNL     1      10.277  13.792  27.768  0.00  0.00    +0.002 A 
ATOM      8  C14 UNL     1       9.976  13.364  29.071  0.00  0.00    +0.005 A 
ATOM      9  C15 UNL     1      10.910  13.583  30.080  0.00  0.00    -0.024 A 
ATOM     10  C16 UNL     1      12.120  14.192  29.819  0.00  0.00    -0.004 A 
ATOM     11  C17 UNL     1      12.862  14.427  31.089  0.00  0.00    +0.144 C 
ATOM     12  N3  UNL     1      11.972  13.863  32.105  0.00  0.00    -0.301 N 
ATOM     13  C18 UNL     1      12.259  13.892  33.509  0.00  0.00    +0.161 A 
ATOM     14  N4  UNL     1      13.359  14.481  34.028  0.00  0.00    -0.233 NA
ATOM     15  C19 UNL     1      13.383  14.385  35.386  0.00  0.00    +0.120 A 
ATOM     16  C20 UNL     1      12.301  13.717  35.954  0.00  0.00    +0.068 A 
ATOM     17  S1  UNL     1      11.276  13.239  34.710  0.00  0.00    -0.061 S 
ATOM     18  C21 UNL     1      10.744  13.318  31.532  0.00  0.00    +0.142 C 
ENDBRANCH   3   5
BRANCH   1  25
ATOM     19  C5  UNL     1      19.771  14.174  29.019  0.00  0.00    +0.218 C 
ATOM     20  O1  UNL     1      20.314  13.570  28.050  0.00  0.00    -0.275 OA
ATOM     21  N1  UNL     1      18.599  14.966  28.774  0.00  0.00    -0.301 N 
ATOM     22  C6  UNL     1      18.715  16.416  28.580  0.00  0.00    +0.108 C 
ATOM     23  C7  UNL     1      17.544  17.141  29.262  0.00  0.00    +0.020 C 
ATOM     24  C8  UNL     1      16.187  16.412  29.101  0.00  0.00    +0.016 C 
ATOM     25  C9  UNL     1      16.237  15.280  28.057  0.00  0.00    +0.093 C 
ATOM     26  C22 UNL     1      17.360  14.277  28.393  0.00  0.00    +0.120 C 
BRANCH  19  27
ATOM     27  C3  UNL     1      20.350  14.004  30.412  0.00  0.00    +0.072 C 
ATOM     28  C4  UNL     1      21.312  15.145  30.788  0.00  0.00    +0.017 C 
BRANCH  27  30
ATOM     29  C1  UNL     1      18.770  14.962  32.252  0.00  0.00    +0.004 C 
ATOM     30  C2  UNL     1      19.274  13.726  31.496  0.00  0.00    +0.009 C 
ENDBRANCH  27  30
ENDBRANCH  19  27
ENDBRANCH   1  25
TORSDOF 4
ENDMDL
MODEL 8
REMARK VINA RESULT:    -6.335     11.559     14.496
REMARK INTER + INTRA:          -8.749
REMARK INTER:                  -8.076
REMARK INTRA:                  -0.674
REMARK UNBOUND:                -0.933
REMARK  Name = /home/qwerty/github/datacon2025hack/step_04_hit_selection/docking/ligands/lig_42.pdb
REMARK  6 active torsions:
REMARK  status: ('A' for Active; 'I' for Inactive)
REMARK    1  A    between atoms: C1_1  and  C2_2
REMARK    2  A    between atoms: C2_2  and  C3_3
REMARK    3  A    between atoms: C3_3  and  C4_4
REMARK    4  A    between atoms: C3_3  and  C5_5
REMARK    5  A    between atoms: C9_11  and  C10_12
REMARK    6  A    between atoms: N2_14  and  C11_15
REMARK                            x       y       z     vdW  Elec       q    Type
REMARK                         _______ _______ _______ _____ _____    ______ ____
ROOT
ATOM      1  C10 UNL     1      21.719   4.005  32.896  0.00  0.00    +0.222 C 
ATOM      2  O2  UNL     1      22.122   4.011  34.093  0.00  0.00    -0.275 OA
ATOM      3  N2  UNL     1      21.517   5.246  32.202  0.00  0.00    -0.285 N 
ATOM      4  H17 UNL     1      20.780   5.288  31.464  0.00  0.00    +0.155 HD
ENDROOT
BRANCH   3   5
ATOM      5  C11 UNL     1      22.153   6.469  32.598  0.00  0.00    +0.038 A 
ATOM      6  C12 UNL     1      23.433   6.780  32.106  0.00  0.00    +0.023 A 
ATOM      7  C13 UNL     1      24.081   7.966  32.502  0.00  0.00    +0.002 A 
ATOM      8  C14 UNL     1      23.466   8.836  33.417  0.00  0.00    +0.005 A 
ATOM      9  C15 UNL     1      22.211   8.502  33.918  0.00  0.00    -0.024 A 
ATOM     10  C16 UNL     1      21.562   7.351  33.521  0.00  0.00    -0.004 A 
ATOM     11  C17 UNL     1      20.312   7.168  34.309  0.00  0.00    +0.144 C 
ATOM     12  N3  UNL     1      20.289   8.346  35.178  0.00  0.00    -0.301 N 
ATOM     13  C18 UNL     1      19.267   8.586  36.154  0.00  0.00    +0.161 A 
ATOM     14  N4  UNL     1      18.252   7.726  36.392  0.00  0.00    -0.233 NA
ATOM     15  C19 UNL     1      17.433   8.181  37.379  0.00  0.00    +0.120 A 
ATOM     16  C20 UNL     1      17.791   9.408  37.931  0.00  0.00    +0.068 A 
ATOM     17  S1  UNL     1      19.189   9.935  37.159  0.00  0.00    -0.061 S 
ATOM     18  C21 UNL     1      21.445   9.214  34.972  0.00  0.00    +0.142 C 
ENDBRANCH   3   5
BRANCH   1  25
ATOM     19  C5  UNL     1      22.295   1.043  28.900  0.00  0.00    +0.218 C 
ATOM     20  O1  UNL     1      23.471   0.582  28.948  0.00  0.00    -0.275 OA
ATOM     21  N1  UNL     1      21.635   1.388  30.128  0.00  0.00    -0.301 N 
ATOM     22  C6  UNL     1      20.707   0.442  30.757  0.00  0.00    +0.108 C 
ATOM     23  C7  UNL     1      19.501   1.191  31.349  0.00  0.00    +0.020 C 
ATOM     24  C8  UNL     1      19.879   2.527  32.033  0.00  0.00    +0.016 C 
ATOM     25  C9  UNL     1      21.397   2.688  32.236  0.00  0.00    +0.093 C 
ATOM     26  C22 UNL     1      22.147   2.529  30.896  0.00  0.00    +0.120 C 
BRANCH  19  27
ATOM     27  C3  UNL     1      21.641   1.258  27.547  0.00  0.00    +0.072 C 
ATOM     28  C4  UNL     1      20.105   1.268  27.635  0.00  0.00    +0.017 C 
BRANCH  27  30
ATOM     29  C1  UNL     1      21.870   3.847  27.348  0.00  0.00    +0.004 C 
ATOM     30  C2  UNL     1      22.219   2.470  26.770  0.00  0.00    +0.009 C 
ENDBRANCH  27  30
ENDBRANCH  19  27
ENDBRANCH   1  25
TORSDOF 4
ENDMDL
MODEL 9
REMARK VINA RESULT:    -6.320     14.714     17.066
REMARK INTER + INTRA:          -8.731
REMARK INTER:                  -8.063
REMARK INTRA:                  -0.668
REMARK UNBOUND:                -0.933
REMARK  Name = /home/qwerty/github/datacon2025hack/step_04_hit_selection/docking/ligands/lig_42.pdb
REMARK  6 active torsions:
REMARK  status: ('A' for Active; 'I' for Inactive)
REMARK    1  A    between atoms: C1_1  and  C2_2
REMARK    2  A    between atoms: C2_2  and  C3_3
REMARK    3  A    between atoms: C3_3  and  C4_4
REMARK    4  A    between atoms: C3_3  and  C5_5
REMARK    5  A    between atoms: C9_11  and  C10_12
REMARK    6  A    between atoms: N2_14  and  C11_15
REMARK                            x       y       z     vdW  Elec       q    Type
REMARK                         _______ _______ _______ _____ _____    ______ ____
ROOT
ATOM      1  C10 UNL     1      20.962   5.357  23.909  0.00  0.00    +0.222 C 
ATOM      2  O2  UNL     1      20.562   5.922  24.966  0.00  0.00    -0.275 OA
ATOM      3  N2  UNL     1      21.687   4.120  23.989  0.00  0.00    -0.285 N 
ATOM      4  H17 UNL     1      22.396   3.912  23.252  0.00  0.00    +0.155 HD
ENDROOT
BRANCH   3   5
ATOM      5  C11 UNL     1      21.610   3.248  25.124  0.00  0.00    +0.038 A 
ATOM      6  C12 UNL     1      22.553   3.367  26.160  0.00  0.00    +0.023 A 
ATOM      7  C13 UNL     1      22.506   2.505  27.273  0.00  0.00    +0.002 A 
ATOM      8  C14 UNL     1      21.532   1.495  27.342  0.00  0.00    +0.005 A 
ATOM      9  C15 UNL     1      20.621   1.370  26.297  0.00  0.00    -0.024 A 
ATOM     10  C16 UNL     1      20.650   2.224  25.213  0.00  0.00    -0.004 A 
ATOM     11  C17 UNL     1      19.666   1.782  24.186  0.00  0.00    +0.144 C 
ATOM     12  N3  UNL     1      19.044   0.609  24.801  0.00  0.00    -0.301 N 
ATOM     13  C18 UNL     1      18.041  -0.183  24.151  0.00  0.00    +0.161 A 
ATOM     14  N4  UNL     1      17.606   0.056  22.895  0.00  0.00    -0.233 NA
ATOM     15  C19 UNL     1      16.667  -0.851  22.510  0.00  0.00    +0.120 A 
ATOM     16  C20 UNL     1      16.349  -1.818  23.460  0.00  0.00    +0.068 A 
ATOM     17  S1  UNL     1      17.284  -1.528  24.827  0.00  0.00    -0.061 S 
ATOM     18  C21 UNL     1      19.597   0.309  26.119  0.00  0.00    +0.142 C 
ENDBRANCH   3   5
BRANCH   1  25
ATOM     19  C5  UNL     1      22.619   6.210  19.262  0.00  0.00    +0.218 C 
ATOM     20  O1  UNL     1      22.443   5.145  18.606  0.00  0.00    -0.275 OA
ATOM     21  N1  UNL     1      21.740   6.502  20.360  0.00  0.00    -0.301 N 
ATOM     22  C6  UNL     1      20.592   7.396  20.168  0.00  0.00    +0.108 C 
ATOM     23  C7  UNL     1      20.403   8.295  21.401  0.00  0.00    +0.020 C 
ATOM     24  C8  UNL     1      20.639   7.560  22.743  0.00  0.00    +0.016 C 
ATOM     25  C9  UNL     1      20.724   6.031  22.582  0.00  0.00    +0.093 C 
ATOM     26  C22 UNL     1      21.809   5.650  21.553  0.00  0.00    +0.120 C 
BRANCH  19  27
ATOM     27  C3  UNL     1      23.779   7.120  18.897  0.00  0.00    +0.072 C 
ATOM     28  C4  UNL     1      23.346   8.590  18.757  0.00  0.00    +0.017 C 
BRANCH  27  30
ATOM     29  C1  UNL     1      25.048   7.798  21.071  0.00  0.00    +0.004 C 
ATOM     30  C2  UNL     1      25.020   6.929  19.807  0.00  0.00    +0.009 C 
ENDBRANCH  27  30
ENDBRANCH  19  27
ENDBRANCH   1  25
TORSDOF 4
ENDMDL
