MODEL 1
REMARK VINA RESULT:    -6.671      0.000      0.000
REMARK INTER + INTRA:          -8.830
REMARK INTER:                  -8.231
REMARK INTRA:                  -0.599
REMARK UNBOUND:                -0.599
REMARK  Name = /home/qwerty/github/datacon2025hack/step_04_hit_selection/docking/ligands/lig_705.pdb
REMARK  6 active torsions:
REMARK  status: ('A' for Active; 'I' for Inactive)
REMARK    1  A    between atoms: C1_1  and  C2_2
REMARK    2  A    between atoms: C2_2  and  C3_3
REMARK    3  A    between atoms: C2_2  and  C4_4
REMARK    4  A    between atoms: N1_6  and  C5_7
REMARK    5  A    between atoms: C8_10  and  N2_11
REMARK    6  A    between atoms: N3_14  and  C10_15
REMARK                            x       y       z     vdW  Elec       q    Type
REMARK                         _______ _______ _______ _____ _____    ______ ____
ROOT
ATOM      1  N2  UNL     1      11.633   2.822  20.435  0.00  0.00    -0.269 N 
ATOM      2  C9  UNL     1      10.876   3.917  20.974  0.00  0.00    +0.308 C 
ATOM      3  O2  UNL     1      10.863   4.127  22.218  0.00  0.00    -0.252 OA
ATOM      4  N3  UNL     1      10.069   4.717  20.097  0.00  0.00    -0.269 N 
ATOM      5  H11 UNL     1      11.395   2.494  19.472  0.00  0.00    +0.156 HD
ATOM      6  H12 UNL     1       9.869   4.340  19.143  0.00  0.00    +0.156 HD
ENDROOT
BRANCH   4   7
ATOM      7  C10 UNL     1       9.435   5.948  20.482  0.00  0.00    +0.038 A 
ATOM      8  C11 UNL     1       8.135   5.961  21.059  0.00  0.00    +0.027 A 
ATOM      9  C12 UNL     1       7.540   7.174  21.453  0.00  0.00    +0.051 A 
ATOM     10  C13 UNL     1       8.269   8.344  21.272  0.00  0.00    +0.166 A 
ATOM     11  C14 UNL     1       9.516   8.338  20.740  0.00  0.00    +0.168 A 
ATOM     12  C15 UNL     1      10.141   7.161  20.338  0.00  0.00    +0.073 A 
ATOM     13  O3  UNL     1      10.000   9.631  20.686  0.00  0.00    -0.453 OA
ATOM     14  C16 UNL     1       8.993  10.504  21.217  0.00  0.00    +0.466 C 
ATOM     15  O4  UNL     1       7.905   9.642  21.579  0.00  0.00    -0.453 OA
ENDBRANCH   4   7
BRANCH   1  19
ATOM     16  C5  UNL     1      14.584   0.713  22.666  0.00  0.00    +0.034 A 
ATOM     17  C6  UNL     1      14.928   1.843  21.904  0.00  0.00    +0.025 A 
ATOM     18  C7  UNL     1      13.952   2.528  21.177  0.00  0.00    +0.025 A 
ATOM     19  C8  UNL     1      12.622   2.084  21.174  0.00  0.00    +0.035 A 
ATOM     20  C17 UNL     1      12.278   0.954  21.936  0.00  0.00    +0.025 A 
ATOM     21  C18 UNL     1      13.255   0.269  22.664  0.00  0.00    +0.025 A 
BRANCH  16  24
ATOM     22  C4  UNL     1      16.246  -1.192  22.905  0.00  0.00    +0.220 C 
ATOM     23  O1  UNL     1      16.210  -1.471  21.675  0.00  0.00    -0.275 OA
ATOM     24  N1  UNL     1      15.574  -0.025  23.405  0.00  0.00    -0.285 N 
ATOM     25  H8  UNL     1      15.882   0.358  24.327  0.00  0.00    +0.155 HD
BRANCH  22  27
ATOM     26  C1  UNL     1      17.928  -1.166  24.759  0.00  0.00    +0.017 C 
ATOM     27  C2  UNL     1      17.073  -2.041  23.838  0.00  0.00    +0.069 C 
ATOM     28  C3  UNL     1      16.166  -2.971  24.649  0.00  0.00    +0.017 C 
ENDBRANCH  22  27
ENDBRANCH  16  24
ENDBRANCH   1  19
TORSDOF 4
ENDMDL
MODEL 2
REMARK VINA RESULT:    -6.516      9.887     13.063
REMARK INTER + INTRA:          -8.639
REMARK INTER:                  -8.134
REMARK INTRA:                  -0.505
REMARK UNBOUND:                -0.599
REMARK  Name = /home/qwerty/github/datacon2025hack/step_04_hit_selection/docking/ligands/lig_705.pdb
REMARK  6 active torsions:
REMARK  status: ('A' for Active; 'I' for Inactive)
REMARK    1  A    between atoms: C1_1  and  C2_2
REMARK    2  A    between atoms: C2_2  and  C3_3
REMARK    3  A    between atoms: C2_2  and  C4_4
REMARK    4  A    between atoms: N1_6  and  C5_7
REMARK    5  A    between atoms: C8_10  and  N2_11
REMARK    6  A    between atoms: N3_14  and  C10_15
REMARK                            x       y       z     vdW  Elec       q    Type
REMARK                         _______ _______ _______ _____ _____    ______ ____
ROOT
ATOM      1  N2  UNL     1      22.427   1.685  29.089  0.00  0.00    -0.269 N 
ATOM      2  C9  UNL     1      21.863   2.416  27.990  0.00  0.00    +0.308 C 
ATOM      3  O2  UNL     1      20.683   2.856  28.060  0.00  0.00    -0.252 OA
ATOM      4  N3  UNL     1      22.621   2.569  26.780  0.00  0.00    -0.269 N 
ATOM      5  H11 UNL     1      23.264   1.090  28.898  0.00  0.00    +0.156 HD
ATOM      6  H12 UNL     1      23.452   1.950  26.647  0.00  0.00    +0.156 HD
ENDROOT
BRANCH   4   7
ATOM      7  C10 UNL     1      22.248   3.440  25.699  0.00  0.00    +0.038 A 
ATOM      8  C11 UNL     1      22.879   4.701  25.514  0.00  0.00    +0.027 A 
ATOM      9  C12 UNL     1      22.517   5.530  24.435  0.00  0.00    +0.051 A 
ATOM     10  C13 UNL     1      21.542   5.067  23.559  0.00  0.00    +0.166 A 
ATOM     11  C14 UNL     1      20.950   3.858  23.717  0.00  0.00    +0.168 A 
ATOM     12  C15 UNL     1      21.278   3.007  24.769  0.00  0.00    +0.073 A 
ATOM     13  O3  UNL     1      20.034   3.658  22.703  0.00  0.00    -0.453 OA
ATOM     14  C16 UNL     1      20.051   4.815  21.855  0.00  0.00    +0.466 C 
ATOM     15  O4  UNL     1      21.028   5.689  22.437  0.00  0.00    -0.453 OA
ENDBRANCH   4   7
BRANCH   1  19
ATOM     16  C5  UNL     1      20.694   1.629  32.978  0.00  0.00    +0.034 A 
ATOM     17  C6  UNL     1      21.598   2.639  32.607  0.00  0.00    +0.025 A 
ATOM     18  C7  UNL     1      22.160   2.649  31.328  0.00  0.00    +0.025 A 
ATOM     19  C8  UNL     1      21.852   1.637  30.406  0.00  0.00    +0.035 A 
ATOM     20  C17 UNL     1      20.948   0.627  30.778  0.00  0.00    +0.025 A 
ATOM     21  C18 UNL     1      20.386   0.618  32.058  0.00  0.00    +0.025 A 
BRANCH  16  24
ATOM     22  C4  UNL     1      18.887   2.225  34.660  0.00  0.00    +0.220 C 
ATOM     23  O1  UNL     1      18.094   2.633  33.769  0.00  0.00    -0.275 OA
ATOM     24  N1  UNL     1      20.119   1.582  34.297  0.00  0.00    -0.285 N 
ATOM     25  H8  UNL     1      20.583   0.977  35.011  0.00  0.00    +0.155 HD
BRANCH  22  27
ATOM     26  C1  UNL     1      17.730   3.636  36.374  0.00  0.00    +0.017 C 
ATOM     27  C2  UNL     1      18.497   2.336  36.113  0.00  0.00    +0.069 C 
ATOM     28  C3  UNL     1      17.671   1.117  36.533  0.00  0.00    +0.017 C 
ENDBRANCH  22  27
ENDBRANCH  16  24
ENDBRANCH   1  19
TORSDOF 4
ENDMDL
MODEL 3
REMARK VINA RESULT:    -6.505     15.943     19.375
REMARK INTER + INTRA:          -8.625
REMARK INTER:                  -8.044
REMARK INTRA:                  -0.581
REMARK UNBOUND:                -0.599
REMARK  Name = /home/qwerty/github/datacon2025hack/step_04_hit_selection/docking/ligands/lig_705.pdb
REMARK  6 active torsions:
REMARK  status: ('A' for Active; 'I' for Inactive)
REMARK    1  A    between atoms: C1_1  and  C2_2
REMARK    2  A    between atoms: C2_2  and  C3_3
REMARK    3  A    between atoms: C2_2  and  C4_4
REMARK    4  A    between atoms: N1_6  and  C5_7
REMARK    5  A    between atoms: C8_10  and  N2_11
REMARK    6  A    between atoms: N3_14  and  C10_15
REMARK                            x       y       z     vdW  Elec       q    Type
REMARK                         _______ _______ _______ _____ _____    ______ ____
ROOT
ATOM      1  N2  UNL     1      19.197  10.472  37.202  0.00  0.00    -0.269 N 
ATOM      2  C9  UNL     1      19.919   9.373  36.624  0.00  0.00    +0.308 C 
ATOM      3  O2  UNL     1      19.308   8.491  35.961  0.00  0.00    -0.252 OA
ATOM      4  N3  UNL     1      21.327   9.243  36.877  0.00  0.00    -0.269 N 
ATOM      5  H11 UNL     1      19.658  11.005  37.972  0.00  0.00    +0.156 HD
ATOM      6  H12 UNL     1      21.733   9.806  37.657  0.00  0.00    +0.156 HD
ENDROOT
BRANCH   4   7
ATOM      7  C10 UNL     1      22.186   8.311  36.197  0.00  0.00    +0.038 A 
ATOM      8  C11 UNL     1      22.627   7.116  36.828  0.00  0.00    +0.027 A 
ATOM      9  C12 UNL     1      23.449   6.205  36.139  0.00  0.00    +0.051 A 
ATOM     10  C13 UNL     1      23.795   6.507  34.826  0.00  0.00    +0.166 A 
ATOM     11  C14 UNL     1      23.362   7.635  34.211  0.00  0.00    +0.168 A 
ATOM     12  C15 UNL     1      22.549   8.562  34.857  0.00  0.00    +0.073 A 
ATOM     13  O3  UNL     1      23.850   7.671  32.919  0.00  0.00    -0.453 OA
ATOM     14  C16 UNL     1      24.640   6.492  32.711  0.00  0.00    +0.466 C 
ATOM     15  O4  UNL     1      24.578   5.776  33.952  0.00  0.00    -0.453 OA
ENDBRANCH   4   7
BRANCH   1  19
ATOM     16  C5  UNL     1      15.202  11.459  36.106  0.00  0.00    +0.034 A 
ATOM     17  C6  UNL     1      16.295  11.970  35.383  0.00  0.00    +0.025 A 
ATOM     18  C7  UNL     1      17.601  11.638  35.750  0.00  0.00    +0.025 A 
ATOM     19  C8  UNL     1      17.843  10.815  36.860  0.00  0.00    +0.035 A 
ATOM     20  C17 UNL     1      16.750  10.304  37.582  0.00  0.00    +0.025 A 
ATOM     21  C18 UNL     1      15.443  10.636  37.214  0.00  0.00    +0.025 A 
BRANCH  16  24
ATOM     22  C4  UNL     1      13.152  12.947  36.285  0.00  0.00    +0.220 C 
ATOM     23  O1  UNL     1      13.789  13.874  36.857  0.00  0.00    -0.275 OA
ATOM     24  N1  UNL     1      13.848  11.804  35.763  0.00  0.00    -0.285 N 
ATOM     25  H8  UNL     1      13.369  11.235  35.029  0.00  0.00    +0.155 HD
BRANCH  22  27
ATOM     26  C1  UNL     1      11.301  12.850  34.602  0.00  0.00    +0.017 C 
ATOM     27  C2  UNL     1      11.666  13.085  36.071  0.00  0.00    +0.069 C 
ATOM     28  C3  UNL     1      10.908  12.119  36.986  0.00  0.00    +0.017 C 
ENDBRANCH  22  27
ENDBRANCH  16  24
ENDBRANCH   1  19
TORSDOF 4
ENDMDL
MODEL 4
REMARK VINA RESULT:    -6.423     15.892     17.135
REMARK INTER + INTRA:          -8.525
REMARK INTER:                  -7.983
REMARK INTRA:                  -0.542
REMARK UNBOUND:                -0.599
REMARK  Name = /home/qwerty/github/datacon2025hack/step_04_hit_selection/docking/ligands/lig_705.pdb
REMARK  6 active torsions:
REMARK  status: ('A' for Active; 'I' for Inactive)
REMARK    1  A    between atoms: C1_1  and  C2_2
REMARK    2  A    between atoms: C2_2  and  C3_3
REMARK    3  A    between atoms: C2_2  and  C4_4
REMARK    4  A    between atoms: N1_6  and  C5_7
REMARK    5  A    between atoms: C8_10  and  N2_11
REMARK    6  A    between atoms: N3_14  and  C10_15
REMARK                            x       y       z     vdW  Elec       q    Type
REMARK                         _______ _______ _______ _____ _____    ______ ____
ROOT
ATOM      1  N2  UNL     1      19.008  11.493  36.924  0.00  0.00    -0.269 N 
ATOM      2  C9  UNL     1      17.806  12.056  36.376  0.00  0.00    +0.308 C 
ATOM      3  O2  UNL     1      17.493  11.835  35.174  0.00  0.00    -0.252 OA
ATOM      4  N3  UNL     1      17.009  12.938  37.180  0.00  0.00    -0.269 N 
ATOM      5  H11 UNL     1      19.391  11.921  37.797  0.00  0.00    +0.156 HD
ATOM      6  H12 UNL     1      17.444  13.331  38.046  0.00  0.00    +0.156 HD
ENDROOT
BRANCH   4   7
ATOM      7  C10 UNL     1      15.696  13.398  36.816  0.00  0.00    +0.038 A 
ATOM      8  C11 UNL     1      15.491  14.695  36.272  0.00  0.00    +0.027 A 
ATOM      9  C12 UNL     1      14.201  15.118  35.899  0.00  0.00    +0.051 A 
ATOM     10  C13 UNL     1      13.150  14.223  36.067  0.00  0.00    +0.166 A 
ATOM     11  C14 UNL     1      13.341  12.978  36.567  0.00  0.00    +0.168 A 
ATOM     12  C15 UNL     1      14.599  12.520  36.948  0.00  0.00    +0.073 A 
ATOM     13  O3  UNL     1      12.132  12.311  36.614  0.00  0.00    -0.453 OA
ATOM     14  C16 UNL     1      11.119  13.194  36.113  0.00  0.00    +0.466 C 
ATOM     15  O4  UNL     1      11.811  14.403  35.774  0.00  0.00    -0.453 OA
ENDBRANCH   4   7
BRANCH   1  19
ATOM     16  C5  UNL     1      21.193   8.364  35.033  0.00  0.00    +0.034 A 
ATOM     17  C6  UNL     1      20.289   8.085  36.073  0.00  0.00    +0.025 A 
ATOM     18  C7  UNL     1      19.576   9.119  36.685  0.00  0.00    +0.025 A 
ATOM     19  C8  UNL     1      19.772  10.451  36.292  0.00  0.00    +0.035 A 
ATOM     20  C17 UNL     1      20.676  10.730  35.252  0.00  0.00    +0.025 A 
ATOM     21  C18 UNL     1      21.389   9.695  34.640  0.00  0.00    +0.025 A 
BRANCH  16  24
ATOM     22  C4  UNL     1      23.244   6.878  34.859  0.00  0.00    +0.220 C 
ATOM     23  O1  UNL     1      23.653   7.188  36.011  0.00  0.00    -0.275 OA
ATOM     24  N1  UNL     1      21.957   7.321  34.402  0.00  0.00    -0.285 N 
ATOM     25  H8  UNL     1      21.513   6.799  33.613  0.00  0.00    +0.155 HD
BRANCH  22  27
ATOM     26  C1  UNL     1      23.196   5.210  32.992  0.00  0.00    +0.017 C 
ATOM     27  C2  UNL     1      24.077   5.966  33.993  0.00  0.00    +0.069 C 
ATOM     28  C3  UNL     1      25.163   6.768  33.272  0.00  0.00    +0.017 C 
ENDBRANCH  22  27
ENDBRANCH  16  24
ENDBRANCH   1  19
TORSDOF 4
ENDMDL
MODEL 5
REMARK VINA RESULT:    -6.380     11.118     12.711
REMARK INTER + INTRA:          -8.471
REMARK INTER:                  -7.907
REMARK INTRA:                  -0.564
REMARK UNBOUND:                -0.599
REMARK  Name = /home/qwerty/github/datacon2025hack/step_04_hit_selection/docking/ligands/lig_705.pdb
REMARK  6 active torsions:
REMARK  status: ('A' for Active; 'I' for Inactive)
REMARK    1  A    between atoms: C1_1  and  C2_2
REMARK    2  A    between atoms: C2_2  and  C3_3
REMARK    3  A    between atoms: C2_2  and  C4_4
REMARK    4  A    between atoms: N1_6  and  C5_7
REMARK    5  A    between atoms: C8_10  and  N2_11
REMARK    6  A    between atoms: N3_14  and  C10_15
REMARK                            x       y       z     vdW  Elec       q    Type
REMARK                         _______ _______ _______ _____ _____    ______ ____
ROOT
ATOM      1  N2  UNL     1      18.854  12.914  19.339  0.00  0.00    -0.269 N 
ATOM      2  C9  UNL     1      19.471  13.442  20.524  0.00  0.00    +0.308 C 
ATOM      3  O2  UNL     1      19.381  12.818  21.617  0.00  0.00    -0.252 OA
ATOM      4  N3  UNL     1      20.116  14.723  20.473  0.00  0.00    -0.269 N 
ATOM      5  H11 UNL     1      18.687  13.571  18.545  0.00  0.00    +0.156 HD
ATOM      6  H12 UNL     1      19.915  15.335  19.650  0.00  0.00    +0.156 HD
ENDROOT
BRANCH   4   7
ATOM      7  C10 UNL     1      20.933  15.258  21.529  0.00  0.00    +0.038 A 
ATOM      8  C11 UNL     1      20.386  16.108  22.529  0.00  0.00    +0.027 A 
ATOM      9  C12 UNL     1      21.197  16.602  23.568  0.00  0.00    +0.051 A 
ATOM     10  C13 UNL     1      22.533  16.219  23.588  0.00  0.00    +0.166 A 
ATOM     11  C14 UNL     1      23.057  15.394  22.649  0.00  0.00    +0.168 A 
ATOM     12  C15 UNL     1      22.292  14.882  21.605  0.00  0.00    +0.073 A 
ATOM     13  O3  UNL     1      24.395  15.179  22.920  0.00  0.00    -0.453 OA
ATOM     14  C16 UNL     1      24.732  15.917  24.103  0.00  0.00    +0.466 C 
ATOM     15  O4  UNL     1      23.515  16.566  24.497  0.00  0.00    -0.453 OA
ENDBRANCH   4   7
BRANCH   1  19
ATOM     16  C5  UNL     1      17.441   8.907  19.050  0.00  0.00    +0.034 A 
ATOM     17  C6  UNL     1      18.816   9.192  18.991  0.00  0.00    +0.025 A 
ATOM     18  C7  UNL     1      19.269  10.510  19.089  0.00  0.00    +0.025 A 
ATOM     19  C8  UNL     1      18.359  11.569  19.218  0.00  0.00    +0.035 A 
ATOM     20  C17 UNL     1      16.984  11.284  19.276  0.00  0.00    +0.025 A 
ATOM     21  C18 UNL     1      16.531   9.965  19.179  0.00  0.00    +0.025 A 
BRANCH  16  24
ATOM     22  C4  UNL     1      16.792   6.658  20.034  0.00  0.00    +0.220 C 
ATOM     23  O1  UNL     1      16.817   7.091  21.219  0.00  0.00    -0.275 OA
ATOM     24  N1  UNL     1      16.947   7.562  18.928  0.00  0.00    -0.285 N 
ATOM     25  H8  UNL     1      16.602   7.250  17.992  0.00  0.00    +0.155 HD
BRANCH  22  27
ATOM     26  C1  UNL     1      17.146   4.323  20.866  0.00  0.00    +0.017 C 
ATOM     27  C2  UNL     1      16.513   5.199  19.780  0.00  0.00    +0.069 C 
ATOM     28  C3  UNL     1      15.004   4.957  19.691  0.00  0.00    +0.017 C 
ENDBRANCH  22  27
ENDBRANCH  16  24
ENDBRANCH   1  19
TORSDOF 4
ENDMDL
MODEL 6
REMARK VINA RESULT:    -6.243     10.993     14.737
REMARK INTER + INTRA:          -8.303
REMARK INTER:                  -7.706
REMARK INTRA:                  -0.597
REMARK UNBOUND:                -0.599
REMARK  Name = /home/qwerty/github/datacon2025hack/step_04_hit_selection/docking/ligands/lig_705.pdb
REMARK  6 active torsions:
REMARK  status: ('A' for Active; 'I' for Inactive)
REMARK    1  A    between atoms: C1_1  and  C2_2
REMARK    2  A    between atoms: C2_2  and  C3_3
REMARK    3  A    between atoms: C2_2  and  C4_4
REMARK    4  A    between atoms: N1_6  and  C5_7
REMARK    5  A    between atoms: C8_10  and  N2_11
REMARK    6  A    between atoms: N3_14  and  C10_15
REMARK                            x       y       z     vdW  Elec       q    Type
REMARK                         _______ _______ _______ _____ _____    ______ ____
ROOT
ATOM      1  N2  UNL     1      22.176   2.436  32.377  0.00  0.00    -0.269 N 
ATOM      2  C9  UNL     1      22.253   3.814  32.772  0.00  0.00    +0.308 C 
ATOM      3  O2  UNL     1      22.275   4.724  31.898  0.00  0.00    -0.252 OA
ATOM      4  N3  UNL     1      22.387   4.145  34.162  0.00  0.00    -0.269 N 
ATOM      5  H11 UNL     1      22.455   1.714  33.078  0.00  0.00    +0.156 HD
ATOM      6  H12 UNL     1      22.663   3.379  34.818  0.00  0.00    +0.156 HD
ENDROOT
BRANCH   4   7
ATOM      7  C10 UNL     1      22.271   5.477  34.691  0.00  0.00    +0.038 A 
ATOM      8  C11 UNL     1      23.422   6.248  35.011  0.00  0.00    +0.027 A 
ATOM      9  C12 UNL     1      23.289   7.560  35.504  0.00  0.00    +0.051 A 
ATOM     10  C13 UNL     1      22.004   8.071  35.651  0.00  0.00    +0.166 A 
ATOM     11  C14 UNL     1      20.903   7.349  35.330  0.00  0.00    +0.168 A 
ATOM     12  C15 UNL     1      20.990   6.049  34.839  0.00  0.00    +0.073 A 
ATOM     13  O3  UNL     1      19.772   8.105  35.568  0.00  0.00    -0.453 OA
ATOM     14  C16 UNL     1      20.189   9.382  36.070  0.00  0.00    +0.466 C 
ATOM     15  O4  UNL     1      21.621   9.319  36.107  0.00  0.00    -0.453 OA
ENDBRANCH   4   7
BRANCH   1  19
ATOM     16  C5  UNL     1      21.241   1.054  28.459  0.00  0.00    +0.034 A 
ATOM     17  C6  UNL     1      22.576   1.229  28.862  0.00  0.00    +0.025 A 
ATOM     18  C7  UNL     1      22.872   1.681  30.151  0.00  0.00    +0.025 A 
ATOM     19  C8  UNL     1      21.843   1.994  31.050  0.00  0.00    +0.035 A 
ATOM     20  C17 UNL     1      20.507   1.819  30.647  0.00  0.00    +0.025 A 
ATOM     21  C18 UNL     1      20.212   1.366  29.358  0.00  0.00    +0.025 A 
BRANCH  16  24
ATOM     22  C4  UNL     1      20.494   1.490  26.071  0.00  0.00    +0.220 C 
ATOM     23  O1  UNL     1      20.671   2.735  26.169  0.00  0.00    -0.275 OA
ATOM     24  N1  UNL     1      20.908   0.613  27.131  0.00  0.00    -0.285 N 
ATOM     25  H8  UNL     1      21.056  -0.396  26.900  0.00  0.00    +0.155 HD
BRANCH  22  27
ATOM     26  C1  UNL     1      18.975  -0.248  25.102  0.00  0.00    +0.017 C 
ATOM     27  C2  UNL     1      19.925   0.915  24.799  0.00  0.00    +0.069 C 
ATOM     28  C3  UNL     1      19.214   2.009  23.996  0.00  0.00    +0.017 C 
ENDBRANCH  22  27
ENDBRANCH  16  24
ENDBRANCH   1  19
TORSDOF 4
ENDMDL
MODEL 7
REMARK VINA RESULT:    -6.219      8.861     13.488
REMARK INTER + INTRA:          -8.272
REMARK INTER:                  -7.761
REMARK INTRA:                  -0.511
REMARK UNBOUND:                -0.599
REMARK  Name = /home/qwerty/github/datacon2025hack/step_04_hit_selection/docking/ligands/lig_705.pdb
REMARK  6 active torsions:
REMARK  status: ('A' for Active; 'I' for Inactive)
REMARK    1  A    between atoms: C1_1  and  C2_2
REMARK    2  A    between atoms: C2_2  and  C3_3
REMARK    3  A    between atoms: C2_2  and  C4_4
REMARK    4  A    between atoms: N1_6  and  C5_7
REMARK    5  A    between atoms: C8_10  and  N2_11
REMARK    6  A    between atoms: N3_14  and  C10_15
REMARK                            x       y       z     vdW  Elec       q    Type
REMARK                         _______ _______ _______ _____ _____    ______ ____
ROOT
ATOM      1  N2  UNL     1      21.747   0.911  28.953  0.00  0.00    -0.269 N 
ATOM      2  C9  UNL     1      21.076   1.485  30.086  0.00  0.00    +0.308 C 
ATOM      3  O2  UNL     1      20.580   2.643  30.009  0.00  0.00    -0.252 OA
ATOM      4  N3  UNL     1      21.047   0.767  31.328  0.00  0.00    -0.269 N 
ATOM      5  H11 UNL     1      22.390   0.107  29.126  0.00  0.00    +0.156 HD
ATOM      6  H12 UNL     1      21.710  -0.033  31.442  0.00  0.00    +0.156 HD
ENDROOT
BRANCH   4   7
ATOM      7  C10 UNL     1      20.243   1.143  32.459  0.00  0.00    +0.038 A 
ATOM      8  C11 UNL     1      20.638   2.195  33.331  0.00  0.00    +0.027 A 
ATOM      9  C12 UNL     1      19.826   2.565  34.419  0.00  0.00    +0.051 A 
ATOM     10  C13 UNL     1      18.629   1.880  34.599  0.00  0.00    +0.166 A 
ATOM     11  C14 UNL     1      18.236   0.889  33.761  0.00  0.00    +0.168 A 
ATOM     12  C15 UNL     1      19.009   0.492  32.673  0.00  0.00    +0.073 A 
ATOM     13  O3  UNL     1      17.013   0.397  34.173  0.00  0.00    -0.453 OA
ATOM     14  C16 UNL     1      16.613   1.124  35.342  0.00  0.00    +0.466 C 
ATOM     15  O4  UNL     1      17.672   2.061  35.580  0.00  0.00    -0.453 OA
ENDBRANCH   4   7
BRANCH   1  19
ATOM     16  C5  UNL     1      21.433   2.494  25.012  0.00  0.00    +0.034 A 
ATOM     17  C6  UNL     1      20.561   1.484  25.454  0.00  0.00    +0.025 A 
ATOM     18  C7  UNL     1      20.672   0.973  26.750  0.00  0.00    +0.025 A 
ATOM     19  C8  UNL     1      21.670   1.439  27.617  0.00  0.00    +0.035 A 
ATOM     20  C17 UNL     1      22.542   2.449  27.175  0.00  0.00    +0.025 A 
ATOM     21  C18 UNL     1      22.431   2.960  25.879  0.00  0.00    +0.025 A 
BRANCH  16  24
ATOM     22  C4  UNL     1      20.465   4.074  23.276  0.00  0.00    +0.220 C 
ATOM     23  O1  UNL     1      19.897   4.791  24.144  0.00  0.00    -0.275 OA
ATOM     24  N1  UNL     1      21.356   3.021  23.676  0.00  0.00    -0.285 N 
ATOM     25  H8  UNL     1      22.047   2.674  22.972  0.00  0.00    +0.155 HD
BRANCH  22  27
ATOM     26  C1  UNL     1      18.914   5.044  21.567  0.00  0.00    +0.017 C 
ATOM     27  C2  UNL     1      20.274   4.383  21.813  0.00  0.00    +0.069 C 
ATOM     28  C3  UNL     1      21.414   5.270  21.306  0.00  0.00    +0.017 C 
ENDBRANCH  22  27
ENDBRANCH  16  24
ENDBRANCH   1  19
TORSDOF 4
ENDMDL
MODEL 8
REMARK VINA RESULT:    -6.168      1.842     10.058
REMARK INTER + INTRA:          -8.209
REMARK INTER:                  -7.635
REMARK INTRA:                  -0.575
REMARK UNBOUND:                -0.599
REMARK  Name = /home/qwerty/github/datacon2025hack/step_04_hit_selection/docking/ligands/lig_705.pdb
REMARK  6 active torsions:
REMARK  status: ('A' for Active; 'I' for Inactive)
REMARK    1  A    between atoms: C1_1  and  C2_2
REMARK    2  A    between atoms: C2_2  and  C3_3
REMARK    3  A    between atoms: C2_2  and  C4_4
REMARK    4  A    between atoms: N1_6  and  C5_7
REMARK    5  A    between atoms: C8_10  and  N2_11
REMARK    6  A    between atoms: N3_14  and  C10_15
REMARK                            x       y       z     vdW  Elec       q    Type
REMARK                         _______ _______ _______ _____ _____    ______ ____
ROOT
ATOM      1  N2  UNL     1      11.365   2.760  20.642  0.00  0.00    -0.269 N 
ATOM      2  C9  UNL     1      12.633   2.348  21.175  0.00  0.00    +0.308 C 
ATOM      3  O2  UNL     1      13.413   3.198  21.686  0.00  0.00    -0.252 OA
ATOM      4  N3  UNL     1      13.042   0.977  21.046  0.00  0.00    -0.269 N 
ATOM      5  H11 UNL     1      10.886   2.115  19.976  0.00  0.00    +0.156 HD
ATOM      6  H12 UNL     1      12.520   0.378  20.367  0.00  0.00    +0.156 HD
ENDROOT
BRANCH   4   7
ATOM      7  C10 UNL     1      14.184   0.410  21.709  0.00  0.00    +0.038 A 
ATOM      8  C11 UNL     1      15.466   0.396  21.093  0.00  0.00    +0.027 A 
ATOM      9  C12 UNL     1      16.577  -0.143  21.768  0.00  0.00    +0.051 A 
ATOM     10  C13 UNL     1      16.380  -0.641  23.051  0.00  0.00    +0.166 A 
ATOM     11  C14 UNL     1      15.165  -0.614  23.652  0.00  0.00    +0.168 A 
ATOM     12  C15 UNL     1      14.040  -0.090  23.021  0.00  0.00    +0.073 A 
ATOM     13  O3  UNL     1      15.265  -1.163  24.916  0.00  0.00    -0.453 OA
ATOM     14  C16 UNL     1      16.628  -1.561  25.120  0.00  0.00    +0.466 C 
ATOM     15  O4  UNL     1      17.305  -1.209  23.906  0.00  0.00    -0.453 OA
ENDBRANCH   4   7
BRANCH   1  19
ATOM     16  C5  UNL     1       9.565   6.567  21.277  0.00  0.00    +0.034 A 
ATOM     17  C6  UNL     1      10.477   6.367  20.226  0.00  0.00    +0.025 A 
ATOM     18  C7  UNL     1      11.060   5.113  20.025  0.00  0.00    +0.025 A 
ATOM     19  C8  UNL     1      10.767   4.045  20.886  0.00  0.00    +0.035 A 
ATOM     20  C17 UNL     1       9.855   4.245  21.937  0.00  0.00    +0.025 A 
ATOM     21  C18 UNL     1       9.272   5.500  22.136  0.00  0.00    +0.025 A 
BRANCH  16  24
ATOM     22  C4  UNL     1       9.567   8.879  22.327  0.00  0.00    +0.220 C 
ATOM     23  O1  UNL     1      10.787   8.812  22.640  0.00  0.00    -0.275 OA
ATOM     24  N1  UNL     1       8.968   7.853  21.519  0.00  0.00    -0.285 N 
ATOM     25  H8  UNL     1       8.085   8.086  21.011  0.00  0.00    +0.155 HD
BRANCH  22  27
ATOM     26  C1  UNL     1       8.146  10.768  21.504  0.00  0.00    +0.017 C 
ATOM     27  C2  UNL     1       8.759  10.086  22.731  0.00  0.00    +0.069 C 
ATOM     28  C3  UNL     1       7.675   9.685  23.735  0.00  0.00    +0.017 C 
ENDBRANCH  22  27
ENDBRANCH  16  24
ENDBRANCH   1  19
TORSDOF 4
ENDMDL
MODEL 9
REMARK VINA RESULT:    -5.977      4.244     10.238
REMARK INTER + INTRA:          -7.974
REMARK INTER:                  -7.547
REMARK INTRA:                  -0.427
REMARK UNBOUND:                -0.599
REMARK  Name = /home/qwerty/github/datacon2025hack/step_04_hit_selection/docking/ligands/lig_705.pdb
REMARK  6 active torsions:
REMARK  status: ('A' for Active; 'I' for Inactive)
REMARK    1  A    between atoms: C1_1  and  C2_2
REMARK    2  A    between atoms: C2_2  and  C3_3
REMARK    3  A    between atoms: C2_2  and  C4_4
REMARK    4  A    between atoms: N1_6  and  C5_7
REMARK    5  A    between atoms: C8_10  and  N2_11
REMARK    6  A    between atoms: N3_14  and  C10_15
REMARK                            x       y       z     vdW  Elec       q    Type
REMARK                         _______ _______ _______ _____ _____    ______ ____
ROOT
ATOM      1  N2  UNL     1       8.715   6.771  22.178  0.00  0.00    -0.269 N 
ATOM      2  C9  UNL     1      10.006   6.306  21.754  0.00  0.00    +0.308 C 
ATOM      3  O2  UNL     1      11.047   6.942  22.076  0.00  0.00    -0.252 OA
ATOM      4  N3  UNL     1      10.095   5.161  20.892  0.00  0.00    -0.269 N 
ATOM      5  H11 UNL     1       7.878   6.415  21.665  0.00  0.00    +0.156 HD
ATOM      6  H12 UNL     1       9.223   4.848  20.410  0.00  0.00    +0.156 HD
ENDROOT
BRANCH   4   7
ATOM      7  C10 UNL     1      11.324   4.489  20.568  0.00  0.00    +0.038 A 
ATOM      8  C11 UNL     1      12.333   5.124  19.793  0.00  0.00    +0.027 A 
ATOM      9  C12 UNL     1      13.540   4.458  19.506  0.00  0.00    +0.051 A 
ATOM     10  C13 UNL     1      13.712   3.176  20.018  0.00  0.00    +0.166 A 
ATOM     11  C14 UNL     1      12.763   2.572  20.774  0.00  0.00    +0.168 A 
ATOM     12  C15 UNL     1      11.556   3.194  21.081  0.00  0.00    +0.073 A 
ATOM     13  O3  UNL     1      13.203   1.318  21.149  0.00  0.00    -0.453 OA
ATOM     14  C16 UNL     1      14.511   1.122  20.593  0.00  0.00    +0.466 C 
ATOM     15  O4  UNL     1      14.798   2.333  19.879  0.00  0.00    -0.453 OA
ENDBRANCH   4   7
BRANCH   1  19
ATOM     16  C5  UNL     1       8.193   9.715  25.210  0.00  0.00    +0.034 A 
ATOM     17  C6  UNL     1       8.485   8.381  25.544  0.00  0.00    +0.025 A 
ATOM     18  C7  UNL     1       8.656   7.424  24.541  0.00  0.00    +0.025 A 
ATOM     19  C8  UNL     1       8.511   7.772  23.190  0.00  0.00    +0.035 A 
ATOM     20  C17 UNL     1       8.219   9.106  22.857  0.00  0.00    +0.025 A 
ATOM     21  C18 UNL     1       8.049  10.064  23.861  0.00  0.00    +0.025 A 
BRANCH  16  24
ATOM     22  C4  UNL     1       9.046  11.303  26.999  0.00  0.00    +0.220 C 
ATOM     23  O1  UNL     1      10.248  11.177  26.637  0.00  0.00    -0.275 OA
ATOM     24  N1  UNL     1       7.989  10.716  26.224  0.00  0.00    -0.285 N 
ATOM     25  H8  UNL     1       7.024  11.098  26.346  0.00  0.00    +0.155 HD
BRANCH  22  27
ATOM     26  C1  UNL     1       8.017  13.446  27.785  0.00  0.00    +0.017 C 
ATOM     27  C2  UNL     1       8.715  12.148  28.204  0.00  0.00    +0.069 C 
ATOM     28  C3  UNL     1       7.852  11.352  29.187  0.00  0.00    +0.017 C 
ENDBRANCH  22  27
ENDBRANCH  16  24
ENDBRANCH   1  19
TORSDOF 4
ENDMDL
