REMARK  Name = /home/qwerty/github/datacon2025hack/step_04_hit_selection/docking/ligands/lig_542.pdb
REMARK  7 active torsions:
REMARK  status: ('A' for Active; 'I' for Inactive)
REMARK    1  A    between atoms: C1_1  and  C2_2
REMARK    2  A    between atoms: C5_5  and  C6_6
REMARK    3  A    between atoms: C10_12  and  C11_13
REMARK    4  A    between atoms: C14_16  and  C15_17
REMARK    5  A    between atoms: C17_19  and  C18_20
REMARK    6  A    between atoms: C19_21  and  O1_22
REMARK    7  A    between atoms: C20_23  and  C21_24
REMARK                            x       y       z     vdW  Elec       q    Type
REMARK                         _______ _______ _______ _____ _____    ______ ____
ROOT
ATOM      1  C11 UNL     1      -0.042  -1.580  -2.661  0.00  0.00    +0.072 A 
ATOM      2  C12 UNL     1      -0.855  -1.330  -1.528  0.00  0.00    +0.040 A 
ATOM      3  C13 UNL     1      -2.221  -1.570  -1.656  0.00  0.00    +0.031 A 
ATOM      4  C14 UNL     1      -3.293  -1.463  -0.784  0.00  0.00    +0.100 A 
ATOM      5  N3  UNL     1      -4.404  -1.921  -1.415  0.00  0.00    -0.173 NA
ATOM      6  N4  UNL     1      -4.064  -2.293  -2.644  0.00  0.00    -0.275 N 
ATOM      7  C23 UNL     1      -2.749  -2.084  -2.800  0.00  0.00    +0.084 A 
ATOM      8  C24 UNL     1      -1.949  -2.354  -3.903  0.00  0.00    +0.139 A 
ATOM      9  N5  UNL     1      -0.612  -2.088  -3.804  0.00  0.00    -0.253 NA
ATOM     10  H19 UNL     1      -4.725  -2.689  -3.349  0.00  0.00    +0.189 HD
ENDROOT
BRANCH   1  17
ATOM     11  C6  UNL     1       4.178   0.747  -1.098  0.00  0.00    +0.135 A 
ATOM     12  N1  UNL     1       5.442   0.562  -1.550  0.00  0.00    -0.170 NA
ATOM     13  N2  UNL     1       5.424  -0.401  -2.464  0.00  0.00    -0.276 N 
ATOM     14  C7  UNL     1       4.160  -0.828  -2.608  0.00  0.00    +0.066 A 
ATOM     15  C8  UNL     1       3.677  -1.798  -3.480  0.00  0.00    +0.028 A 
ATOM     16  C9  UNL     1       2.292  -2.045  -3.481  0.00  0.00    +0.012 A 
ATOM     17  C10 UNL     1       1.419  -1.316  -2.628  0.00  0.00    +0.001 A 
ATOM     18  C25 UNL     1       1.958  -0.321  -1.773  0.00  0.00    +0.022 A 
ATOM     19  C26 UNL     1       3.338  -0.128  -1.772  0.00  0.00    +0.031 A 
ATOM     20  H6  UNL     1       6.264  -0.743  -2.981  0.00  0.00    +0.189 HD
BRANCH  11  25
ATOM     21  C1  UNL     1       4.596   4.679   1.802  0.00  0.00    +0.086 C 
ATOM     22  C2  UNL     1       4.023   3.442   1.198  0.00  0.00    +0.103 A 
ATOM     23  C3  UNL     1       2.864   2.811   1.602  0.00  0.00    +0.045 A 
ATOM     24  C4  UNL     1       2.741   1.702   0.793  0.00  0.00    +0.052 A 
ATOM     25  C5  UNL     1       3.835   1.730  -0.057  0.00  0.00    +0.156 A 
ATOM     26  O2  UNL     1       4.585   2.773   0.217  0.00  0.00    -0.458 OA
ENDBRANCH  11  25
ENDBRANCH   1  17
BRANCH   4  27
ATOM     27  C15 UNL     1      -3.289  -0.946   0.601  0.00  0.00    +0.003 A 
ATOM     28  C16 UNL     1      -4.140  -1.513   1.557  0.00  0.00    +0.017 A 
ATOM     29  C17 UNL     1      -4.149  -1.042   2.879  0.00  0.00    -0.008 A 
ATOM     30  C18 UNL     1      -5.066  -1.665   3.893  0.00  0.00    +0.047 C 
ATOM     31  C19 UNL     1      -3.308   0.026   3.247  0.00  0.00    +0.123 A 
ATOM     32  C20 UNL     1      -2.458   0.616   2.284  0.00  0.00    -0.008 A 
ATOM     33  C21 UNL     1      -1.551   1.762   2.642  0.00  0.00    +0.047 C 
ATOM     34  C22 UNL     1      -2.469   0.132   0.966  0.00  0.00    +0.017 A 
BRANCH  31  35
ATOM     35  O1  UNL     1      -3.339   0.483   4.569  0.00  0.00    -0.506 OA
ATOM     36  H14 UNL     1      -2.771   1.250   4.904  0.00  0.00    +0.292 HD
ENDBRANCH  31  35
ENDBRANCH   4  27
TORSDOF 4
