MODEL 1
REMARK VINA RESULT:    -6.754      0.000      0.000
REMARK INTER + INTRA:         -11.584
REMARK INTER:                  -9.913
REMARK INTRA:                  -1.671
REMARK UNBOUND:                -1.671
REMARK  Name = /home/qwerty/github/datacon2025hack/step_04_hit_selection/docking/ligands/lig_12.pdb
REMARK  10 active torsions:
REMARK  status: ('A' for Active; 'I' for Inactive)
REMARK    1  A    between atoms: C1_1  and  O1_2
REMARK    2  A    between atoms: O1_2  and  C2_3
REMARK    3  A    between atoms: C5_6  and  C6_7
REMARK    4  A    between atoms: C7_10  and  C8_11
REMARK    5  A    between atoms: C8_11  and  N2_12
REMARK    6  A    between atoms: N3_15  and  C10_16
REMARK    7  A    between atoms: C10_16  and  C11_17
REMARK    8  A    between atoms: C11_17  and  C12_18
REMARK    9  A    between atoms: C11_17  and  N4_25
REMARK   10  A    between atoms: C16_22  and  C17_23
REMARK                            x       y       z     vdW  Elec       q    Type
REMARK                         _______ _______ _______ _____ _____    ______ ____
ROOT
ATOM      1  N2  UNL     1      15.453  -1.581  23.233  0.00  0.00    -0.296 N 
ATOM      2  C9  UNL     1      15.798  -0.899  22.020  0.00  0.00    +0.300 C 
ATOM      3  O3  UNL     1      16.916  -1.104  21.473  0.00  0.00    -0.253 OA
ATOM      4  N3  UNL     1      14.865   0.014  21.428  0.00  0.00    -0.298 N 
ATOM      5  H9  UNL     1      14.490  -1.463  23.622  0.00  0.00    +0.150 HD
ATOM      6  H10 UNL     1      13.941   0.153  21.895  0.00  0.00    +0.150 HD
ENDROOT
BRANCH   1   7
ATOM      7  C8  UNL     1      16.373  -2.488  23.918  0.00  0.00    +0.153 C 
BRANCH   7  11
ATOM      8  C6  UNL     1      18.328   0.030  25.353  0.00  0.00    +0.091 C 
ATOM      9  N1  UNL     1      17.118   0.437  25.534  0.00  0.00    -0.089 NA
ATOM     10  O2  UNL     1      16.252  -0.620  25.450  0.00  0.00    -0.388 OA
ATOM     11  C7  UNL     1      16.910  -1.853  25.207  0.00  0.00    +0.227 C 
ATOM     12  C23 UNL     1      18.393  -1.445  25.109  0.00  0.00    +0.108 C 
BRANCH   8  16
ATOM     13  C2  UNL     1      21.718   2.683  25.446  0.00  0.00    +0.120 A 
ATOM     14  C3  UNL     1      20.906   2.607  24.300  0.00  0.00    +0.046 A 
ATOM     15  C4  UNL     1      19.805   1.745  24.272  0.00  0.00    +0.013 A 
ATOM     16  C5  UNL     1      19.495   0.944  25.385  0.00  0.00    -0.000 A 
ATOM     17  C24 UNL     1      20.311   1.025  26.528  0.00  0.00    +0.013 A 
ATOM     18  C25 UNL     1      21.410   1.887  26.555  0.00  0.00    +0.046 A 
BRANCH  13  20
ATOM     19  C1  UNL     1      22.773   4.949  25.419  0.00  0.00    +0.277 C 
ATOM     20  O1  UNL     1      22.833   3.531  25.523  0.00  0.00    -0.495 OA
ENDBRANCH  13  20
ENDBRANCH   8  16
ENDBRANCH   7  11
ENDBRANCH   1   7
BRANCH   4  21
ATOM     21  C10 UNL     1      15.191   0.754  20.207  0.00  0.00    +0.129 C 
BRANCH  21  22
ATOM     22  C11 UNL     1      14.811   2.247  20.342  0.00  0.00    +0.104 C 
BRANCH  22  23
ATOM     23  C12 UNL     1      16.016   3.148  20.596  0.00  0.00    -0.029 A 
ATOM     24  C13 UNL     1      16.967   2.871  21.600  0.00  0.00    +0.005 A 
ATOM     25  C14 UNL     1      18.045   3.732  21.814  0.00  0.00    +0.001 A 
ATOM     26  C15 UNL     1      18.194   4.881  21.036  0.00  0.00    +0.003 A 
ATOM     27  C16 UNL     1      17.256   5.181  20.039  0.00  0.00    -0.050 A 
ATOM     28  C17 UNL     1      17.434   6.393  19.174  0.00  0.00    +0.044 C 
ATOM     29  C18 UNL     1      16.185   4.305  19.811  0.00  0.00    +0.008 A 
ENDBRANCH  22  23
BRANCH  22  30
ATOM     30  N4  UNL     1      13.703   2.439  21.318  0.00  0.00    -0.290 NA
ATOM     31  C19 UNL     1      12.362   2.573  20.710  0.00  0.00    +0.113 C 
ATOM     32  C20 UNL     1      12.004   4.039  20.371  0.00  0.00    +0.175 C 
ATOM     33  O4  UNL     1      12.957   4.967  20.852  0.00  0.00    -0.377 OA
ATOM     34  C21 UNL     1      13.196   4.733  22.220  0.00  0.00    +0.175 C 
ATOM     35  C22 UNL     1      13.934   3.396  22.426  0.00  0.00    +0.113 C 
ENDBRANCH  22  30
ENDBRANCH  21  22
ENDBRANCH   4  21
TORSDOF 8
ENDMDL
MODEL 2
REMARK VINA RESULT:    -6.729     10.693     14.758
REMARK INTER + INTRA:         -11.546
REMARK INTER:                  -9.764
REMARK INTRA:                  -1.782
REMARK UNBOUND:                -1.671
REMARK  Name = /home/qwerty/github/datacon2025hack/step_04_hit_selection/docking/ligands/lig_12.pdb
REMARK  10 active torsions:
REMARK  status: ('A' for Active; 'I' for Inactive)
REMARK    1  A    between atoms: C1_1  and  O1_2
REMARK    2  A    between atoms: O1_2  and  C2_3
REMARK    3  A    between atoms: C5_6  and  C6_7
REMARK    4  A    between atoms: C7_10  and  C8_11
REMARK    5  A    between atoms: C8_11  and  N2_12
REMARK    6  A    between atoms: N3_15  and  C10_16
REMARK    7  A    between atoms: C10_16  and  C11_17
REMARK    8  A    between atoms: C11_17  and  C12_18
REMARK    9  A    between atoms: C11_17  and  N4_25
REMARK   10  A    between atoms: C16_22  and  C17_23
REMARK                            x       y       z     vdW  Elec       q    Type
REMARK                         _______ _______ _______ _____ _____    ______ ____
ROOT
ATOM      1  N2  UNL     1      23.619   8.082  34.540  0.00  0.00    -0.296 N 
ATOM      2  C9  UNL     1      23.053   7.400  35.667  0.00  0.00    +0.300 C 
ATOM      3  O3  UNL     1      23.542   6.305  36.059  0.00  0.00    -0.253 OA
ATOM      4  N3  UNL     1      21.931   7.971  36.354  0.00  0.00    -0.298 N 
ATOM      5  H9  UNL     1      23.254   9.027  34.287  0.00  0.00    +0.150 HD
ATOM      6  H10 UNL     1      21.556   8.886  36.018  0.00  0.00    +0.150 HD
ENDROOT
BRANCH   1   7
ATOM      7  C8  UNL     1      24.731   7.535  33.764  0.00  0.00    +0.153 C 
BRANCH   7  11
ATOM      8  C6  UNL     1      22.621   5.085  32.435  0.00  0.00    +0.091 C 
ATOM      9  N1  UNL     1      22.010   6.190  32.179  0.00  0.00    -0.089 NA
ATOM     10  O2  UNL     1      22.896   7.233  32.217  0.00  0.00    -0.388 OA
ATOM     11  C7  UNL     1      24.222   6.819  32.506  0.00  0.00    +0.227 C 
ATOM     12  C23 UNL     1      24.081   5.295  32.692  0.00  0.00    +0.108 C 
BRANCH   8  16
ATOM     13  C2  UNL     1      20.609   1.279  32.529  0.00  0.00    +0.120 A 
ATOM     14  C3  UNL     1      21.228   1.727  31.348  0.00  0.00    +0.046 A 
ATOM     15  C4  UNL     1      21.881   2.963  31.319  0.00  0.00    +0.013 A 
ATOM     16  C5  UNL     1      21.928   3.774  32.468  0.00  0.00    -0.000 A 
ATOM     17  C24 UNL     1      21.308   3.320  33.645  0.00  0.00    +0.013 A 
ATOM     18  C25 UNL     1      20.656   2.084  33.672  0.00  0.00    +0.046 A 
BRANCH  13  20
ATOM     19  C1  UNL     1      18.535  -0.115  32.450  0.00  0.00    +0.277 C 
ATOM     20  O1  UNL     1      19.940   0.048  32.608  0.00  0.00    -0.495 OA
ENDBRANCH  13  20
ENDBRANCH   8  16
ENDBRANCH   7  11
ENDBRANCH   1   7
BRANCH   4  21
ATOM     21  C10 UNL     1      21.305   7.292  37.490  0.00  0.00    +0.129 C 
BRANCH  21  22
ATOM     22  C11 UNL     1      19.779   7.538  37.514  0.00  0.00    +0.104 C 
BRANCH  22  23
ATOM     23  C12 UNL     1      18.970   6.304  37.121  0.00  0.00    -0.029 A 
ATOM     24  C13 UNL     1      19.248   5.560  35.956  0.00  0.00    +0.005 A 
ATOM     25  C14 UNL     1      18.471   4.449  35.621  0.00  0.00    +0.001 A 
ATOM     26  C15 UNL     1      17.407   4.062  36.437  0.00  0.00    +0.003 A 
ATOM     27  C16 UNL     1      17.107   4.792  37.595  0.00  0.00    -0.050 A 
ATOM     28  C17 UNL     1      15.990   4.356  38.496  0.00  0.00    +0.044 C 
ATOM     29  C18 UNL     1      17.900   5.896  37.941  0.00  0.00    +0.008 A 
ENDBRANCH  22  23
BRANCH  22  30
ATOM     30  N4  UNL     1      19.413   8.762  36.747  0.00  0.00    -0.290 NA
ATOM     31  C19 UNL     1      19.160   9.957  37.579  0.00  0.00    +0.113 C 
ATOM     32  C20 UNL     1      17.683  10.076  38.019  0.00  0.00    +0.175 C 
ATOM     33  O4  UNL     1      16.845   9.112  37.412  0.00  0.00    -0.377 OA
ATOM     34  C21 UNL     1      17.035   9.133  36.016  0.00  0.00    +0.175 C 
ATOM     35  C22 UNL     1      18.434   8.605  35.646  0.00  0.00    +0.113 C 
ENDBRANCH  22  30
ENDBRANCH  21  22
ENDBRANCH   4  21
TORSDOF 8
ENDMDL
MODEL 3
REMARK VINA RESULT:    -6.694      2.243      8.071
REMARK INTER + INTRA:         -11.495
REMARK INTER:                 -10.220
REMARK INTRA:                  -1.275
REMARK UNBOUND:                -1.671
REMARK  Name = /home/qwerty/github/datacon2025hack/step_04_hit_selection/docking/ligands/lig_12.pdb
REMARK  10 active torsions:
REMARK  status: ('A' for Active; 'I' for Inactive)
REMARK    1  A    between atoms: C1_1  and  O1_2
REMARK    2  A    between atoms: O1_2  and  C2_3
REMARK    3  A    between atoms: C5_6  and  C6_7
REMARK    4  A    between atoms: C7_10  and  C8_11
REMARK    5  A    between atoms: C8_11  and  N2_12
REMARK    6  A    between atoms: N3_15  and  C10_16
REMARK    7  A    between atoms: C10_16  and  C11_17
REMARK    8  A    between atoms: C11_17  and  C12_18
REMARK    9  A    between atoms: C11_17  and  N4_25
REMARK   10  A    between atoms: C16_22  and  C17_23
REMARK                            x       y       z     vdW  Elec       q    Type
REMARK                         _______ _______ _______ _____ _____    ______ ____
ROOT
ATOM      1  N2  UNL     1      18.433  -1.121  24.829  0.00  0.00    -0.296 N 
ATOM      2  C9  UNL     1      18.414   0.148  25.497  0.00  0.00    +0.300 C 
ATOM      3  O3  UNL     1      17.520   0.404  26.350  0.00  0.00    -0.253 OA
ATOM      4  N3  UNL     1      19.419   1.125  25.196  0.00  0.00    -0.298 N 
ATOM      5  H9  UNL     1      19.230  -1.344  24.192  0.00  0.00    +0.150 HD
ATOM      6  H10 UNL     1      20.156   0.880  24.497  0.00  0.00    +0.150 HD
ENDROOT
BRANCH   1   7
ATOM      7  C8  UNL     1      17.412  -2.145  25.050  0.00  0.00    +0.153 C 
BRANCH   7  11
ATOM      8  C6  UNL     1      15.841  -0.669  22.298  0.00  0.00    +0.091 C 
ATOM      9  N1  UNL     1      16.899  -1.209  21.797  0.00  0.00    -0.089 NA
ATOM     10  O2  UNL     1      17.363  -2.189  22.633  0.00  0.00    -0.388 OA
ATOM     11  C7  UNL     1      16.560  -2.350  23.791  0.00  0.00    +0.227 C 
ATOM     12  C23 UNL     1      15.470  -1.276  23.615  0.00  0.00    +0.108 C 
BRANCH   8  16
ATOM     13  C2  UNL     1      13.700   2.515  20.343  0.00  0.00    +0.120 A 
ATOM     14  C3  UNL     1      13.083   1.762  21.359  0.00  0.00    +0.046 A 
ATOM     15  C4  UNL     1      13.780   0.728  21.993  0.00  0.00    +0.013 A 
ATOM     16  C5  UNL     1      15.105   0.428  21.625  0.00  0.00    -0.000 A 
ATOM     17  C24 UNL     1      15.715   1.185  20.610  0.00  0.00    +0.013 A 
ATOM     18  C25 UNL     1      15.018   2.218  19.978  0.00  0.00    +0.046 A 
BRANCH  13  20
ATOM     19  C1  UNL     1      13.683   4.745  19.214  0.00  0.00    +0.277 C 
ATOM     20  O1  UNL     1      13.043   3.560  19.677  0.00  0.00    -0.495 OA
ENDBRANCH  13  20
ENDBRANCH   8  16
ENDBRANCH   7  11
ENDBRANCH   1   7
BRANCH   4  21
ATOM     21  C10 UNL     1      19.418   2.443  25.833  0.00  0.00    +0.129 C 
BRANCH  21  22
ATOM     22  C11 UNL     1      20.839   2.839  26.297  0.00  0.00    +0.104 C 
BRANCH  22  23
ATOM     23  C12 UNL     1      21.224   2.215  27.636  0.00  0.00    -0.029 A 
ATOM     24  C13 UNL     1      20.302   2.067  28.692  0.00  0.00    +0.005 A 
ATOM     25  C14 UNL     1      20.700   1.509  29.909  0.00  0.00    +0.001 A 
ATOM     26  C15 UNL     1      22.019   1.093  30.095  0.00  0.00    +0.003 A 
ATOM     27  C16 UNL     1      22.955   1.240  29.062  0.00  0.00    -0.050 A 
ATOM     28  C17 UNL     1      24.363   0.757  29.243  0.00  0.00    +0.044 C 
ATOM     29  C18 UNL     1      22.549   1.781  27.834  0.00  0.00    +0.008 A 
ENDBRANCH  22  23
BRANCH  22  30
ATOM     30  N4  UNL     1      21.035   4.315  26.245  0.00  0.00    -0.290 NA
ATOM     31  C19 UNL     1      19.879   5.073  25.724  0.00  0.00    +0.113 C 
ATOM     32  C20 UNL     1      19.924   5.249  24.188  0.00  0.00    +0.175 C 
ATOM     33  O4  UNL     1      21.133   4.791  23.614  0.00  0.00    -0.377 OA
ATOM     34  C21 UNL     1      22.225   5.364  24.293  0.00  0.00    +0.175 C 
ATOM     35  C22 UNL     1      22.332   4.808  25.726  0.00  0.00    +0.113 C 
ENDBRANCH  22  30
ENDBRANCH  21  22
ENDBRANCH   4  21
TORSDOF 8
ENDMDL
MODEL 4
REMARK VINA RESULT:    -6.540      9.039     13.088
REMARK INTER + INTRA:         -11.269
REMARK INTER:                 -10.118
REMARK INTRA:                  -1.151
REMARK UNBOUND:                -1.671
REMARK  Name = /home/qwerty/github/datacon2025hack/step_04_hit_selection/docking/ligands/lig_12.pdb
REMARK  10 active torsions:
REMARK  status: ('A' for Active; 'I' for Inactive)
REMARK    1  A    between atoms: C1_1  and  O1_2
REMARK    2  A    between atoms: O1_2  and  C2_3
REMARK    3  A    between atoms: C5_6  and  C6_7
REMARK    4  A    between atoms: C7_10  and  C8_11
REMARK    5  A    between atoms: C8_11  and  N2_12
REMARK    6  A    between atoms: N3_15  and  C10_16
REMARK    7  A    between atoms: C10_16  and  C11_17
REMARK    8  A    between atoms: C11_17  and  C12_18
REMARK    9  A    between atoms: C11_17  and  N4_25
REMARK   10  A    between atoms: C16_22  and  C17_23
REMARK                            x       y       z     vdW  Elec       q    Type
REMARK                         _______ _______ _______ _____ _____    ______ ____
ROOT
ATOM      1  N2  UNL     1      23.725   4.840  33.061  0.00  0.00    -0.296 N 
ATOM      2  C9  UNL     1      22.407   4.691  32.516  0.00  0.00    +0.300 C 
ATOM      3  O3  UNL     1      21.930   5.579  31.756  0.00  0.00    -0.253 OA
ATOM      4  N3  UNL     1      21.634   3.527  32.833  0.00  0.00    -0.298 N 
ATOM      5  H9  UNL     1      24.133   4.055  33.616  0.00  0.00    +0.150 HD
ATOM      6  H10 UNL     1      22.059   2.801  33.452  0.00  0.00    +0.150 HD
ENDROOT
BRANCH   1   7
ATOM      7  C8  UNL     1      24.551   6.023  32.820  0.00  0.00    +0.153 C 
BRANCH   7  11
ATOM      8  C6  UNL     1      22.771   7.556  35.409  0.00  0.00    +0.091 C 
ATOM      9  N1  UNL     1      23.340   6.550  35.979  0.00  0.00    -0.089 NA
ATOM     10  O2  UNL     1      24.409   6.134  35.232  0.00  0.00    -0.388 OA
ATOM     11  C7  UNL     1      24.604   6.917  34.065  0.00  0.00    +0.227 C 
ATOM     12  C23 UNL     1      23.449   7.936  34.130  0.00  0.00    +0.108 C 
BRANCH   8  16
ATOM     13  C2  UNL     1      19.313   9.518  37.062  0.00  0.00    +0.120 A 
ATOM     14  C3  UNL     1      19.715   8.260  37.545  0.00  0.00    +0.046 A 
ATOM     15  C4  UNL     1      20.838   7.624  37.007  0.00  0.00    +0.013 A 
ATOM     16  C5  UNL     1      21.580   8.232  35.978  0.00  0.00    -0.000 A 
ATOM     17  C24 UNL     1      21.173   9.491  35.501  0.00  0.00    +0.013 A 
ATOM     18  C25 UNL     1      20.051  10.125  36.040  0.00  0.00    +0.046 A 
BRANCH  13  20
ATOM     19  C1  UNL     1      17.009   9.557  38.032  0.00  0.00    +0.277 C 
ATOM     20  O1  UNL     1      18.193  10.196  37.568  0.00  0.00    -0.495 OA
ENDBRANCH  13  20
ENDBRANCH   8  16
ENDBRANCH   7  11
ENDBRANCH   1   7
BRANCH   4  21
ATOM     21  C10 UNL     1      20.273   3.351  32.322  0.00  0.00    +0.129 C 
BRANCH  21  22
ATOM     22  C11 UNL     1      20.024   1.887  31.892  0.00  0.00    +0.104 C 
BRANCH  22  23
ATOM     23  C12 UNL     1      20.654   1.546  30.544  0.00  0.00    -0.029 A 
ATOM     24  C13 UNL     1      19.893   1.437  29.362  0.00  0.00    +0.005 A 
ATOM     25  C14 UNL     1      20.505   1.103  28.152  0.00  0.00    +0.001 A 
ATOM     26  C15 UNL     1      21.881   0.869  28.100  0.00  0.00    +0.003 A 
ATOM     27  C16 UNL     1      22.655   0.962  29.264  0.00  0.00    -0.050 A 
ATOM     28  C17 UNL     1      24.138   0.752  29.205  0.00  0.00    +0.044 C 
ATOM     29  C18 UNL     1      22.042   1.318  30.474  0.00  0.00    +0.008 A 
ENDBRANCH  22  23
BRANCH  22  30
ATOM     30  N4  UNL     1      18.580   1.532  31.984  0.00  0.00    -0.290 NA
ATOM     31  C19 UNL     1      17.711   2.614  32.494  0.00  0.00    +0.113 C 
ATOM     32  C20 UNL     1      17.573   2.594  34.034  0.00  0.00    +0.175 C 
ATOM     33  O4  UNL     1      18.173   1.460  34.628  0.00  0.00    -0.377 OA
ATOM     34  C21 UNL     1      17.709   0.292  33.992  0.00  0.00    +0.175 C 
ATOM     35  C22 UNL     1      18.243   0.205  32.550  0.00  0.00    +0.113 C 
ENDBRANCH  22  30
ENDBRANCH  21  22
ENDBRANCH   4  21
TORSDOF 8
ENDMDL
MODEL 5
REMARK VINA RESULT:    -6.452      7.487     12.189
REMARK INTER + INTRA:         -11.141
REMARK INTER:                  -9.913
REMARK INTRA:                  -1.228
REMARK UNBOUND:                -1.671
REMARK  Name = /home/qwerty/github/datacon2025hack/step_04_hit_selection/docking/ligands/lig_12.pdb
REMARK  10 active torsions:
REMARK  status: ('A' for Active; 'I' for Inactive)
REMARK    1  A    between atoms: C1_1  and  O1_2
REMARK    2  A    between atoms: O1_2  and  C2_3
REMARK    3  A    between atoms: C5_6  and  C6_7
REMARK    4  A    between atoms: C7_10  and  C8_11
REMARK    5  A    between atoms: C8_11  and  N2_12
REMARK    6  A    between atoms: N3_15  and  C10_16
REMARK    7  A    between atoms: C10_16  and  C11_17
REMARK    8  A    between atoms: C11_17  and  C12_18
REMARK    9  A    between atoms: C11_17  and  N4_25
REMARK   10  A    between atoms: C16_22  and  C17_23
REMARK                            x       y       z     vdW  Elec       q    Type
REMARK                         _______ _______ _______ _____ _____    ______ ____
ROOT
ATOM      1  N2  UNL     1      21.629   1.990  31.635  0.00  0.00    -0.296 N 
ATOM      2  C9  UNL     1      20.911   3.096  32.199  0.00  0.00    +0.300 C 
ATOM      3  O3  UNL     1      19.658   3.036  32.334  0.00  0.00    -0.253 OA
ATOM      4  N3  UNL     1      21.622   4.269  32.613  0.00  0.00    -0.298 N 
ATOM      5  H9  UNL     1      22.673   2.026  31.613  0.00  0.00    +0.150 HD
ATOM      6  H10 UNL     1      22.661   4.285  32.504  0.00  0.00    +0.150 HD
ENDROOT
BRANCH   1   7
ATOM      7  C8  UNL     1      20.964   0.783  31.147  0.00  0.00    +0.153 C 
BRANCH   7  11
ATOM      8  C6  UNL     1      21.910   1.760  27.926  0.00  0.00    +0.091 C 
ATOM      9  N1  UNL     1      23.029   1.631  28.551  0.00  0.00    -0.089 NA
ATOM     10  O2  UNL     1      22.862   0.830  29.648  0.00  0.00    -0.388 OA
ATOM     11  C7  UNL     1      21.533   0.356  29.787  0.00  0.00    +0.227 C 
ATOM     12  C23 UNL     1      20.803   1.005  28.595  0.00  0.00    +0.108 C 
BRANCH   8  16
ATOM     13  C2  UNL     1      21.496   4.116  24.345  0.00  0.00    +0.120 A 
ATOM     14  C3  UNL     1      22.325   4.555  25.394  0.00  0.00    +0.046 A 
ATOM     15  C4  UNL     1      22.458   3.788  26.556  0.00  0.00    +0.013 A 
ATOM     16  C5  UNL     1      21.767   2.570  26.693  0.00  0.00    -0.000 A 
ATOM     17  C24 UNL     1      20.941   2.137  25.640  0.00  0.00    +0.013 A 
ATOM     18  C25 UNL     1      20.809   2.904  24.480  0.00  0.00    +0.046 A 
BRANCH  13  20
ATOM     19  C1  UNL     1      20.559   4.410  22.047  0.00  0.00    +0.277 C 
ATOM     20  O1  UNL     1      21.329   4.849  23.161  0.00  0.00    -0.495 OA
ENDBRANCH  13  20
ENDBRANCH   8  16
ENDBRANCH   7  11
ENDBRANCH   1   7
BRANCH   4  21
ATOM     21  C10 UNL     1      20.923   5.431  33.165  0.00  0.00    +0.129 C 
BRANCH  21  22
ATOM     22  C11 UNL     1      21.924   6.504  33.652  0.00  0.00    +0.104 C 
BRANCH  22  23
ATOM     23  C12 UNL     1      21.942   6.657  35.171  0.00  0.00    -0.029 A 
ATOM     24  C13 UNL     1      23.125   6.533  35.927  0.00  0.00    +0.005 A 
ATOM     25  C14 UNL     1      23.096   6.660  37.317  0.00  0.00    +0.001 A 
ATOM     26  C15 UNL     1      21.891   6.910  37.976  0.00  0.00    +0.003 A 
ATOM     27  C16 UNL     1      20.701   7.028  37.246  0.00  0.00    -0.050 A 
ATOM     28  C17 UNL     1      19.412   7.338  37.945  0.00  0.00    +0.044 C 
ATOM     29  C18 UNL     1      20.736   6.921  35.848  0.00  0.00    +0.008 A 
ENDBRANCH  22  23
BRANCH  22  30
ATOM     30  N4  UNL     1      21.739   7.790  32.923  0.00  0.00    -0.290 NA
ATOM     31  C19 UNL     1      21.785   7.675  31.450  0.00  0.00    +0.113 C 
ATOM     32  C20 UNL     1      23.215   7.830  30.883  0.00  0.00    +0.175 C 
ATOM     33  O4  UNL     1      24.162   8.205  31.865  0.00  0.00    -0.377 OA
ATOM     34  C21 UNL     1      23.694   9.333  32.566  0.00  0.00    +0.175 C 
ATOM     35  C22 UNL     1      22.474   8.971  33.435  0.00  0.00    +0.113 C 
ENDBRANCH  22  30
ENDBRANCH  21  22
ENDBRANCH   4  21
TORSDOF 8
ENDMDL
MODEL 6
REMARK VINA RESULT:    -6.450      6.486     10.962
REMARK INTER + INTRA:         -11.137
REMARK INTER:                  -8.683
REMARK INTRA:                  -2.455
REMARK UNBOUND:                -1.671
REMARK  Name = /home/qwerty/github/datacon2025hack/step_04_hit_selection/docking/ligands/lig_12.pdb
REMARK  10 active torsions:
REMARK  status: ('A' for Active; 'I' for Inactive)
REMARK    1  A    between atoms: C1_1  and  O1_2
REMARK    2  A    between atoms: O1_2  and  C2_3
REMARK    3  A    between atoms: C5_6  and  C6_7
REMARK    4  A    between atoms: C7_10  and  C8_11
REMARK    5  A    between atoms: C8_11  and  N2_12
REMARK    6  A    between atoms: N3_15  and  C10_16
REMARK    7  A    between atoms: C10_16  and  C11_17
REMARK    8  A    between atoms: C11_17  and  C12_18
REMARK    9  A    between atoms: C11_17  and  N4_25
REMARK   10  A    between atoms: C16_22  and  C17_23
REMARK                            x       y       z     vdW  Elec       q    Type
REMARK                         _______ _______ _______ _____ _____    ______ ____
ROOT
ATOM      1  N2  UNL     1      11.098   8.107  19.864  0.00  0.00    -0.296 N 
ATOM      2  C9  UNL     1      10.055   7.195  20.235  0.00  0.00    +0.300 C 
ATOM      3  O3  UNL     1       8.927   7.633  20.595  0.00  0.00    -0.253 OA
ATOM      4  N3  UNL     1      10.295   5.784  20.191  0.00  0.00    -0.298 N 
ATOM      5  H9  UNL     1      11.992   7.722  19.486  0.00  0.00    +0.150 HD
ATOM      6  H10 UNL     1      11.233   5.449  19.874  0.00  0.00    +0.150 HD
ENDROOT
BRANCH   1   7
ATOM      7  C8  UNL     1      10.938   9.559  19.931  0.00  0.00    +0.153 C 
BRANCH   7  11
ATOM      8  C6  UNL     1      10.498   9.442  23.397  0.00  0.00    +0.091 C 
ATOM      9  N1  UNL     1      11.583   8.774  23.201  0.00  0.00    -0.089 NA
ATOM     10  O2  UNL     1      12.126   9.110  21.990  0.00  0.00    -0.388 OA
ATOM     11  C7  UNL     1      11.370  10.095  21.302  0.00  0.00    +0.227 C 
ATOM     12  C23 UNL     1      10.185  10.354  22.252  0.00  0.00    +0.108 C 
BRANCH   8  16
ATOM     13  C2  UNL     1       8.114   9.024  26.959  0.00  0.00    +0.120 A 
ATOM     14  C3  UNL     1       7.524   9.444  25.753  0.00  0.00    +0.046 A 
ATOM     15  C4  UNL     1       8.300   9.579  24.597  0.00  0.00    +0.013 A 
ATOM     16  C5  UNL     1       9.678   9.298  24.624  0.00  0.00    -0.000 A 
ATOM     17  C24 UNL     1      10.261   8.878  25.832  0.00  0.00    +0.013 A 
ATOM     18  C25 UNL     1       9.485   8.743  26.986  0.00  0.00    +0.046 A 
BRANCH  13  20
ATOM     19  C1  UNL     1       7.182   9.909  29.103  0.00  0.00    +0.277 C 
ATOM     20  O1  UNL     1       7.380   8.875  28.145  0.00  0.00    -0.495 OA
ENDBRANCH  13  20
ENDBRANCH   8  16
ENDBRANCH   7  11
ENDBRANCH   1   7
BRANCH   4  21
ATOM     21  C10 UNL     1       9.268   4.820  20.591  0.00  0.00    +0.129 C 
BRANCH  21  22
ATOM     22  C11 UNL     1       9.763   3.926  21.750  0.00  0.00    +0.104 C 
BRANCH  22  23
ATOM     23  C12 UNL     1       9.111   4.266  23.088  0.00  0.00    -0.029 A 
ATOM     24  C13 UNL     1       8.972   5.593  23.543  0.00  0.00    +0.005 A 
ATOM     25  C14 UNL     1       8.387   5.861  24.782  0.00  0.00    +0.001 A 
ATOM     26  C15 UNL     1       7.933   4.815  25.588  0.00  0.00    +0.003 A 
ATOM     27  C16 UNL     1       8.069   3.488  25.159  0.00  0.00    -0.050 A 
ATOM     28  C17 UNL     1       7.546   2.363  26.003  0.00  0.00    +0.044 C 
ATOM     29  C18 UNL     1       8.639   3.221  23.906  0.00  0.00    +0.008 A 
ENDBRANCH  22  23
BRANCH  22  30
ATOM     30  N4  UNL     1      11.252   3.882  21.805  0.00  0.00    -0.290 NA
ATOM     31  C19 UNL     1      11.858   2.707  21.142  0.00  0.00    +0.113 C 
ATOM     32  C20 UNL     1      12.021   1.502  22.097  0.00  0.00    +0.175 C 
ATOM     33  O4  UNL     1      11.707   1.813  23.440  0.00  0.00    -0.377 OA
ATOM     34  C21 UNL     1      12.416   2.964  23.837  0.00  0.00    +0.175 C 
ATOM     35  C22 UNL     1      11.893   4.211  23.099  0.00  0.00    +0.113 C 
ENDBRANCH  22  30
ENDBRANCH  21  22
ENDBRANCH   4  21
TORSDOF 8
ENDMDL
MODEL 7
REMARK VINA RESULT:    -6.421      2.912      4.967
REMARK INTER + INTRA:         -11.095
REMARK INTER:                  -9.841
REMARK INTRA:                  -1.253
REMARK UNBOUND:                -1.671
REMARK  Name = /home/qwerty/github/datacon2025hack/step_04_hit_selection/docking/ligands/lig_12.pdb
REMARK  10 active torsions:
REMARK  status: ('A' for Active; 'I' for Inactive)
REMARK    1  A    between atoms: C1_1  and  O1_2
REMARK    2  A    between atoms: O1_2  and  C2_3
REMARK    3  A    between atoms: C5_6  and  C6_7
REMARK    4  A    between atoms: C7_10  and  C8_11
REMARK    5  A    between atoms: C8_11  and  N2_12
REMARK    6  A    between atoms: N3_15  and  C10_16
REMARK    7  A    between atoms: C10_16  and  C11_17
REMARK    8  A    between atoms: C11_17  and  C12_18
REMARK    9  A    between atoms: C11_17  and  N4_25
REMARK   10  A    between atoms: C16_22  and  C17_23
REMARK                            x       y       z     vdW  Elec       q    Type
REMARK                         _______ _______ _______ _____ _____    ______ ____
ROOT
ATOM      1  N2  UNL     1      19.274   3.996  23.891  0.00  0.00    -0.296 N 
ATOM      2  C9  UNL     1      18.597   4.011  22.627  0.00  0.00    +0.300 C 
ATOM      3  O3  UNL     1      19.249   4.180  21.560  0.00  0.00    -0.253 OA
ATOM      4  N3  UNL     1      17.176   3.828  22.578  0.00  0.00    -0.298 N 
ATOM      5  H9  UNL     1      18.728   3.769  24.752  0.00  0.00    +0.150 HD
ATOM      6  H10 UNL     1      16.664   3.676  23.476  0.00  0.00    +0.150 HD
ENDROOT
BRANCH   1   7
ATOM      7  C8  UNL     1      20.713   4.224  24.019  0.00  0.00    +0.153 C 
BRANCH   7  11
ATOM      8  C6  UNL     1      20.851   1.827  26.560  0.00  0.00    +0.091 C 
ATOM      9  N1  UNL     1      20.305   1.201  25.575  0.00  0.00    -0.089 NA
ATOM     10  O2  UNL     1      20.596   1.838  24.399  0.00  0.00    -0.388 OA
ATOM     11  C7  UNL     1      21.416   2.982  24.580  0.00  0.00    +0.227 C 
ATOM     12  C23 UNL     1      21.613   3.034  26.107  0.00  0.00    +0.108 C 
BRANCH   8  16
ATOM     13  C2  UNL     1      20.463   0.528  30.647  0.00  0.00    +0.120 A 
ATOM     14  C3  UNL     1      21.647   0.277  29.931  0.00  0.00    +0.046 A 
ATOM     15  C4  UNL     1      21.771   0.700  28.603  0.00  0.00    +0.013 A 
ATOM     16  C5  UNL     1      20.717   1.381  27.968  0.00  0.00    -0.000 A 
ATOM     17  C24 UNL     1      19.536   1.629  28.690  0.00  0.00    +0.013 A 
ATOM     18  C25 UNL     1      19.414   1.206  30.016  0.00  0.00    +0.046 A 
BRANCH  13  20
ATOM     19  C1  UNL     1      19.024  -0.015  32.618  0.00  0.00    +0.277 C 
ATOM     20  O1  UNL     1      20.289   0.124  31.979  0.00  0.00    -0.495 OA
ENDBRANCH  13  20
ENDBRANCH   8  16
ENDBRANCH   7  11
ENDBRANCH   1   7
BRANCH   4  21
ATOM     21  C10 UNL     1      16.444   3.867  21.312  0.00  0.00    +0.129 C 
BRANCH  21  22
ATOM     22  C11 UNL     1      15.265   2.867  21.319  0.00  0.00    +0.104 C 
BRANCH  22  23
ATOM     23  C12 UNL     1      15.718   1.411  21.381  0.00  0.00    -0.029 A 
ATOM     24  C13 UNL     1      15.702   0.667  22.579  0.00  0.00    +0.005 A 
ATOM     25  C14 UNL     1      16.143  -0.657  22.598  0.00  0.00    +0.001 A 
ATOM     26  C15 UNL     1      16.610  -1.261  21.429  0.00  0.00    +0.003 A 
ATOM     27  C16 UNL     1      16.644  -0.538  20.229  0.00  0.00    -0.050 A 
ATOM     28  C17 UNL     1      17.105  -1.195  18.962  0.00  0.00    +0.044 C 
ATOM     29  C18 UNL     1      16.180   0.786  20.207  0.00  0.00    +0.008 A 
ENDBRANCH  22  23
BRANCH  22  30
ATOM     30  N4  UNL     1      14.307   3.149  20.213  0.00  0.00    -0.290 NA
ATOM     31  C19 UNL     1      14.317   4.546  19.730  0.00  0.00    +0.113 C 
ATOM     32  C20 UNL     1      13.329   5.452  20.502  0.00  0.00    +0.175 C 
ATOM     33  O4  UNL     1      12.506   4.733  21.401  0.00  0.00    -0.377 OA
ATOM     34  C21 UNL     1      11.897   3.657  20.726  0.00  0.00    +0.175 C 
ATOM     35  C22 UNL     1      12.940   2.591  20.341  0.00  0.00    +0.113 C 
ENDBRANCH  22  30
ENDBRANCH  21  22
ENDBRANCH   4  21
TORSDOF 8
ENDMDL
MODEL 8
REMARK VINA RESULT:    -6.408      7.333     11.911
REMARK INTER + INTRA:         -11.076
REMARK INTER:                 -10.071
REMARK INTRA:                  -1.005
REMARK UNBOUND:                -1.671
REMARK  Name = /home/qwerty/github/datacon2025hack/step_04_hit_selection/docking/ligands/lig_12.pdb
REMARK  10 active torsions:
REMARK  status: ('A' for Active; 'I' for Inactive)
REMARK    1  A    between atoms: C1_1  and  O1_2
REMARK    2  A    between atoms: O1_2  and  C2_3
REMARK    3  A    between atoms: C5_6  and  C6_7
REMARK    4  A    between atoms: C7_10  and  C8_11
REMARK    5  A    between atoms: C8_11  and  N2_12
REMARK    6  A    between atoms: N3_15  and  C10_16
REMARK    7  A    between atoms: C10_16  and  C11_17
REMARK    8  A    between atoms: C11_17  and  C12_18
REMARK    9  A    between atoms: C11_17  and  N4_25
REMARK   10  A    between atoms: C16_22  and  C17_23
REMARK                            x       y       z     vdW  Elec       q    Type
REMARK                         _______ _______ _______ _____ _____    ______ ____
ROOT
ATOM      1  N2  UNL     1      22.002   2.806  31.336  0.00  0.00    -0.296 N 
ATOM      2  C9  UNL     1      22.168   3.432  32.616  0.00  0.00    +0.300 C 
ATOM      3  O3  UNL     1      21.826   2.826  33.668  0.00  0.00    -0.253 OA
ATOM      4  N3  UNL     1      22.728   4.749  32.696  0.00  0.00    -0.298 N 
ATOM      5  H9  UNL     1      22.371   3.289  30.487  0.00  0.00    +0.150 HD
ATOM      6  H10 UNL     1      23.017   5.221  31.809  0.00  0.00    +0.150 HD
ENDROOT
BRANCH   1   7
ATOM      7  C8  UNL     1      21.392   1.486  31.176  0.00  0.00    +0.153 C 
BRANCH   7  11
ATOM      8  C6  UNL     1      22.071   2.156  27.813  0.00  0.00    +0.091 C 
ATOM      9  N1  UNL     1      23.219   1.831  28.301  0.00  0.00    -0.089 NA
ATOM     10  O2  UNL     1      23.050   1.114  29.454  0.00  0.00    -0.388 OA
ATOM     11  C7  UNL     1      21.684   0.914  29.783  0.00  0.00    +0.227 C 
ATOM     12  C23 UNL     1      20.940   1.654  28.655  0.00  0.00    +0.108 C 
BRANCH   8  16
ATOM     13  C2  UNL     1      21.642   4.431  24.182  0.00  0.00    +0.120 A 
ATOM     14  C3  UNL     1      22.505   4.874  25.201  0.00  0.00    +0.046 A 
ATOM     15  C4  UNL     1      22.643   4.134  26.380  0.00  0.00    +0.013 A 
ATOM     16  C5  UNL     1      21.924   2.939  26.562  0.00  0.00    -0.000 A 
ATOM     17  C24 UNL     1      21.064   2.501  25.539  0.00  0.00    +0.013 A 
ATOM     18  C25 UNL     1      20.928   3.242  24.362  0.00  0.00    +0.046 A 
BRANCH  13  20
ATOM     19  C1  UNL     1      22.267   6.246  22.581  0.00  0.00    +0.277 C 
ATOM     20  O1  UNL     1      21.469   5.138  22.983  0.00  0.00    -0.495 OA
ENDBRANCH  13  20
ENDBRANCH   8  16
ENDBRANCH   7  11
ENDBRANCH   1   7
BRANCH   4  21
ATOM     21  C10 UNL     1      22.887   5.435  33.979  0.00  0.00    +0.129 C 
BRANCH  21  22
ATOM     22  C11 UNL     1      22.264   6.850  33.935  0.00  0.00    +0.104 C 
BRANCH  22  23
ATOM     23  C12 UNL     1      23.113   7.851  33.157  0.00  0.00    -0.029 A 
ATOM     24  C13 UNL     1      24.512   7.936  33.312  0.00  0.00    +0.005 A 
ATOM     25  C14 UNL     1      25.250   8.880  32.596  0.00  0.00    +0.001 A 
ATOM     26  C15 UNL     1      24.610   9.754  31.716  0.00  0.00    +0.003 A 
ATOM     27  C16 UNL     1      23.220   9.695  31.553  0.00  0.00    -0.050 A 
ATOM     28  C17 UNL     1      22.533  10.605  30.579  0.00  0.00    +0.044 C 
ATOM     29  C18 UNL     1      22.482   8.733  32.258  0.00  0.00    +0.008 A 
ENDBRANCH  22  23
BRANCH  22  30
ATOM     30  N4  UNL     1      21.884   7.319  35.298  0.00  0.00    -0.290 NA
ATOM     31  C19 UNL     1      20.719   6.624  35.885  0.00  0.00    +0.113 C 
ATOM     32  C20 UNL     1      19.377   7.307  35.532  0.00  0.00    +0.175 C 
ATOM     33  O4  UNL     1      19.544   8.538  34.855  0.00  0.00    -0.377 OA
ATOM     34  C21 UNL     1      20.436   9.356  35.575  0.00  0.00    +0.175 C 
ATOM     35  C22 UNL     1      21.864   8.782  35.529  0.00  0.00    +0.113 C 
ENDBRANCH  22  30
ENDBRANCH  21  22
ENDBRANCH   4  21
TORSDOF 8
ENDMDL
MODEL 9
REMARK VINA RESULT:    -6.186      8.471     12.396
REMARK INTER + INTRA:         -10.750
REMARK INTER:                  -9.416
REMARK INTRA:                  -1.335
REMARK UNBOUND:                -1.671
REMARK  Name = /home/qwerty/github/datacon2025hack/step_04_hit_selection/docking/ligands/lig_12.pdb
REMARK  10 active torsions:
REMARK  status: ('A' for Active; 'I' for Inactive)
REMARK    1  A    between atoms: C1_1  and  O1_2
REMARK    2  A    between atoms: O1_2  and  C2_3
REMARK    3  A    between atoms: C5_6  and  C6_7
REMARK    4  A    between atoms: C7_10  and  C8_11
REMARK    5  A    between atoms: C8_11  and  N2_12
REMARK    6  A    between atoms: N3_15  and  C10_16
REMARK    7  A    between atoms: C10_16  and  C11_17
REMARK    8  A    between atoms: C11_17  and  C12_18
REMARK    9  A    between atoms: C11_17  and  N4_25
REMARK   10  A    between atoms: C16_22  and  C17_23
REMARK                            x       y       z     vdW  Elec       q    Type
REMARK                         _______ _______ _______ _____ _____    ______ ____
ROOT
ATOM      1  N2  UNL     1      18.927   2.598  33.471  0.00  0.00    -0.296 N 
ATOM      2  C9  UNL     1      18.924   3.430  34.638  0.00  0.00    +0.300 C 
ATOM      3  O3  UNL     1      18.325   3.054  35.684  0.00  0.00    -0.253 OA
ATOM      4  N3  UNL     1      19.607   4.689  34.616  0.00  0.00    -0.298 N 
ATOM      5  H9  UNL     1      19.500   2.887  32.647  0.00  0.00    +0.150 HD
ATOM      6  H10 UNL     1      20.107   4.967  33.742  0.00  0.00    +0.150 HD
ENDROOT
BRANCH   1   7
ATOM      7  C8  UNL     1      18.210   1.324  33.407  0.00  0.00    +0.153 C 
BRANCH   7  11
ATOM      8  C6  UNL     1      20.225   0.995  30.569  0.00  0.00    +0.091 C 
ATOM      9  N1  UNL     1      21.009   0.678  31.542  0.00  0.00    -0.089 NA
ATOM     10  O2  UNL     1      20.270   0.317  32.637  0.00  0.00    -0.388 OA
ATOM     11  C7  UNL     1      18.873   0.373  32.402  0.00  0.00    +0.227 C 
ATOM     12  C23 UNL     1      18.782   0.871  30.946  0.00  0.00    +0.108 C 
BRANCH   8  16
ATOM     13  C2  UNL     1      21.686   2.261  26.721  0.00  0.00    +0.120 A 
ATOM     14  C3  UNL     1      22.545   2.235  27.835  0.00  0.00    +0.046 A 
ATOM     15  C4  UNL     1      22.069   1.823  29.084  0.00  0.00    +0.013 A 
ATOM     16  C5  UNL     1      20.728   1.430  29.244  0.00  0.00    -0.000 A 
ATOM     17  C24 UNL     1      19.875   1.458  28.126  0.00  0.00    +0.013 A 
ATOM     18  C25 UNL     1      20.352   1.869  26.879  0.00  0.00    +0.046 A 
BRANCH  13  20
ATOM     19  C1  UNL     1      22.819   3.876  25.186  0.00  0.00    +0.277 C 
ATOM     20  O1  UNL     1      22.115   2.667  25.449  0.00  0.00    -0.495 OA
ENDBRANCH  13  20
ENDBRANCH   8  16
ENDBRANCH   7  11
ENDBRANCH   1   7
BRANCH   4  21
ATOM     21  C10 UNL     1      19.603   5.582  35.777  0.00  0.00    +0.129 C 
BRANCH  21  22
ATOM     22  C11 UNL     1      20.253   6.942  35.436  0.00  0.00    +0.104 C 
BRANCH  22  23
ATOM     23  C12 UNL     1      21.637   6.801  34.808  0.00  0.00    -0.029 A 
ATOM     24  C13 UNL     1      22.759   6.369  35.544  0.00  0.00    +0.005 A 
ATOM     25  C14 UNL     1      24.013   6.272  34.937  0.00  0.00    +0.001 A 
ATOM     26  C15 UNL     1      24.171   6.605  33.591  0.00  0.00    +0.003 A 
ATOM     27  C16 UNL     1      23.072   7.046  32.842  0.00  0.00    -0.050 A 
ATOM     28  C17 UNL     1      23.228   7.366  31.385  0.00  0.00    +0.044 C 
ATOM     29  C18 UNL     1      21.809   7.123  33.448  0.00  0.00    +0.008 A 
ENDBRANCH  22  23
BRANCH  22  30
ATOM     30  N4  UNL     1      20.217   7.869  36.602  0.00  0.00    -0.290 NA
ATOM     31  C19 UNL     1      19.073   7.665  37.516  0.00  0.00    +0.113 C 
ATOM     32  C20 UNL     1      17.833   8.497  37.114  0.00  0.00    +0.175 C 
ATOM     33  O4  UNL     1      18.091   9.399  36.056  0.00  0.00    -0.377 OA
ATOM     34  C21 UNL     1      19.230  10.170  36.359  0.00  0.00    +0.175 C 
ATOM     35  C22 UNL     1      20.501   9.299  36.340  0.00  0.00    +0.113 C 
ENDBRANCH  22  30
ENDBRANCH  21  22
ENDBRANCH   4  21
TORSDOF 8
ENDMDL
