REMARK  Name = /home/qwerty/github/datacon2025hack/step_04_hit_selection/docking/ligands/lig_4.pdb
REMARK  5 active torsions:
REMARK  status: ('A' for Active; 'I' for Inactive)
REMARK    1  A    between atoms: C1_1  and  O1_2
REMARK    2  A    between atoms: O1_2  and  C2_3
REMARK    3  A    between atoms: C2_3  and  C3_5
REMARK    4  A    between atoms: C8_12  and  N1_13
REMARK    5  A    between atoms: N2_16  and  C10_17
REMARK                            x       y       z     vdW  Elec       q    Type
REMARK                         _______ _______ _______ _____ _____    ______ ____
ROOT
ATOM      1  N1  UNL     1      -0.865  -0.028   0.571  0.00  0.00    -0.268 N 
ATOM      2  C9  UNL     1       0.511   0.141   0.202  0.00  0.00    +0.308 C 
ATOM      3  O3  UNL     1       0.862   1.131  -0.497  0.00  0.00    -0.252 OA
ATOM      4  N2  UNL     1       1.472  -0.858   0.576  0.00  0.00    -0.267 N 
ATOM      5  H6  UNL     1      -1.151  -0.928   1.019  0.00  0.00    +0.156 HD
ATOM      6  H7  UNL     1       1.108  -1.782   0.901  0.00  0.00    +0.156 HD
ENDROOT
BRANCH   1  14
ATOM      7  C3  UNL     1      -3.143   0.614  -0.182  0.00  0.00    +0.082 A 
ATOM      8  C4  UNL     1      -4.135   1.606  -0.298  0.00  0.00    +0.038 A 
ATOM      9  C5  UNL     1      -3.874   2.929   0.069  0.00  0.00    +0.060 A 
ATOM     10 CL1  UNL     1      -5.148   4.128  -0.110  0.00  0.00    -0.082 Cl
ATOM     11  C6  UNL     1      -2.612   3.279   0.567  0.00  0.00    +0.061 A 
ATOM     12 CL2  UNL     1      -2.248   4.931   1.048  0.00  0.00    -0.082 Cl
ATOM     13  C7  UNL     1      -1.623   2.302   0.701  0.00  0.00    +0.045 A 
ATOM     14  C8  UNL     1      -1.871   0.969   0.331  0.00  0.00    +0.050 A 
BRANCH   7  15
ATOM     15  C2  UNL     1      -3.447  -0.763  -0.641  0.00  0.00    +0.341 C 
ATOM     16  O2  UNL     1      -4.645  -1.160  -0.685  0.00  0.00    -0.245 OA
BRANCH  15  18
ATOM     17  C1  UNL     1      -2.648  -2.940  -1.510  0.00  0.00    +0.280 C 
ATOM     18  O1  UNL     1      -2.417  -1.611  -1.061  0.00  0.00    -0.464 OA
ENDBRANCH  15  18
ENDBRANCH   7  15
ENDBRANCH   1  14
BRANCH   4  19
ATOM     19  C10 UNL     1       2.895  -0.699   0.434  0.00  0.00    +0.073 A 
ATOM     20  C11 UNL     1       3.514   0.547   0.651  0.00  0.00    +0.064 A 
ATOM     21  C12 UNL     1       4.901   0.677   0.532  0.00  0.00    +0.125 A 
ATOM     22  F1  UNL     1       5.490   1.880   0.742  0.00  0.00    -0.205 F 
ATOM     23  C13 UNL     1       5.683  -0.435   0.208  0.00  0.00    +0.041 A 
ATOM     24  C14 UNL     1       5.080  -1.679   0.010  0.00  0.00    +0.043 A 
ATOM     25  C15 UNL     1       3.693  -1.815   0.129  0.00  0.00    +0.145 A 
ATOM     26  F2  UNL     1       3.125  -3.032  -0.069  0.00  0.00    -0.204 F 
ENDBRANCH   4  19
TORSDOF 4
