MODEL 1
REMARK VINA RESULT:    -6.832      0.000      0.000
REMARK INTER + INTRA:         -11.358
REMARK INTER:                  -9.627
REMARK INTRA:                  -1.731
REMARK UNBOUND:                -1.731
REMARK  Name = /home/qwerty/github/datacon2025hack/step_04_hit_selection/docking/ligands/lig_231.pdb
REMARK  11 active torsions:
REMARK  status: ('A' for Active; 'I' for Inactive)
REMARK    1  A    between atoms: C1_1  and  O1_2
REMARK    2  A    between atoms: O1_2  and  C2_3
REMARK    3  A    between atoms: C4_5  and  C5_6
REMARK    4  A    between atoms: N1_8  and  C6_9
REMARK    5  A    between atoms: C8_11  and  C9_12
REMARK    6  A    between atoms: C12_15  and  N2_16
REMARK    7  A    between atoms: C13_17  and  C14_19
REMARK    8  A    between atoms: C23_29  and  O5_30
REMARK    9  A    between atoms: O5_30  and  C24_31
REMARK   10  A    between atoms: C25_32  and  O6_33
REMARK   11  A    between atoms: O6_33  and  C26_34
REMARK                            x       y       z     vdW  Elec       q    Type
REMARK                         _______ _______ _______ _____ _____    ______ ____
ROOT
ATOM      1  C6  UNL     1      21.859  14.620  29.569  0.00  0.00    +0.055 A 
ATOM      2  C7  UNL     1      21.651  15.675  28.668  0.00  0.00    +0.028 A 
ATOM      3  C8  UNL     1      22.225  15.650  27.390  0.00  0.00    -0.049 A 
ATOM      4  C9  UNL     1      21.952  16.766  26.424  0.00  0.00    +0.044 C 
ATOM      5  C10 UNL     1      22.993  14.545  27.000  0.00  0.00    +0.005 A 
ATOM      6  C11 UNL     1      23.234  13.503  27.899  0.00  0.00    +0.025 A 
ATOM      7  C12 UNL     1      22.704  13.544  29.197  0.00  0.00    +0.055 A 
ENDROOT
BRANCH   1  10
ATOM      8  C5  UNL     1      19.888  14.115  31.055  0.00  0.00    +0.249 C 
ATOM      9  O2  UNL     1      19.111  14.000  30.067  0.00  0.00    -0.270 OA
ATOM     10  N1  UNL     1      21.201  14.664  30.848  0.00  0.00    -0.280 N 
ATOM     11  H5  UNL     1      21.671  15.213  31.608  0.00  0.00    +0.155 HD
BRANCH   8  14
ATOM     12  C2  UNL     1      17.962  13.701  34.334  0.00  0.00    +0.166 A 
ATOM     13  C3  UNL     1      18.341  14.160  33.058  0.00  0.00    +0.062 A 
ATOM     14  C4  UNL     1      19.448  13.612  32.386  0.00  0.00    +0.044 A 
ATOM     15  C22 UNL     1      20.175  12.586  33.008  0.00  0.00    +0.062 A 
ATOM     16  C23 UNL     1      19.814  12.114  34.282  0.00  0.00    +0.166 A 
ATOM     17  C25 UNL     1      18.712  12.669  34.951  0.00  0.00    +0.204 A 
BRANCH  12  19
ATOM     18  C1  UNL     1      15.518  13.790  34.908  0.00  0.00    +0.277 C 
ATOM     19  O1  UNL     1      16.859  14.259  35.003  0.00  0.00    -0.491 OA
ENDBRANCH  12  19
BRANCH  16  20
ATOM     20  O5  UNL     1      20.524  11.085  34.921  0.00  0.00    -0.491 OA
ATOM     21  C24 UNL     1      21.047   9.934  34.263  0.00  0.00    +0.277 C 
ENDBRANCH  16  20
BRANCH  17  22
ATOM     22  O6  UNL     1      18.423  12.155  36.230  0.00  0.00    -0.488 OA
ATOM     23  C26 UNL     1      17.501  11.118  36.534  0.00  0.00    +0.277 C 
ENDBRANCH  17  22
ENDBRANCH   8  14
ENDBRANCH   1  10
BRANCH   7  24
ATOM     24  N2  UNL     1      23.042  12.485  30.111  0.00  0.00    -0.277 N 
ATOM     25  C13 UNL     1      22.307  11.254  30.188  0.00  0.00    +0.284 C 
ATOM     26  O3  UNL     1      21.162  11.167  29.666  0.00  0.00    -0.266 OA
ATOM     27  H12 UNL     1      23.748  12.690  30.852  0.00  0.00    +0.155 HD
BRANCH  25  28
ATOM     28  C14 UNL     1      22.875  10.075  30.860  0.00  0.00    +0.191 A 
ATOM     29  C15 UNL     1      24.059  10.040  31.599  0.00  0.00    +0.063 A 
ATOM     30  C16 UNL     1      24.163   8.730  32.009  0.00  0.00    +0.021 A 
ATOM     31  C17 UNL     1      25.130   8.092  32.783  0.00  0.00    +0.011 A 
ATOM     32  C18 UNL     1      24.962   6.717  33.034  0.00  0.00    +0.001 A 
ATOM     33  C19 UNL     1      23.846   6.023  32.509  0.00  0.00    +0.004 A 
ATOM     34  C20 UNL     1      22.887   6.698  31.731  0.00  0.00    +0.047 A 
ATOM     35  C21 UNL     1      23.079   8.061  31.504  0.00  0.00    +0.136 A 
ATOM     36  O4  UNL     1      22.313   8.876  30.820  0.00  0.00    -0.450 OA
ENDBRANCH  25  28
ENDBRANCH   7  24
TORSDOF 7
ENDMDL
MODEL 2
REMARK VINA RESULT:    -6.799     10.790     14.060
REMARK INTER + INTRA:         -11.311
REMARK INTER:                  -9.605
REMARK INTRA:                  -1.706
REMARK UNBOUND:                -1.731
REMARK  Name = /home/qwerty/github/datacon2025hack/step_04_hit_selection/docking/ligands/lig_231.pdb
REMARK  11 active torsions:
REMARK  status: ('A' for Active; 'I' for Inactive)
REMARK    1  A    between atoms: C1_1  and  O1_2
REMARK    2  A    between atoms: O1_2  and  C2_3
REMARK    3  A    between atoms: C4_5  and  C5_6
REMARK    4  A    between atoms: N1_8  and  C6_9
REMARK    5  A    between atoms: C8_11  and  C9_12
REMARK    6  A    between atoms: C12_15  and  N2_16
REMARK    7  A    between atoms: C13_17  and  C14_19
REMARK    8  A    between atoms: C23_29  and  O5_30
REMARK    9  A    between atoms: O5_30  and  C24_31
REMARK   10  A    between atoms: C25_32  and  O6_33
REMARK   11  A    between atoms: O6_33  and  C26_34
REMARK                            x       y       z     vdW  Elec       q    Type
REMARK                         _______ _______ _______ _____ _____    ______ ____
ROOT
ATOM      1  C6  UNL     1      20.653   1.581  25.911  0.00  0.00    +0.055 A 
ATOM      2  C7  UNL     1      20.648   0.916  27.147  0.00  0.00    +0.028 A 
ATOM      3  C8  UNL     1      21.603   1.218  28.127  0.00  0.00    -0.049 A 
ATOM      4  C9  UNL     1      21.552   0.530  29.459  0.00  0.00    +0.044 C 
ATOM      5  C10 UNL     1      22.555   2.215  27.878  0.00  0.00    +0.005 A 
ATOM      6  C11 UNL     1      22.591   2.861  26.641  0.00  0.00    +0.025 A 
ATOM      7  C12 UNL     1      21.670   2.530  25.636  0.00  0.00    +0.055 A 
ENDROOT
BRANCH   1  10
ATOM      8  C5  UNL     1      18.409   2.054  24.866  0.00  0.00    +0.249 C 
ATOM      9  O2  UNL     1      18.022   2.706  25.875  0.00  0.00    -0.270 OA
ATOM     10  N1  UNL     1      19.617   1.278  24.960  0.00  0.00    -0.280 N 
ATOM     11  H5  UNL     1      19.724   0.396  24.403  0.00  0.00    +0.155 HD
BRANCH   8  14
ATOM     12  C2  UNL     1      17.111   3.324  21.500  0.00  0.00    +0.166 A 
ATOM     13  C3  UNL     1      17.871   3.209  22.680  0.00  0.00    +0.062 A 
ATOM     14  C4  UNL     1      17.644   2.165  23.593  0.00  0.00    +0.044 A 
ATOM     15  C22 UNL     1      16.643   1.225  23.308  0.00  0.00    +0.062 A 
ATOM     16  C23 UNL     1      15.872   1.322  22.136  0.00  0.00    +0.166 A 
ATOM     17  C25 UNL     1      16.099   2.370  21.232  0.00  0.00    +0.204 A 
BRANCH  12  19
ATOM     18  C1  UNL     1      16.889   5.716  20.764  0.00  0.00    +0.277 C 
ATOM     19  O1  UNL     1      17.339   4.376  20.595  0.00  0.00    -0.491 OA
ENDBRANCH  12  19
BRANCH  16  20
ATOM     20  O5  UNL     1      14.869   0.389  21.829  0.00  0.00    -0.491 OA
ATOM     21  C24 UNL     1      13.585   0.348  22.448  0.00  0.00    +0.277 C 
ENDBRANCH  16  20
BRANCH  17  22
ATOM     22  O6  UNL     1      15.275   2.409  20.089  0.00  0.00    -0.488 OA
ATOM     23  C26 UNL     1      14.117   3.213  19.912  0.00  0.00    +0.277 C 
ENDBRANCH  17  22
ENDBRANCH   8  14
ENDBRANCH   1  10
BRANCH   7  24
ATOM     24  N2  UNL     1      21.793   3.168  24.353  0.00  0.00    -0.277 N 
ATOM     25  C13 UNL     1      21.228   4.457  24.062  0.00  0.00    +0.284 C 
ATOM     26  O3  UNL     1      20.354   4.951  24.826  0.00  0.00    -0.266 OA
ATOM     27  H12 UNL     1      22.169   2.600  23.561  0.00  0.00    +0.155 HD
BRANCH  25  28
ATOM     28  C14 UNL     1      21.664   5.226  22.886  0.00  0.00    +0.191 A 
ATOM     29  C15 UNL     1      21.158   5.105  21.591  0.00  0.00    +0.063 A 
ATOM     30  C16 UNL     1      21.884   6.016  20.858  0.00  0.00    +0.021 A 
ATOM     31  C17 UNL     1      21.824   6.353  19.507  0.00  0.00    +0.011 A 
ATOM     32  C18 UNL     1      22.715   7.339  19.040  0.00  0.00    +0.001 A 
ATOM     33  C19 UNL     1      23.634   7.953  19.925  0.00  0.00    +0.004 A 
ATOM     34  C20 UNL     1      23.667   7.588  21.284  0.00  0.00    +0.047 A 
ATOM     35  C21 UNL     1      22.769   6.612  21.717  0.00  0.00    +0.136 A 
ATOM     36  O4  UNL     1      22.627   6.133  22.929  0.00  0.00    -0.450 OA
ENDBRANCH  25  28
ENDBRANCH   7  24
TORSDOF 7
ENDMDL
MODEL 3
REMARK VINA RESULT:    -6.792     10.812     14.057
REMARK INTER + INTRA:         -11.302
REMARK INTER:                  -9.548
REMARK INTRA:                  -1.755
REMARK UNBOUND:                -1.731
REMARK  Name = /home/qwerty/github/datacon2025hack/step_04_hit_selection/docking/ligands/lig_231.pdb
REMARK  11 active torsions:
REMARK  status: ('A' for Active; 'I' for Inactive)
REMARK    1  A    between atoms: C1_1  and  O1_2
REMARK    2  A    between atoms: O1_2  and  C2_3
REMARK    3  A    between atoms: C4_5  and  C5_6
REMARK    4  A    between atoms: N1_8  and  C6_9
REMARK    5  A    between atoms: C8_11  and  C9_12
REMARK    6  A    between atoms: C12_15  and  N2_16
REMARK    7  A    between atoms: C13_17  and  C14_19
REMARK    8  A    between atoms: C23_29  and  O5_30
REMARK    9  A    between atoms: O5_30  and  C24_31
REMARK   10  A    between atoms: C25_32  and  O6_33
REMARK   11  A    between atoms: O6_33  and  C26_34
REMARK                            x       y       z     vdW  Elec       q    Type
REMARK                         _______ _______ _______ _____ _____    ______ ____
ROOT
ATOM      1  C6  UNL     1      20.666   1.564  26.010  0.00  0.00    +0.055 A 
ATOM      2  C7  UNL     1      20.691   0.918  27.255  0.00  0.00    +0.028 A 
ATOM      3  C8  UNL     1      21.680   1.222  28.200  0.00  0.00    -0.049 A 
ATOM      4  C9  UNL     1      21.663   0.555  29.544  0.00  0.00    +0.044 C 
ATOM      5  C10 UNL     1      22.637   2.202  27.906  0.00  0.00    +0.005 A 
ATOM      6  C11 UNL     1      22.643   2.828  26.659  0.00  0.00    +0.025 A 
ATOM      7  C12 UNL     1      21.686   2.495  25.688  0.00  0.00    +0.055 A 
ENDROOT
BRANCH   1  10
ATOM      8  C5  UNL     1      18.418   2.079  24.995  0.00  0.00    +0.249 C 
ATOM      9  O2  UNL     1      18.081   2.789  25.982  0.00  0.00    -0.270 OA
ATOM     10  N1  UNL     1      19.596   1.261  25.097  0.00  0.00    -0.280 N 
ATOM     11  H5  UNL     1      19.656   0.352  24.577  0.00  0.00    +0.155 HD
BRANCH   8  14
ATOM     12  C2  UNL     1      15.917   1.300  22.208  0.00  0.00    +0.166 A 
ATOM     13  C3  UNL     1      16.627   1.228  23.421  0.00  0.00    +0.062 A 
ATOM     14  C4  UNL     1      17.627   2.165  23.736  0.00  0.00    +0.044 A 
ATOM     15  C22 UNL     1      17.907   3.188  22.817  0.00  0.00    +0.062 A 
ATOM     16  C23 UNL     1      17.210   3.276  21.599  0.00  0.00    +0.166 A 
ATOM     17  C25 UNL     1      16.218   2.335  21.288  0.00  0.00    +0.204 A 
BRANCH  12  19
ATOM     18  C1  UNL     1      13.615   0.324  22.458  0.00  0.00    +0.277 C 
ATOM     19  O1  UNL     1      14.923   0.355  21.896  0.00  0.00    -0.491 OA
ENDBRANCH  12  19
BRANCH  16  20
ATOM     20  O5  UNL     1      17.471   4.294  20.668  0.00  0.00    -0.491 OA
ATOM     21  C24 UNL     1      17.374   5.689  20.945  0.00  0.00    +0.277 C 
ENDBRANCH  16  20
BRANCH  17  22
ATOM     22  O6  UNL     1      15.575   2.480  20.042  0.00  0.00    -0.488 OA
ATOM     23  C26 UNL     1      14.346   3.151  19.801  0.00  0.00    +0.277 C 
ENDBRANCH  17  22
ENDBRANCH   8  14
ENDBRANCH   1  10
BRANCH   7  24
ATOM     24  N2  UNL     1      21.777   3.111  24.392  0.00  0.00    -0.277 N 
ATOM     25  C13 UNL     1      21.226   4.405  24.101  0.00  0.00    +0.284 C 
ATOM     26  O3  UNL     1      20.387   4.927  24.885  0.00  0.00    -0.266 OA
ATOM     27  H12 UNL     1      22.116   2.525  23.597  0.00  0.00    +0.155 HD
BRANCH  25  28
ATOM     28  C14 UNL     1      21.635   5.149  22.898  0.00  0.00    +0.191 A 
ATOM     29  C15 UNL     1      21.111   4.990  21.615  0.00  0.00    +0.063 A 
ATOM     30  C16 UNL     1      21.816   5.890  20.848  0.00  0.00    +0.021 A 
ATOM     31  C17 UNL     1      21.732   6.192  19.491  0.00  0.00    +0.011 A 
ATOM     32  C18 UNL     1      22.604   7.175  18.985  0.00  0.00    +0.001 A 
ATOM     33  C19 UNL     1      23.530   7.820  19.840  0.00  0.00    +0.004 A 
ATOM     34  C20 UNL     1      23.589   7.490  21.207  0.00  0.00    +0.047 A 
ATOM     35  C21 UNL     1      22.708   6.517  21.678  0.00  0.00    +0.136 A 
ATOM     36  O4  UNL     1      22.590   6.067  22.904  0.00  0.00    -0.450 OA
ENDBRANCH  25  28
ENDBRANCH   7  24
TORSDOF 7
ENDMDL
MODEL 4
REMARK VINA RESULT:    -6.691      7.485     10.726
REMARK INTER + INTRA:         -11.159
REMARK INTER:                  -9.473
REMARK INTRA:                  -1.686
REMARK UNBOUND:                -1.731
REMARK  Name = /home/qwerty/github/datacon2025hack/step_04_hit_selection/docking/ligands/lig_231.pdb
REMARK  11 active torsions:
REMARK  status: ('A' for Active; 'I' for Inactive)
REMARK    1  A    between atoms: C1_1  and  O1_2
REMARK    2  A    between atoms: O1_2  and  C2_3
REMARK    3  A    between atoms: C4_5  and  C5_6
REMARK    4  A    between atoms: N1_8  and  C6_9
REMARK    5  A    between atoms: C8_11  and  C9_12
REMARK    6  A    between atoms: C12_15  and  N2_16
REMARK    7  A    between atoms: C13_17  and  C14_19
REMARK    8  A    between atoms: C23_29  and  O5_30
REMARK    9  A    between atoms: O5_30  and  C24_31
REMARK   10  A    between atoms: C25_32  and  O6_33
REMARK   11  A    between atoms: O6_33  and  C26_34
REMARK                            x       y       z     vdW  Elec       q    Type
REMARK                         _______ _______ _______ _____ _____    ______ ____
ROOT
ATOM      1  C6  UNL     1      21.374   2.371  32.064  0.00  0.00    +0.055 A 
ATOM      2  C7  UNL     1      22.098   2.475  30.867  0.00  0.00    +0.028 A 
ATOM      3  C8  UNL     1      21.988   1.491  29.875  0.00  0.00    -0.049 A 
ATOM      4  C9  UNL     1      22.734   1.644  28.582  0.00  0.00    +0.044 C 
ATOM      5  C10 UNL     1      21.124   0.406  30.072  0.00  0.00    +0.005 A 
ATOM      6  C11 UNL     1      20.422   0.274  31.272  0.00  0.00    +0.025 A 
ATOM      7  C12 UNL     1      20.565   1.228  32.291  0.00  0.00    +0.055 A 
ENDROOT
BRANCH   1  10
ATOM      8  C5  UNL     1      20.521   4.511  33.085  0.00  0.00    +0.249 C 
ATOM      9  O2  UNL     1      19.863   4.800  32.049  0.00  0.00    -0.270 OA
ATOM     10  N1  UNL     1      21.475   3.435  33.027  0.00  0.00    -0.280 N 
ATOM     11  H5  UNL     1      22.337   3.460  33.622  0.00  0.00    +0.155 HD
BRANCH   8  14
ATOM     12  C2  UNL     1      18.909   5.596  36.380  0.00  0.00    +0.166 A 
ATOM     13  C3  UNL     1      19.188   4.869  35.207  0.00  0.00    +0.062 A 
ATOM     14  C4  UNL     1      20.240   5.242  34.352  0.00  0.00    +0.044 A 
ATOM     15  C22 UNL     1      21.020   6.358  34.689  0.00  0.00    +0.062 A 
ATOM     16  C23 UNL     1      20.758   7.099  35.855  0.00  0.00    +0.166 A 
ATOM     17  C25 UNL     1      19.703   6.726  36.701  0.00  0.00    +0.204 A 
BRANCH  12  19
ATOM     18  C1  UNL     1      16.469   5.289  36.891  0.00  0.00    +0.277 C 
ATOM     19  O1  UNL     1      17.851   5.222  37.226  0.00  0.00    -0.491 OA
ENDBRANCH  12  19
BRANCH  16  20
ATOM     20  O5  UNL     1      21.529   8.215  36.214  0.00  0.00    -0.491 OA
ATOM     21  C24 UNL     1      21.320   9.536  35.720  0.00  0.00    +0.277 C 
ENDBRANCH  16  20
BRANCH  17  22
ATOM     22  O6  UNL     1      19.492   7.526  37.841  0.00  0.00    -0.488 OA
ATOM     23  C26 UNL     1      18.488   8.519  38.001  0.00  0.00    +0.277 C 
ENDBRANCH  17  22
ENDBRANCH   8  14
ENDBRANCH   1  10
BRANCH   7  24
ATOM     24  N2  UNL     1      19.881   1.010  33.537  0.00  0.00    -0.277 N 
ATOM     25  C13 UNL     1      18.513   1.388  33.756  0.00  0.00    +0.284 C 
ATOM     26  O3  UNL     1      17.942   2.188  32.964  0.00  0.00    -0.266 OA
ATOM     27  H12 UNL     1      20.452   0.714  34.360  0.00  0.00    +0.155 HD
BRANCH  25  28
ATOM     28  C14 UNL     1      17.749   0.843  34.889  0.00  0.00    +0.191 A 
ATOM     29  C15 UNL     1      17.643   1.413  36.159  0.00  0.00    +0.063 A 
ATOM     30  C16 UNL     1      16.843   0.536  36.856  0.00  0.00    +0.021 A 
ATOM     31  C17 UNL     1      16.379   0.575  38.170  0.00  0.00    +0.011 A 
ATOM     32  C18 UNL     1      15.565  -0.488  38.607  0.00  0.00    +0.001 A 
ATOM     33  C19 UNL     1      15.242  -1.551  37.729  0.00  0.00    +0.004 A 
ATOM     34  C20 UNL     1      15.727  -1.558  36.408  0.00  0.00    +0.047 A 
ATOM     35  C21 UNL     1      16.527  -0.489  36.004  0.00  0.00    +0.136 A 
ATOM     36  O4  UNL     1      17.073  -0.294  34.829  0.00  0.00    -0.450 OA
ENDBRANCH  25  28
ENDBRANCH   7  24
TORSDOF 7
ENDMDL
MODEL 5
REMARK VINA RESULT:    -6.624      7.708     10.816
REMARK INTER + INTRA:         -11.065
REMARK INTER:                  -9.460
REMARK INTRA:                  -1.605
REMARK UNBOUND:                -1.731
REMARK  Name = /home/qwerty/github/datacon2025hack/step_04_hit_selection/docking/ligands/lig_231.pdb
REMARK  11 active torsions:
REMARK  status: ('A' for Active; 'I' for Inactive)
REMARK    1  A    between atoms: C1_1  and  O1_2
REMARK    2  A    between atoms: O1_2  and  C2_3
REMARK    3  A    between atoms: C4_5  and  C5_6
REMARK    4  A    between atoms: N1_8  and  C6_9
REMARK    5  A    between atoms: C8_11  and  C9_12
REMARK    6  A    between atoms: C12_15  and  N2_16
REMARK    7  A    between atoms: C13_17  and  C14_19
REMARK    8  A    between atoms: C23_29  and  O5_30
REMARK    9  A    between atoms: O5_30  and  C24_31
REMARK   10  A    between atoms: C25_32  and  O6_33
REMARK   11  A    between atoms: O6_33  and  C26_34
REMARK                            x       y       z     vdW  Elec       q    Type
REMARK                         _______ _______ _______ _____ _____    ______ ____
ROOT
ATOM      1  C6  UNL     1      21.401   2.376  31.976  0.00  0.00    +0.055 A 
ATOM      2  C7  UNL     1      22.122   2.456  30.775  0.00  0.00    +0.028 A 
ATOM      3  C8  UNL     1      22.022   1.445  29.810  0.00  0.00    -0.049 A 
ATOM      4  C9  UNL     1      22.764   1.572  28.513  0.00  0.00    +0.044 C 
ATOM      5  C10 UNL     1      21.171   0.356  30.038  0.00  0.00    +0.005 A 
ATOM      6  C11 UNL     1      20.473   0.248  31.242  0.00  0.00    +0.025 A 
ATOM      7  C12 UNL     1      20.605   1.231  32.235  0.00  0.00    +0.055 A 
ENDROOT
BRANCH   1  10
ATOM      8  C5  UNL     1      20.538   4.544  32.927  0.00  0.00    +0.249 C 
ATOM      9  O2  UNL     1      19.893   4.805  31.874  0.00  0.00    -0.270 OA
ATOM     10  N1  UNL     1      21.491   3.467  32.910  0.00  0.00    -0.280 N 
ATOM     11  H5  UNL     1      22.346   3.508  33.515  0.00  0.00    +0.155 HD
BRANCH   8  14
ATOM     12  C2  UNL     1      20.959   6.660  36.085  0.00  0.00    +0.166 A 
ATOM     13  C3  UNL     1      21.249   5.974  34.891  0.00  0.00    +0.062 A 
ATOM     14  C4  UNL     1      20.241   5.312  34.168  0.00  0.00    +0.044 A 
ATOM     15  C22 UNL     1      18.926   5.350  34.655  0.00  0.00    +0.062 A 
ATOM     16  C23 UNL     1      18.615   6.030  35.846  0.00  0.00    +0.166 A 
ATOM     17  C25 UNL     1      19.626   6.683  36.566  0.00  0.00    +0.204 A 
BRANCH  12  19
ATOM     18  C1  UNL     1      23.228   6.741  37.160  0.00  0.00    +0.277 C 
ATOM     19  O1  UNL     1      21.974   7.314  36.807  0.00  0.00    -0.491 OA
ENDBRANCH  12  19
BRANCH  16  20
ATOM     20  O5  UNL     1      17.305   6.085  36.348  0.00  0.00    -0.491 OA
ATOM     21  C24 UNL     1      16.211   6.715  35.686  0.00  0.00    +0.277 C 
ENDBRANCH  16  20
BRANCH  17  22
ATOM     22  O6  UNL     1      19.240   7.327  37.758  0.00  0.00    -0.488 OA
ATOM     23  C26 UNL     1      18.889   8.697  37.900  0.00  0.00    +0.277 C 
ENDBRANCH  17  22
ENDBRANCH   8  14
ENDBRANCH   1  10
BRANCH   7  24
ATOM     24  N2  UNL     1      19.926   1.039  33.488  0.00  0.00    -0.277 N 
ATOM     25  C13 UNL     1      18.558   1.419  33.703  0.00  0.00    +0.284 C 
ATOM     26  O3  UNL     1      17.984   2.201  32.897  0.00  0.00    -0.266 OA
ATOM     27  H12 UNL     1      20.501   0.761  34.315  0.00  0.00    +0.155 HD
BRANCH  25  28
ATOM     28  C14 UNL     1      17.799   0.897  34.851  0.00  0.00    +0.191 A 
ATOM     29  C15 UNL     1      17.675   1.507  36.100  0.00  0.00    +0.063 A 
ATOM     30  C16 UNL     1      16.888   0.639  36.823  0.00  0.00    +0.021 A 
ATOM     31  C17 UNL     1      16.417   0.712  38.132  0.00  0.00    +0.011 A 
ATOM     32  C18 UNL     1      15.621  -0.352  38.600  0.00  0.00    +0.001 A 
ATOM     33  C19 UNL     1      15.323  -1.449  37.757  0.00  0.00    +0.004 A 
ATOM     34  C20 UNL     1      15.815  -1.491  36.439  0.00  0.00    +0.047 A 
ATOM     35  C21 UNL     1      16.597  -0.420  36.004  0.00  0.00    +0.136 A 
ATOM     36  O4  UNL     1      17.145  -0.254  34.825  0.00  0.00    -0.450 OA
ENDBRANCH  25  28
ENDBRANCH   7  24
TORSDOF 7
ENDMDL
MODEL 6
REMARK VINA RESULT:    -6.615      5.753      9.047
REMARK INTER + INTRA:         -11.053
REMARK INTER:                  -9.372
REMARK INTRA:                  -1.681
REMARK UNBOUND:                -1.731
REMARK  Name = /home/qwerty/github/datacon2025hack/step_04_hit_selection/docking/ligands/lig_231.pdb
REMARK  11 active torsions:
REMARK  status: ('A' for Active; 'I' for Inactive)
REMARK    1  A    between atoms: C1_1  and  O1_2
REMARK    2  A    between atoms: O1_2  and  C2_3
REMARK    3  A    between atoms: C4_5  and  C5_6
REMARK    4  A    between atoms: N1_8  and  C6_9
REMARK    5  A    between atoms: C8_11  and  C9_12
REMARK    6  A    between atoms: C12_15  and  N2_16
REMARK    7  A    between atoms: C13_17  and  C14_19
REMARK    8  A    between atoms: C23_29  and  O5_30
REMARK    9  A    between atoms: O5_30  and  C24_31
REMARK   10  A    between atoms: C25_32  and  O6_33
REMARK   11  A    between atoms: O6_33  and  C26_34
REMARK                            x       y       z     vdW  Elec       q    Type
REMARK                         _______ _______ _______ _____ _____    ______ ____
ROOT
ATOM      1  C6  UNL     1      10.924  13.796  30.243  0.00  0.00    +0.055 A 
ATOM      2  C7  UNL     1       9.673  13.413  29.735  0.00  0.00    +0.028 A 
ATOM      3  C8  UNL     1       9.398  13.504  28.364  0.00  0.00    -0.049 A 
ATOM      4  C9  UNL     1       8.071  13.044  27.834  0.00  0.00    +0.044 C 
ATOM      5  C10 UNL     1      10.393  13.958  27.489  0.00  0.00    +0.005 A 
ATOM      6  C11 UNL     1      11.630  14.374  27.986  0.00  0.00    +0.025 A 
ATOM      7  C12 UNL     1      11.897  14.333  29.362  0.00  0.00    +0.055 A 
ENDROOT
BRANCH   1  10
ATOM      8  C5  UNL     1      11.863  12.478  32.174  0.00  0.00    +0.249 C 
ATOM      9  O2  UNL     1      11.849  11.404  31.510  0.00  0.00    -0.270 OA
ATOM     10  N1  UNL     1      11.179  13.629  31.649  0.00  0.00    -0.280 N 
ATOM     11  H5  UNL     1      10.749  14.331  32.299  0.00  0.00    +0.155 HD
BRANCH   8  14
ATOM     12  C2  UNL     1      12.864  12.159  35.852  0.00  0.00    +0.166 A 
ATOM     13  C3  UNL     1      12.128  12.058  34.655  0.00  0.00    +0.062 A 
ATOM     14  C4  UNL     1      12.645  12.538  33.440  0.00  0.00    +0.044 A 
ATOM     15  C22 UNL     1      13.921  13.120  33.432  0.00  0.00    +0.062 A 
ATOM     16  C23 UNL     1      14.672  13.231  34.615  0.00  0.00    +0.166 A 
ATOM     17  C25 UNL     1      14.148  12.757  35.827  0.00  0.00    +0.204 A 
BRANCH  12  19
ATOM     18  C1  UNL     1      11.263  10.756  37.187  0.00  0.00    +0.277 C 
ATOM     19  O1  UNL     1      12.336  11.684  37.065  0.00  0.00    -0.491 OA
ENDBRANCH  12  19
BRANCH  16  20
ATOM     20  O5  UNL     1      15.953  13.806  34.630  0.00  0.00    -0.491 OA
ATOM     21  C24 UNL     1      17.114  13.209  34.056  0.00  0.00    +0.277 C 
ENDBRANCH  16  20
BRANCH  17  22
ATOM     22  O6  UNL     1      14.953  12.919  36.972  0.00  0.00    -0.488 OA
ATOM     23  C26 UNL     1      15.856  11.963  37.511  0.00  0.00    +0.277 C 
ENDBRANCH  17  22
ENDBRANCH   8  14
ENDBRANCH   1  10
BRANCH   7  24
ATOM     24  N2  UNL     1      13.157  14.842  29.834  0.00  0.00    -0.277 N 
ATOM     25  C13 UNL     1      14.382  14.097  29.751  0.00  0.00    +0.284 C 
ATOM     26  O3  UNL     1      14.355  12.856  29.529  0.00  0.00    -0.266 OA
ATOM     27  H12 UNL     1      13.146  15.719  30.402  0.00  0.00    +0.155 HD
BRANCH  25  28
ATOM     28  C14 UNL     1      15.685  14.764  29.907  0.00  0.00    +0.191 A 
ATOM     29  C15 UNL     1      16.089  15.939  29.272  0.00  0.00    +0.063 A 
ATOM     30  C16 UNL     1      17.370  16.147  29.729  0.00  0.00    +0.021 A 
ATOM     31  C17 UNL     1      18.281  17.165  29.453  0.00  0.00    +0.011 A 
ATOM     32  C18 UNL     1      19.540  17.102  30.081  0.00  0.00    +0.001 A 
ATOM     33  C19 UNL     1      19.852  16.034  30.956  0.00  0.00    +0.004 A 
ATOM     34  C20 UNL     1      18.908  15.022  31.213  0.00  0.00    +0.047 A 
ATOM     35  C21 UNL     1      17.669  15.115  30.579  0.00  0.00    +0.136 A 
ATOM     36  O4  UNL     1      16.652  14.294  30.681  0.00  0.00    -0.450 OA
ENDBRANCH  25  28
ENDBRANCH   7  24
TORSDOF 7
ENDMDL
MODEL 7
REMARK VINA RESULT:    -6.610      5.672      8.983
REMARK INTER + INTRA:         -11.046
REMARK INTER:                  -9.479
REMARK INTRA:                  -1.567
REMARK UNBOUND:                -1.731
REMARK  Name = /home/qwerty/github/datacon2025hack/step_04_hit_selection/docking/ligands/lig_231.pdb
REMARK  11 active torsions:
REMARK  status: ('A' for Active; 'I' for Inactive)
REMARK    1  A    between atoms: C1_1  and  O1_2
REMARK    2  A    between atoms: O1_2  and  C2_3
REMARK    3  A    between atoms: C4_5  and  C5_6
REMARK    4  A    between atoms: N1_8  and  C6_9
REMARK    5  A    between atoms: C8_11  and  C9_12
REMARK    6  A    between atoms: C12_15  and  N2_16
REMARK    7  A    between atoms: C13_17  and  C14_19
REMARK    8  A    between atoms: C23_29  and  O5_30
REMARK    9  A    between atoms: O5_30  and  C24_31
REMARK   10  A    between atoms: C25_32  and  O6_33
REMARK   11  A    between atoms: O6_33  and  C26_34
REMARK                            x       y       z     vdW  Elec       q    Type
REMARK                         _______ _______ _______ _____ _____    ______ ____
ROOT
ATOM      1  C6  UNL     1      11.099  13.812  30.392  0.00  0.00    +0.055 A 
ATOM      2  C7  UNL     1       9.842  13.480  29.863  0.00  0.00    +0.028 A 
ATOM      3  C8  UNL     1       9.582  13.619  28.493  0.00  0.00    -0.049 A 
ATOM      4  C9  UNL     1       8.247  13.214  27.940  0.00  0.00    +0.044 C 
ATOM      5  C10 UNL     1      10.597  14.069  27.640  0.00  0.00    +0.005 A 
ATOM      6  C11 UNL     1      11.842  14.434  28.158  0.00  0.00    +0.025 A 
ATOM      7  C12 UNL     1      12.095  14.345  29.535  0.00  0.00    +0.055 A 
ENDROOT
BRANCH   1  10
ATOM      8  C5  UNL     1      12.147  12.511  32.278  0.00  0.00    +0.249 C 
ATOM      9  O2  UNL     1      12.287  11.485  31.557  0.00  0.00    -0.270 OA
ATOM     10  N1  UNL     1      11.337  13.597  31.794  0.00  0.00    -0.280 N 
ATOM     11  H5  UNL     1      10.805  14.200  32.467  0.00  0.00    +0.155 HD
BRANCH   8  14
ATOM     12  C2  UNL     1      14.773  13.375  34.922  0.00  0.00    +0.166 A 
ATOM     13  C3  UNL     1      14.067  13.339  33.704  0.00  0.00    +0.062 A 
ATOM     14  C4  UNL     1      12.882  12.595  33.570  0.00  0.00    +0.044 A 
ATOM     15  C22 UNL     1      12.402  11.885  34.681  0.00  0.00    +0.062 A 
ATOM     16  C23 UNL     1      13.092  11.907  35.906  0.00  0.00    +0.166 A 
ATOM     17  C25 UNL     1      14.278  12.646  36.032  0.00  0.00    +0.204 A 
BRANCH  12  19
ATOM     18  C1  UNL     1      17.132  13.926  34.258  0.00  0.00    +0.277 C 
ATOM     19  O1  UNL     1      15.961  14.116  35.045  0.00  0.00    -0.491 OA
ENDBRANCH  12  19
BRANCH  16  20
ATOM     20  O5  UNL     1      12.627  11.208  37.032  0.00  0.00    -0.491 OA
ATOM     21  C24 UNL     1      11.299  11.289  37.543  0.00  0.00    +0.277 C 
ENDBRANCH  16  20
BRANCH  17  22
ATOM     22  O6  UNL     1      14.920  12.606  37.285  0.00  0.00    -0.488 OA
ATOM     23  C26 UNL     1      16.074  11.847  37.617  0.00  0.00    +0.277 C 
ENDBRANCH  17  22
ENDBRANCH   8  14
ENDBRANCH   1  10
BRANCH   7  24
ATOM     24  N2  UNL     1      13.365  14.803  30.031  0.00  0.00    -0.277 N 
ATOM     25  C13 UNL     1      14.591  14.081  29.829  0.00  0.00    +0.284 C 
ATOM     26  O3  UNL     1      14.562  12.874  29.462  0.00  0.00    -0.266 OA
ATOM     27  H12 UNL     1      13.366  15.606  30.699  0.00  0.00    +0.155 HD
BRANCH  25  28
ATOM     28  C14 UNL     1      15.895  14.733  30.030  0.00  0.00    +0.191 A 
ATOM     29  C15 UNL     1      16.294  15.957  29.491  0.00  0.00    +0.063 A 
ATOM     30  C16 UNL     1      17.579  16.127  29.953  0.00  0.00    +0.021 A 
ATOM     31  C17 UNL     1      18.488  17.164  29.756  0.00  0.00    +0.011 A 
ATOM     32  C18 UNL     1      19.752  17.050  30.367  0.00  0.00    +0.001 A 
ATOM     33  C19 UNL     1      20.070  15.913  31.148  0.00  0.00    +0.004 A 
ATOM     34  C20 UNL     1      19.128  14.883  31.327  0.00  0.00    +0.047 A 
ATOM     35  C21 UNL     1      17.884  15.028  30.713  0.00  0.00    +0.136 A 
ATOM     36  O4  UNL     1      16.867  14.201  30.754  0.00  0.00    -0.450 OA
ENDBRANCH  25  28
ENDBRANCH   7  24
TORSDOF 7
ENDMDL
MODEL 8
REMARK VINA RESULT:    -6.491     15.573     16.457
REMARK INTER + INTRA:         -10.878
REMARK INTER:                  -9.375
REMARK INTRA:                  -1.503
REMARK UNBOUND:                -1.731
REMARK  Name = /home/qwerty/github/datacon2025hack/step_04_hit_selection/docking/ligands/lig_231.pdb
REMARK  11 active torsions:
REMARK  status: ('A' for Active; 'I' for Inactive)
REMARK    1  A    between atoms: C1_1  and  O1_2
REMARK    2  A    between atoms: O1_2  and  C2_3
REMARK    3  A    between atoms: C4_5  and  C5_6
REMARK    4  A    between atoms: N1_8  and  C6_9
REMARK    5  A    between atoms: C8_11  and  C9_12
REMARK    6  A    between atoms: C12_15  and  N2_16
REMARK    7  A    between atoms: C13_17  and  C14_19
REMARK    8  A    between atoms: C23_29  and  O5_30
REMARK    9  A    between atoms: O5_30  and  C24_31
REMARK   10  A    between atoms: C25_32  and  O6_33
REMARK   11  A    between atoms: O6_33  and  C26_34
REMARK                            x       y       z     vdW  Elec       q    Type
REMARK                         _______ _______ _______ _____ _____    ______ ____
ROOT
ATOM      1  C6  UNL     1       9.358   7.888  22.459  0.00  0.00    +0.055 A 
ATOM      2  C7  UNL     1       8.576   9.053  22.426  0.00  0.00    +0.028 A 
ATOM      3  C8  UNL     1       8.806  10.044  21.462  0.00  0.00    -0.049 A 
ATOM      4  C9  UNL     1       7.929  11.260  21.414  0.00  0.00    +0.044 C 
ATOM      5  C10 UNL     1       9.812   9.855  20.505  0.00  0.00    +0.005 A 
ATOM      6  C11 UNL     1      10.618   8.716  20.547  0.00  0.00    +0.025 A 
ATOM      7  C12 UNL     1      10.427   7.742  21.539  0.00  0.00    +0.055 A 
ENDROOT
BRANCH   1  10
ATOM      8  C5  UNL     1       8.323   5.678  23.086  0.00  0.00    +0.249 C 
ATOM      9  O2  UNL     1       7.567   5.690  22.075  0.00  0.00    -0.270 OA
ATOM     10  N1  UNL     1       9.045   6.874  23.430  0.00  0.00    -0.280 N 
ATOM     11  H5  UNL     1       9.267   7.087  24.432  0.00  0.00    +0.155 HD
BRANCH   8  14
ATOM     12  C2  UNL     1       9.057   2.024  23.946  0.00  0.00    +0.166 A 
ATOM     13  C3  UNL     1       8.935   3.226  23.223  0.00  0.00    +0.062 A 
ATOM     14  C4  UNL     1       8.499   4.409  23.845  0.00  0.00    +0.044 A 
ATOM     15  C22 UNL     1       8.189   4.377  25.213  0.00  0.00    +0.062 A 
ATOM     16  C23 UNL     1       8.303   3.187  25.953  0.00  0.00    +0.166 A 
ATOM     17  C25 UNL     1       8.733   2.008  25.325  0.00  0.00    +0.204 A 
BRANCH  12  19
ATOM     18  C1  UNL     1      10.705   0.695  22.593  0.00  0.00    +0.277 C 
ATOM     19  O1  UNL     1       9.487   0.843  23.315  0.00  0.00    -0.491 OA
ENDBRANCH  12  19
BRANCH  16  20
ATOM     20  O5  UNL     1       8.003   3.134  27.323  0.00  0.00    -0.491 OA
ATOM     21  C24 UNL     1       7.332   4.164  28.045  0.00  0.00    +0.277 C 
ENDBRANCH  16  20
BRANCH  17  22
ATOM     22  O6  UNL     1       8.806   0.853  26.129  0.00  0.00    -0.488 OA
ATOM     23  C26 UNL     1       7.727  -0.004  26.473  0.00  0.00    +0.277 C 
ENDBRANCH  17  22
ENDBRANCH   8  14
ENDBRANCH   1  10
BRANCH   7  24
ATOM     24  N2  UNL     1      11.330   6.623  21.588  0.00  0.00    -0.277 N 
ATOM     25  C13 UNL     1      11.247   5.511  20.683  0.00  0.00    +0.284 C 
ATOM     26  O3  UNL     1      10.204   5.328  19.998  0.00  0.00    -0.266 OA
ATOM     27  H12 UNL     1      11.964   6.546  22.414  0.00  0.00    +0.155 HD
BRANCH  25  28
ATOM     28  C14 UNL     1      12.374   4.577  20.527  0.00  0.00    +0.191 A 
ATOM     29  C15 UNL     1      13.660   4.905  20.095  0.00  0.00    +0.063 A 
ATOM     30  C16 UNL     1      14.336   3.707  20.107  0.00  0.00    +0.021 A 
ATOM     31  C17 UNL     1      15.657   3.403  19.784  0.00  0.00    +0.011 A 
ATOM     32  C18 UNL     1      16.064   2.059  19.893  0.00  0.00    +0.001 A 
ATOM     33  C19 UNL     1      15.149   1.066  20.316  0.00  0.00    +0.004 A 
ATOM     34  C20 UNL     1      13.822   1.407  20.636  0.00  0.00    +0.047 A 
ATOM     35  C21 UNL     1      13.451   2.747  20.522  0.00  0.00    +0.136 A 
ATOM     36  O4  UNL     1      12.280   3.280  20.773  0.00  0.00    -0.450 OA
ENDBRANCH  25  28
ENDBRANCH   7  24
TORSDOF 7
ENDMDL
MODEL 9
REMARK VINA RESULT:    -6.474     13.933     16.228
REMARK INTER + INTRA:         -10.854
REMARK INTER:                  -9.219
REMARK INTRA:                  -1.636
REMARK UNBOUND:                -1.731
REMARK  Name = /home/qwerty/github/datacon2025hack/step_04_hit_selection/docking/ligands/lig_231.pdb
REMARK  11 active torsions:
REMARK  status: ('A' for Active; 'I' for Inactive)
REMARK    1  A    between atoms: C1_1  and  O1_2
REMARK    2  A    between atoms: O1_2  and  C2_3
REMARK    3  A    between atoms: C4_5  and  C5_6
REMARK    4  A    between atoms: N1_8  and  C6_9
REMARK    5  A    between atoms: C8_11  and  C9_12
REMARK    6  A    between atoms: C12_15  and  N2_16
REMARK    7  A    between atoms: C13_17  and  C14_19
REMARK    8  A    between atoms: C23_29  and  O5_30
REMARK    9  A    between atoms: O5_30  and  C24_31
REMARK   10  A    between atoms: C25_32  and  O6_33
REMARK   11  A    between atoms: O6_33  and  C26_34
REMARK                            x       y       z     vdW  Elec       q    Type
REMARK                         _______ _______ _______ _____ _____    ______ ____
ROOT
ATOM      1  C6  UNL     1       7.996  10.608  26.980  0.00  0.00    +0.055 A 
ATOM      2  C7  UNL     1       8.255  11.927  27.383  0.00  0.00    +0.028 A 
ATOM      3  C8  UNL     1       8.243  12.278  28.739  0.00  0.00    -0.049 A 
ATOM      4  C9  UNL     1       8.569  13.684  29.152  0.00  0.00    +0.044 C 
ATOM      5  C10 UNL     1       7.996  11.293  29.704  0.00  0.00    +0.005 A 
ATOM      6  C11 UNL     1       7.705   9.984  29.316  0.00  0.00    +0.025 A 
ATOM      7  C12 UNL     1       7.666   9.635  27.957  0.00  0.00    +0.055 A 
ENDROOT
BRANCH   1  10
ATOM      8  C5  UNL     1       9.317   9.921  24.948  0.00  0.00    +0.249 C 
ATOM      9  O2  UNL     1      10.402  10.308  25.462  0.00  0.00    -0.270 OA
ATOM     10  N1  UNL     1       8.077  10.284  25.581  0.00  0.00    -0.280 N 
ATOM     11  H5  UNL     1       7.212  10.429  25.006  0.00  0.00    +0.155 HD
BRANCH   8  14
ATOM     12  C2  UNL     1       8.658   7.033  22.528  0.00  0.00    +0.166 A 
ATOM     13  C3  UNL     1       8.578   7.875  23.653  0.00  0.00    +0.062 A 
ATOM     14  C4  UNL     1       9.357   9.042  23.746  0.00  0.00    +0.044 A 
ATOM     15  C22 UNL     1      10.219   9.364  22.687  0.00  0.00    +0.062 A 
ATOM     16  C23 UNL     1      10.314   8.536  21.555  0.00  0.00    +0.166 A 
ATOM     17  C25 UNL     1       9.540   7.369  21.471  0.00  0.00    +0.204 A 
BRANCH  12  19
ATOM     18  C1  UNL     1       8.195   4.625  23.074  0.00  0.00    +0.277 C 
ATOM     19  O1  UNL     1       7.882   5.863  22.445  0.00  0.00    -0.491 OA
ENDBRANCH  12  19
BRANCH  16  20
ATOM     20  O5  UNL     1      11.167   8.842  20.482  0.00  0.00    -0.491 OA
ATOM     21  C24 UNL     1      11.010   9.966  19.619  0.00  0.00    +0.277 C 
ENDBRANCH  16  20
BRANCH  17  22
ATOM     22  O6  UNL     1       9.703   6.583  20.313  0.00  0.00    -0.488 OA
ATOM     23  C26 UNL     1      10.521   5.428  20.186  0.00  0.00    +0.277 C 
ENDBRANCH  17  22
ENDBRANCH   8  14
ENDBRANCH   1  10
BRANCH   7  24
ATOM     24  N2  UNL     1       7.287   8.293  27.603  0.00  0.00    -0.277 N 
ATOM     25  C13 UNL     1       8.225   7.208  27.535  0.00  0.00    +0.284 C 
ATOM     26  O3  UNL     1       9.464   7.443  27.498  0.00  0.00    -0.266 OA
ATOM     27  H12 UNL     1       6.325   8.143  27.227  0.00  0.00    +0.155 HD
BRANCH  25  28
ATOM     28  C14 UNL     1       7.765   5.810  27.522  0.00  0.00    +0.191 A 
ATOM     29  C15 UNL     1       6.867   5.232  28.420  0.00  0.00    +0.063 A 
ATOM     30  C16 UNL     1       6.767   3.924  28.002  0.00  0.00    +0.021 A 
ATOM     31  C17 UNL     1       6.014   2.863  28.502  0.00  0.00    +0.011 A 
ATOM     32  C18 UNL     1       6.126   1.619  27.853  0.00  0.00    +0.001 A 
ATOM     33  C19 UNL     1       6.981   1.469  26.734  0.00  0.00    +0.004 A 
ATOM     34  C20 UNL     1       7.727   2.562  26.254  0.00  0.00    +0.047 A 
ATOM     35  C21 UNL     1       7.591   3.782  26.917  0.00  0.00    +0.136 A 
ATOM     36  O4  UNL     1       8.182   4.918  26.637  0.00  0.00    -0.450 OA
ENDBRANCH  25  28
ENDBRANCH   7  24
TORSDOF 7
ENDMDL
