MODEL 1
REMARK VINA RESULT:    -6.040      0.000      0.000
REMARK INTER + INTRA:          -9.380
REMARK INTER:                  -8.511
REMARK INTRA:                  -0.868
REMARK UNBOUND:                -0.868
REMARK  Name = /home/qwerty/github/datacon2025hack/step_04_hit_selection/docking/ligands/lig_357.pdb
REMARK  9 active torsions:
REMARK  status: ('A' for Active; 'I' for Inactive)
REMARK    1  A    between atoms: C1_1  and  C2_2
REMARK    2  A    between atoms: C2_2  and  C3_3
REMARK    3  A    between atoms: C2_2  and  N1_10
REMARK    4  A    between atoms: N1_10  and  C9_11
REMARK    5  A    between atoms: C10_12  and  C11_14
REMARK    6  A    between atoms: C11_14  and  S1_15
REMARK    7  A    between atoms: S1_15  and  C12_17
REMARK    8  A    between atoms: C12_17  and  C13_18
REMARK    9  A    between atoms: C15_21  and  C16_22
REMARK                            x       y       z     vdW  Elec       q    Type
REMARK                         _______ _______ _______ _____ _____    ______ ____
ROOT
ATOM      1  C11 UNL     1       8.315   6.796  22.100  0.00  0.00    +0.199 C 
ENDROOT
BRANCH   1   4
ATOM      2  N1  UNL     1       8.087   9.214  23.002  0.00  0.00    -0.297 N 
ATOM      3  C9  UNL     1       7.575   9.896  24.198  0.00  0.00    +0.132 C 
ATOM      4  C10 UNL     1       8.519   7.843  23.161  0.00  0.00    +0.228 C 
ATOM      5  O1  UNL     1       9.034   7.483  24.255  0.00  0.00    -0.275 OA
BRANCH   2   7
ATOM      6  C1  UNL     1       7.502  11.313  21.790  0.00  0.00    +0.033 C 
ATOM      7  C2  UNL     1       8.287   9.990  21.757  0.00  0.00    +0.103 C 
BRANCH   7   8
ATOM      8  C3  UNL     1       9.766  10.106  21.409  0.00  0.00    -0.027 A 
ATOM      9  C4  UNL     1      10.145  10.013  20.056  0.00  0.00    +0.008 A 
ATOM     10  C5  UNL     1      11.486  10.127  19.680  0.00  0.00    +0.038 A 
ATOM     11  C6  UNL     1      12.468  10.344  20.648  0.00  0.00    +0.123 A 
ATOM     12  F1  UNL     1      13.770  10.450  20.282  0.00  0.00    -0.205 F 
ATOM     13  C7  UNL     1      12.109  10.455  21.992  0.00  0.00    +0.038 A 
ATOM     14  C8  UNL     1      10.768  10.345  22.374  0.00  0.00    +0.008 A 
ENDBRANCH   7   8
ENDBRANCH   2   7
ENDBRANCH   1   4
BRANCH   1  15
ATOM     15  S1  UNL     1       9.163   5.251  22.515  0.00  0.00    +0.037 S 
ATOM     16  O2  UNL     1       8.121   4.413  23.246  0.00  0.00    -0.256 OA
BRANCH  15  17
ATOM     17  C12 UNL     1       9.401   4.399  20.945  0.00  0.00    +0.162 C 
BRANCH  17  18
ATOM     18  C13 UNL     1      10.846   4.404  20.572  0.00  0.00    +0.092 A 
ATOM     19  C14 UNL     1      11.558   5.485  20.105  0.00  0.00    +0.221 A 
ATOM     20  O3  UNL     1      12.799   5.095  19.949  0.00  0.00    -0.443 OA
ATOM     21  C15 UNL     1      12.858   3.832  20.312  0.00  0.00    +0.234 A 
ATOM     22  N2  UNL     1      11.666   3.347  20.719  0.00  0.00    -0.213 NA
BRANCH  21  23
ATOM     23  C16 UNL     1      14.088   3.035  20.282  0.00  0.00    +0.074 A 
ATOM     24  C17 UNL     1      15.370   3.527  20.078  0.00  0.00    +0.021 A 
ATOM     25  C18 UNL     1      16.352   2.528  20.102  0.00  0.00    +0.008 A 
ATOM     26  C19 UNL     1      15.846   1.254  20.324  0.00  0.00    +0.046 A 
ATOM     27  S2  UNL     1      14.176   1.369  20.491  0.00  0.00    -0.092 S 
ENDBRANCH  21  23
ENDBRANCH  17  18
ENDBRANCH  15  17
ENDBRANCH   1  15
TORSDOF 7
ENDMDL
MODEL 2
REMARK VINA RESULT:    -6.003     14.987     16.507
REMARK INTER + INTRA:          -9.328
REMARK INTER:                  -8.440
REMARK INTRA:                  -0.887
REMARK UNBOUND:                -0.868
REMARK  Name = /home/qwerty/github/datacon2025hack/step_04_hit_selection/docking/ligands/lig_357.pdb
REMARK  9 active torsions:
REMARK  status: ('A' for Active; 'I' for Inactive)
REMARK    1  A    between atoms: C1_1  and  C2_2
REMARK    2  A    between atoms: C2_2  and  C3_3
REMARK    3  A    between atoms: C2_2  and  N1_10
REMARK    4  A    between atoms: N1_10  and  C9_11
REMARK    5  A    between atoms: C10_12  and  C11_14
REMARK    6  A    between atoms: C11_14  and  S1_15
REMARK    7  A    between atoms: S1_15  and  C12_17
REMARK    8  A    between atoms: C12_17  and  C13_18
REMARK    9  A    between atoms: C15_21  and  C16_22
REMARK                            x       y       z     vdW  Elec       q    Type
REMARK                         _______ _______ _______ _____ _____    ______ ____
ROOT
ATOM      1  C11 UNL     1      14.216  14.518  35.646  0.00  0.00    +0.199 C 
ENDROOT
BRANCH   1   4
ATOM      2  N1  UNL     1      11.910  14.206  34.507  0.00  0.00    -0.297 N 
ATOM      3  C9  UNL     1      11.264  14.533  33.229  0.00  0.00    +0.132 C 
ATOM      4  C10 UNL     1      13.350  14.071  34.500  0.00  0.00    +0.228 C 
ATOM      5  O1  UNL     1      13.921  13.618  33.470  0.00  0.00    -0.275 OA
BRANCH   2   7
ATOM      6  C1  UNL     1       9.662  14.486  35.548  0.00  0.00    +0.033 C 
ATOM      7  C2  UNL     1      11.069  13.875  35.679  0.00  0.00    +0.103 C 
BRANCH   7   8
ATOM      8  C3  UNL     1      11.117  12.385  35.992  0.00  0.00    -0.027 A 
ATOM      9  C4  UNL     1      11.034  11.980  37.338  0.00  0.00    +0.008 A 
ATOM     10  C5  UNL     1      11.058  10.625  37.680  0.00  0.00    +0.038 A 
ATOM     11  C6  UNL     1      11.158   9.653  36.682  0.00  0.00    +0.123 A 
ATOM     12  F1  UNL     1      11.187   8.339  37.015  0.00  0.00    -0.205 F 
ATOM     13  C7  UNL     1      11.226  10.036  35.341  0.00  0.00    +0.038 A 
ATOM     14  C8  UNL     1      11.197  11.390  34.994  0.00  0.00    +0.008 A 
ENDBRANCH   7   8
ENDBRANCH   2   7
ENDBRANCH   1   4
BRANCH   1  15
ATOM     15  S1  UNL     1      14.681  13.130  36.712  0.00  0.00    +0.037 S 
ATOM     16  O2  UNL     1      14.577  11.897  35.822  0.00  0.00    -0.256 OA
BRANCH  15  17
ATOM     17  C12 UNL     1      16.449  13.322  37.004  0.00  0.00    +0.162 C 
BRANCH  17  18
ATOM     18  C13 UNL     1      17.177  12.092  36.573  0.00  0.00    +0.092 A 
ATOM     19  C14 UNL     1      17.852  11.924  35.385  0.00  0.00    +0.221 A 
ATOM     20  O3  UNL     1      18.397  10.734  35.413  0.00  0.00    -0.443 OA
ATOM     21  C15 UNL     1      18.083  10.190  36.569  0.00  0.00    +0.234 A 
ATOM     22  N2  UNL     1      17.326  10.997  37.341  0.00  0.00    -0.213 NA
BRANCH  21  23
ATOM     23  C16 UNL     1      18.514   8.849  36.979  0.00  0.00    +0.074 A 
ATOM     24  C17 UNL     1      17.700   7.869  37.532  0.00  0.00    +0.021 A 
ATOM     25  C18 UNL     1      18.389   6.685  37.826  0.00  0.00    +0.008 A 
ATOM     26  C19 UNL     1      19.740   6.732  37.506  0.00  0.00    +0.046 A 
ATOM     27  S2  UNL     1      20.078   8.247  36.858  0.00  0.00    -0.092 S 
ENDBRANCH  21  23
ENDBRANCH  17  18
ENDBRANCH  15  17
ENDBRANCH   1  15
TORSDOF 7
ENDMDL
MODEL 3
REMARK VINA RESULT:    -5.798     10.278     12.763
REMARK INTER + INTRA:          -9.039
REMARK INTER:                  -7.489
REMARK INTRA:                  -1.550
REMARK UNBOUND:                -0.868
REMARK  Name = /home/qwerty/github/datacon2025hack/step_04_hit_selection/docking/ligands/lig_357.pdb
REMARK  9 active torsions:
REMARK  status: ('A' for Active; 'I' for Inactive)
REMARK    1  A    between atoms: C1_1  and  C2_2
REMARK    2  A    between atoms: C2_2  and  C3_3
REMARK    3  A    between atoms: C2_2  and  N1_10
REMARK    4  A    between atoms: N1_10  and  C9_11
REMARK    5  A    between atoms: C10_12  and  C11_14
REMARK    6  A    between atoms: C11_14  and  S1_15
REMARK    7  A    between atoms: S1_15  and  C12_17
REMARK    8  A    between atoms: C12_17  and  C13_18
REMARK    9  A    between atoms: C15_21  and  C16_22
REMARK                            x       y       z     vdW  Elec       q    Type
REMARK                         _______ _______ _______ _____ _____    ______ ____
ROOT
ATOM      1  C11 UNL     1      21.422   8.650  19.521  0.00  0.00    +0.199 C 
ENDROOT
BRANCH   1   4
ATOM      2  N1  UNL     1      19.055   8.982  20.521  0.00  0.00    -0.297 N 
ATOM      3  C9  UNL     1      18.151   8.296  21.454  0.00  0.00    +0.132 C 
ATOM      4  C10 UNL     1      20.472   8.744  20.684  0.00  0.00    +0.228 C 
ATOM      5  O1  UNL     1      20.934   8.543  21.841  0.00  0.00    -0.275 OA
BRANCH   2   7
ATOM      6  C1  UNL     1      16.969   9.892  19.504  0.00  0.00    +0.033 C 
ATOM      7  C2  UNL     1      18.502   9.989  19.588  0.00  0.00    +0.103 C 
BRANCH   7   8
ATOM      8  C3  UNL     1      19.064  11.377  19.874  0.00  0.00    -0.027 A 
ATOM      9  C4  UNL     1      19.608  12.113  18.804  0.00  0.00    +0.008 A 
ATOM     10  C5  UNL     1      20.122  13.397  19.009  0.00  0.00    +0.038 A 
ATOM     11  C6  UNL     1      20.095  13.967  20.283  0.00  0.00    +0.123 A 
ATOM     12  F1  UNL     1      20.599  15.210  20.481  0.00  0.00    -0.205 F 
ATOM     13  C7  UNL     1      19.545  13.257  21.352  0.00  0.00    +0.038 A 
ATOM     14  C8  UNL     1      19.025  11.975  21.152  0.00  0.00    +0.008 A 
ENDBRANCH   7   8
ENDBRANCH   2   7
ENDBRANCH   1   4
BRANCH   1  15
ATOM     15  S1  UNL     1      23.077   9.238  19.961  0.00  0.00    +0.037 S 
ATOM     16  O2  UNL     1      24.026   8.165  19.441  0.00  0.00    -0.256 OA
BRANCH  15  17
ATOM     17  C12 UNL     1      23.380  10.658  18.893  0.00  0.00    +0.162 C 
BRANCH  17  18
ATOM     18  C13 UNL     1      23.521  11.896  19.715  0.00  0.00    +0.092 A 
ATOM     19  C14 UNL     1      23.646  13.179  19.233  0.00  0.00    +0.221 A 
ATOM     20  O3  UNL     1      23.688  13.981  20.268  0.00  0.00    -0.443 OA
ATOM     21  C15 UNL     1      23.584  13.232  21.344  0.00  0.00    +0.234 A 
ATOM     22  N2  UNL     1      23.469  11.917  21.060  0.00  0.00    -0.213 NA
BRANCH  21  23
ATOM     23  C16 UNL     1      23.587  13.767  22.709  0.00  0.00    +0.074 A 
ATOM     24  C17 UNL     1      24.587  14.549  23.272  0.00  0.00    +0.021 A 
ATOM     25  C18 UNL     1      24.318  14.914  24.598  0.00  0.00    +0.008 A 
ATOM     26  C19 UNL     1      23.111  14.422  25.077  0.00  0.00    +0.046 A 
ATOM     27  S2  UNL     1      22.378  13.531  23.853  0.00  0.00    -0.092 S 
ENDBRANCH  21  23
ENDBRANCH  17  18
ENDBRANCH  15  17
ENDBRANCH   1  15
TORSDOF 7
ENDMDL
MODEL 4
REMARK VINA RESULT:    -5.775     13.812     16.866
REMARK INTER + INTRA:          -9.007
REMARK INTER:                  -8.232
REMARK INTRA:                  -0.775
REMARK UNBOUND:                -0.868
REMARK  Name = /home/qwerty/github/datacon2025hack/step_04_hit_selection/docking/ligands/lig_357.pdb
REMARK  9 active torsions:
REMARK  status: ('A' for Active; 'I' for Inactive)
REMARK    1  A    between atoms: C1_1  and  C2_2
REMARK    2  A    between atoms: C2_2  and  C3_3
REMARK    3  A    between atoms: C2_2  and  N1_10
REMARK    4  A    between atoms: N1_10  and  C9_11
REMARK    5  A    between atoms: C10_12  and  C11_14
REMARK    6  A    between atoms: C11_14  and  S1_15
REMARK    7  A    between atoms: S1_15  and  C12_17
REMARK    8  A    between atoms: C12_17  and  C13_18
REMARK    9  A    between atoms: C15_21  and  C16_22
REMARK                            x       y       z     vdW  Elec       q    Type
REMARK                         _______ _______ _______ _____ _____    ______ ____
ROOT
ATOM      1  C11 UNL     1      21.642   3.961  30.931  0.00  0.00    +0.199 C 
ENDROOT
BRANCH   1   4
ATOM      2  N1  UNL     1      21.360   1.520  30.110  0.00  0.00    -0.297 N 
ATOM      3  C9  UNL     1      20.679   0.290  30.537  0.00  0.00    +0.132 C 
ATOM      4  C10 UNL     1      20.797   2.773  30.561  0.00  0.00    +0.228 C 
ATOM      5  O1  UNL     1      19.547   2.867  30.713  0.00  0.00    -0.275 OA
BRANCH   2   7
ATOM      6  C1  UNL     1      23.199   0.083  29.233  0.00  0.00    +0.033 C 
ATOM      7  C2  UNL     1      22.465   1.431  29.130  0.00  0.00    +0.103 C 
BRANCH   7   8
ATOM      8  C3  UNL     1      21.999   1.826  27.733  0.00  0.00    -0.027 A 
ATOM      9  C4  UNL     1      22.593   2.945  27.120  0.00  0.00    +0.008 A 
ATOM     10  C5  UNL     1      22.214   3.341  25.834  0.00  0.00    +0.038 A 
ATOM     11  C6  UNL     1      21.240   2.622  25.139  0.00  0.00    +0.123 A 
ATOM     12  F1  UNL     1      20.868   3.011  23.894  0.00  0.00    -0.205 F 
ATOM     13  C7  UNL     1      20.651   1.500  25.726  0.00  0.00    +0.038 A 
ATOM     14  C8  UNL     1      21.030   1.097  27.010  0.00  0.00    +0.008 A 
ENDBRANCH   7   8
ENDBRANCH   2   7
ENDBRANCH   1   4
BRANCH   1  15
ATOM     15  S1  UNL     1      21.609   4.276  32.713  0.00  0.00    +0.037 S 
ATOM     16  O2  UNL     1      21.953   2.938  33.356  0.00  0.00    -0.256 OA
BRANCH  15  17
ATOM     17  C12 UNL     1      23.046   5.312  33.043  0.00  0.00    +0.162 C 
BRANCH  17  18
ATOM     18  C13 UNL     1      22.770   6.220  34.195  0.00  0.00    +0.092 A 
ATOM     19  C14 UNL     1      23.643   6.527  35.213  0.00  0.00    +0.221 A 
ATOM     20  O3  UNL     1      23.046   7.395  35.990  0.00  0.00    -0.443 OA
ATOM     21  C15 UNL     1      21.857   7.625  35.475  0.00  0.00    +0.234 A 
ATOM     22  N2  UNL     1      21.631   6.922  34.345  0.00  0.00    -0.213 NA
BRANCH  21  23
ATOM     23  C16 UNL     1      20.882   8.550  36.061  0.00  0.00    +0.074 A 
ATOM     24  C17 UNL     1      20.663   9.861  35.659  0.00  0.00    +0.021 A 
ATOM     25  C18 UNL     1      19.667  10.504  36.405  0.00  0.00    +0.008 A 
ATOM     26  C19 UNL     1      19.102   9.703  37.389  0.00  0.00    +0.046 A 
ATOM     27  S2  UNL     1      19.843   8.194  37.333  0.00  0.00    -0.092 S 
ENDBRANCH  21  23
ENDBRANCH  17  18
ENDBRANCH  15  17
ENDBRANCH   1  15
TORSDOF 7
ENDMDL
MODEL 5
REMARK VINA RESULT:    -5.762     10.472     13.521
REMARK INTER + INTRA:          -8.988
REMARK INTER:                  -8.300
REMARK INTRA:                  -0.688
REMARK UNBOUND:                -0.868
REMARK  Name = /home/qwerty/github/datacon2025hack/step_04_hit_selection/docking/ligands/lig_357.pdb
REMARK  9 active torsions:
REMARK  status: ('A' for Active; 'I' for Inactive)
REMARK    1  A    between atoms: C1_1  and  C2_2
REMARK    2  A    between atoms: C2_2  and  C3_3
REMARK    3  A    between atoms: C2_2  and  N1_10
REMARK    4  A    between atoms: N1_10  and  C9_11
REMARK    5  A    between atoms: C10_12  and  C11_14
REMARK    6  A    between atoms: C11_14  and  S1_15
REMARK    7  A    between atoms: S1_15  and  C12_17
REMARK    8  A    between atoms: C12_17  and  C13_18
REMARK    9  A    between atoms: C15_21  and  C16_22
REMARK                            x       y       z     vdW  Elec       q    Type
REMARK                         _______ _______ _______ _____ _____    ______ ____
ROOT
ATOM      1  C11 UNL     1      11.368  12.255  30.900  0.00  0.00    +0.199 C 
ENDROOT
BRANCH   1   4
ATOM      2  N1  UNL     1       9.899  13.071  28.927  0.00  0.00    -0.297 N 
ATOM      3  C9  UNL     1      10.014  13.972  27.773  0.00  0.00    +0.132 C 
ATOM      4  C10 UNL     1      11.125  12.494  29.435  0.00  0.00    +0.228 C 
ATOM      5  O1  UNL     1      12.061  12.232  28.630  0.00  0.00    -0.275 OA
BRANCH   2   7
ATOM      6  C1  UNL     1       7.551  13.832  29.277  0.00  0.00    +0.033 C 
ATOM      7  C2  UNL     1       8.556  12.673  29.404  0.00  0.00    +0.103 C 
BRANCH   7   8
ATOM      8  C3  UNL     1       8.120  11.348  28.789  0.00  0.00    -0.027 A 
ATOM      9  C4  UNL     1       7.494  10.399  29.619  0.00  0.00    +0.008 A 
ATOM     10  C5  UNL     1       7.061   9.174  29.104  0.00  0.00    +0.038 A 
ATOM     11  C6  UNL     1       7.240   8.882  27.750  0.00  0.00    +0.123 A 
ATOM     12  F1  UNL     1       6.824   7.691  27.252  0.00  0.00    -0.205 F 
ATOM     13  C7  UNL     1       7.844   9.818  26.909  0.00  0.00    +0.038 A 
ATOM     14  C8  UNL     1       8.275  11.047  27.419  0.00  0.00    +0.008 A 
ENDBRANCH   7   8
ENDBRANCH   2   7
ENDBRANCH   1   4
BRANCH   1  15
ATOM     15  S1  UNL     1      12.291  13.617  31.655  0.00  0.00    +0.037 S 
ATOM     16  O2  UNL     1      12.205  14.757  30.647  0.00  0.00    -0.256 OA
BRANCH  15  17
ATOM     17  C12 UNL     1      11.280  14.170  33.041  0.00  0.00    +0.162 C 
BRANCH  17  18
ATOM     18  C13 UNL     1      11.899  13.739  34.330  0.00  0.00    +0.092 A 
ATOM     19  C14 UNL     1      11.311  13.803  35.573  0.00  0.00    +0.221 A 
ATOM     20  O3  UNL     1      12.154  13.281  36.428  0.00  0.00    -0.443 OA
ATOM     21  C15 UNL     1      13.214  12.902  35.748  0.00  0.00    +0.234 A 
ATOM     22  N2  UNL     1      13.108  13.157  34.427  0.00  0.00    -0.213 NA
BRANCH  21  23
ATOM     23  C16 UNL     1      14.385  12.265  36.358  0.00  0.00    +0.074 A 
ATOM     24  C17 UNL     1      14.463  10.945  36.782  0.00  0.00    +0.021 A 
ATOM     25  C18 UNL     1      15.711  10.616  37.327  0.00  0.00    +0.008 A 
ATOM     26  C19 UNL     1      16.613  11.672  37.332  0.00  0.00    +0.046 A 
ATOM     27  S2  UNL     1      15.858  13.016  36.659  0.00  0.00    -0.092 S 
ENDBRANCH  21  23
ENDBRANCH  17  18
ENDBRANCH  15  17
ENDBRANCH   1  15
TORSDOF 7
ENDMDL
MODEL 6
REMARK VINA RESULT:    -5.640      9.958     13.003
REMARK INTER + INTRA:          -8.816
REMARK INTER:                  -7.915
REMARK INTRA:                  -0.901
REMARK UNBOUND:                -0.868
REMARK  Name = /home/qwerty/github/datacon2025hack/step_04_hit_selection/docking/ligands/lig_357.pdb
REMARK  9 active torsions:
REMARK  status: ('A' for Active; 'I' for Inactive)
REMARK    1  A    between atoms: C1_1  and  C2_2
REMARK    2  A    between atoms: C2_2  and  C3_3
REMARK    3  A    between atoms: C2_2  and  N1_10
REMARK    4  A    between atoms: N1_10  and  C9_11
REMARK    5  A    between atoms: C10_12  and  C11_14
REMARK    6  A    between atoms: C11_14  and  S1_15
REMARK    7  A    between atoms: S1_15  and  C12_17
REMARK    8  A    between atoms: C12_17  and  C13_18
REMARK    9  A    between atoms: C15_21  and  C16_22
REMARK                            x       y       z     vdW  Elec       q    Type
REMARK                         _______ _______ _______ _____ _____    ______ ____
ROOT
ATOM      1  C11 UNL     1      11.537  14.178  30.275  0.00  0.00    +0.199 C 
ENDROOT
BRANCH   1   4
ATOM      2  N1  UNL     1      12.493  13.157  32.455  0.00  0.00    -0.297 N 
ATOM      3  C9  UNL     1      13.763  13.136  33.193  0.00  0.00    +0.132 C 
ATOM      4  C10 UNL     1      12.252  14.293  31.593  0.00  0.00    +0.228 C 
ATOM      5  O1  UNL     1      12.711  15.422  31.920  0.00  0.00    -0.275 OA
BRANCH   2   7
ATOM      6  C1  UNL     1      11.690  10.866  31.890  0.00  0.00    +0.033 C 
ATOM      7  C2  UNL     1      11.471  12.126  32.745  0.00  0.00    +0.103 C 
BRANCH   7   8
ATOM      8  C3  UNL     1      11.330  11.893  34.244  0.00  0.00    -0.027 A 
ATOM      9  C4  UNL     1      10.948  12.977  35.058  0.00  0.00    +0.008 A 
ATOM     10  C5  UNL     1      10.789  12.815  36.437  0.00  0.00    +0.038 A 
ATOM     11  C6  UNL     1      11.001  11.566  37.024  0.00  0.00    +0.123 A 
ATOM     12  F1  UNL     1      10.852  11.410  38.362  0.00  0.00    -0.205 F 
ATOM     13  C7  UNL     1      11.365  10.476  36.230  0.00  0.00    +0.038 A 
ATOM     14  C8  UNL     1      11.521  10.632  34.849  0.00  0.00    +0.008 A 
ENDBRANCH   7   8
ENDBRANCH   2   7
ENDBRANCH   1   4
BRANCH   1  15
ATOM     15  S1  UNL     1      12.698  13.991  28.898  0.00  0.00    +0.037 S 
ATOM     16  O2  UNL     1      13.428  12.682  29.174  0.00  0.00    -0.256 OA
BRANCH  15  17
ATOM     17  C12 UNL     1      11.676  13.637  27.455  0.00  0.00    +0.162 C 
BRANCH  17  18
ATOM     18  C13 UNL     1      10.413  12.963  27.875  0.00  0.00    +0.092 A 
ATOM     19  C14 UNL     1       9.144  13.488  27.785  0.00  0.00    +0.221 A 
ATOM     20  O3  UNL     1       8.311  12.568  28.201  0.00  0.00    -0.443 OA
ATOM     21  C15 UNL     1       9.027  11.514  28.527  0.00  0.00    +0.234 A 
ATOM     22  N2  UNL     1      10.351  11.700  28.337  0.00  0.00    -0.213 NA
BRANCH  21  23
ATOM     23  C16 UNL     1       8.451  10.267  29.039  0.00  0.00    +0.074 A 
ATOM     24  C17 UNL     1       7.207  10.133  29.639  0.00  0.00    +0.021 A 
ATOM     25  C18 UNL     1       6.923   8.818  30.030  0.00  0.00    +0.008 A 
ATOM     26  C19 UNL     1       7.941   7.919  29.739  0.00  0.00    +0.046 A 
ATOM     27  S2  UNL     1       9.194   8.759  28.995  0.00  0.00    -0.092 S 
ENDBRANCH  21  23
ENDBRANCH  17  18
ENDBRANCH  15  17
ENDBRANCH   1  15
TORSDOF 7
ENDMDL
MODEL 7
REMARK VINA RESULT:    -5.571     14.117     16.904
REMARK INTER + INTRA:          -8.720
REMARK INTER:                  -7.224
REMARK INTRA:                  -1.496
REMARK UNBOUND:                -0.868
REMARK  Name = /home/qwerty/github/datacon2025hack/step_04_hit_selection/docking/ligands/lig_357.pdb
REMARK  9 active torsions:
REMARK  status: ('A' for Active; 'I' for Inactive)
REMARK    1  A    between atoms: C1_1  and  C2_2
REMARK    2  A    between atoms: C2_2  and  C3_3
REMARK    3  A    between atoms: C2_2  and  N1_10
REMARK    4  A    between atoms: N1_10  and  C9_11
REMARK    5  A    between atoms: C10_12  and  C11_14
REMARK    6  A    between atoms: C11_14  and  S1_15
REMARK    7  A    between atoms: S1_15  and  C12_17
REMARK    8  A    between atoms: C12_17  and  C13_18
REMARK    9  A    between atoms: C15_21  and  C16_22
REMARK                            x       y       z     vdW  Elec       q    Type
REMARK                         _______ _______ _______ _____ _____    ______ ____
ROOT
ATOM      1  C11 UNL     1      16.968  10.105  35.499  0.00  0.00    +0.199 C 
ENDROOT
BRANCH   1   4
ATOM      2  N1  UNL     1      15.066   8.377  35.819  0.00  0.00    -0.297 N 
ATOM      3  C9  UNL     1      14.911   6.983  36.256  0.00  0.00    +0.132 C 
ATOM      4  C10 UNL     1      16.211   9.100  36.323  0.00  0.00    +0.228 C 
ATOM      5  O1  UNL     1      16.642   8.841  37.481  0.00  0.00    -0.275 OA
BRANCH   2   7
ATOM      6  C1  UNL     1      13.389   8.036  34.006  0.00  0.00    +0.033 C 
ATOM      7  C2  UNL     1      13.983   9.013  35.035  0.00  0.00    +0.103 C 
BRANCH   7   8
ATOM      8  C3  UNL     1      12.978   9.710  35.944  0.00  0.00    -0.027 A 
ATOM      9  C4  UNL     1      13.288  10.997  36.423  0.00  0.00    +0.008 A 
ATOM     10  C5  UNL     1      12.394  11.687  37.248  0.00  0.00    +0.038 A 
ATOM     11  C6  UNL     1      11.175  11.106  37.599  0.00  0.00    +0.123 A 
ATOM     12  F1  UNL     1      10.312  11.774  38.403  0.00  0.00    -0.205 F 
ATOM     13  C7  UNL     1      10.844   9.837  37.120  0.00  0.00    +0.038 A 
ATOM     14  C8  UNL     1      11.732   9.144  36.292  0.00  0.00    +0.008 A 
ENDBRANCH   7   8
ENDBRANCH   2   7
ENDBRANCH   1   4
BRANCH   1  15
ATOM     15  S1  UNL     1      17.676  11.416  36.528  0.00  0.00    +0.037 S 
ATOM     16  O2  UNL     1      19.151  11.059  36.662  0.00  0.00    -0.256 OA
BRANCH  15  17
ATOM     17  C12 UNL     1      17.666  12.893  35.495  0.00  0.00    +0.162 C 
BRANCH  17  18
ATOM     18  C13 UNL     1      16.291  13.470  35.437  0.00  0.00    +0.092 A 
ATOM     19  C14 UNL     1      15.743  14.353  36.339  0.00  0.00    +0.221 A 
ATOM     20  O3  UNL     1      14.546  14.659  35.906  0.00  0.00    -0.443 OA
ATOM     21  C15 UNL     1      14.360  14.003  34.781  0.00  0.00    +0.234 A 
ATOM     22  N2  UNL     1      15.422  13.246  34.433  0.00  0.00    -0.213 NA
BRANCH  21  23
ATOM     23  C16 UNL     1      13.131  14.086  33.985  0.00  0.00    +0.074 A 
ATOM     24  C17 UNL     1      11.839  14.147  34.490  0.00  0.00    +0.021 A 
ATOM     25  C18 UNL     1      10.861  14.220  33.489  0.00  0.00    +0.008 A 
ATOM     26  C19 UNL     1      11.380  14.216  32.201  0.00  0.00    +0.046 A 
ATOM     27  S2  UNL     1      13.057  14.122  32.306  0.00  0.00    -0.092 S 
ENDBRANCH  21  23
ENDBRANCH  17  18
ENDBRANCH  15  17
ENDBRANCH   1  15
TORSDOF 7
ENDMDL
MODEL 8
REMARK VINA RESULT:    -5.570     11.596     14.411
REMARK INTER + INTRA:          -8.718
REMARK INTER:                  -7.866
REMARK INTRA:                  -0.852
REMARK UNBOUND:                -0.868
REMARK  Name = /home/qwerty/github/datacon2025hack/step_04_hit_selection/docking/ligands/lig_357.pdb
REMARK  9 active torsions:
REMARK  status: ('A' for Active; 'I' for Inactive)
REMARK    1  A    between atoms: C1_1  and  C2_2
REMARK    2  A    between atoms: C2_2  and  C3_3
REMARK    3  A    between atoms: C2_2  and  N1_10
REMARK    4  A    between atoms: N1_10  and  C9_11
REMARK    5  A    between atoms: C10_12  and  C11_14
REMARK    6  A    between atoms: C11_14  and  S1_15
REMARK    7  A    between atoms: S1_15  and  C12_17
REMARK    8  A    between atoms: C12_17  and  C13_18
REMARK    9  A    between atoms: C15_21  and  C16_22
REMARK                            x       y       z     vdW  Elec       q    Type
REMARK                         _______ _______ _______ _____ _____    ______ ____
ROOT
ATOM      1  C11 UNL     1      13.821  13.461  32.519  0.00  0.00    +0.199 C 
ENDROOT
BRANCH   1   4
ATOM      2  N1  UNL     1      13.843  13.607  35.106  0.00  0.00    -0.297 N 
ATOM      3  C9  UNL     1      12.964  13.267  36.232  0.00  0.00    +0.132 C 
ATOM      4  C10 UNL     1      13.672  12.850  33.886  0.00  0.00    +0.228 C 
ATOM      5  O1  UNL     1      13.320  11.640  33.957  0.00  0.00    -0.275 OA
BRANCH   2   7
ATOM      6  C1  UNL     1      14.646  15.522  36.486  0.00  0.00    +0.033 C 
ATOM      7  C2  UNL     1      14.948  14.570  35.315  0.00  0.00    +0.103 C 
BRANCH   7   8
ATOM      8  C3  UNL     1      16.297  13.863  35.368  0.00  0.00    -0.027 A 
ATOM      9  C4  UNL     1      16.568  13.018  36.461  0.00  0.00    +0.008 A 
ATOM     10  C5  UNL     1      17.784  12.333  36.551  0.00  0.00    +0.038 A 
ATOM     11  C6  UNL     1      18.743  12.476  35.547  0.00  0.00    +0.123 A 
ATOM     12  F1  UNL     1      19.924  11.816  35.638  0.00  0.00    -0.205 F 
ATOM     13  C7  UNL     1      18.485  13.298  34.448  0.00  0.00    +0.038 A 
ATOM     14  C8  UNL     1      17.269  13.981  34.351  0.00  0.00    +0.008 A 
ENDBRANCH   7   8
ENDBRANCH   2   7
ENDBRANCH   1   4
BRANCH   1  15
ATOM     15  S1  UNL     1      12.305  14.297  31.991  0.00  0.00    +0.037 S 
ATOM     16  O2  UNL     1      12.301  15.620  32.746  0.00  0.00    -0.256 OA
BRANCH  15  17
ATOM     17  C12 UNL     1      12.590  14.764  30.273  0.00  0.00    +0.162 C 
BRANCH  17  18
ATOM     18  C13 UNL     1      11.577  14.114  29.390  0.00  0.00    +0.092 A 
ATOM     19  C14 UNL     1      11.342  14.414  28.068  0.00  0.00    +0.221 A 
ATOM     20  O3  UNL     1      10.421  13.588  27.640  0.00  0.00    -0.443 OA
ATOM     21  C15 UNL     1      10.103  12.804  28.647  0.00  0.00    +0.234 A 
ATOM     22  N2  UNL     1      10.800  13.082  29.769  0.00  0.00    -0.213 NA
BRANCH  21  23
ATOM     23  C16 UNL     1       9.100  11.738  28.561  0.00  0.00    +0.074 A 
ATOM     24  C17 UNL     1       8.364  11.228  29.623  0.00  0.00    +0.021 A 
ATOM     25  C18 UNL     1       7.480  10.212  29.240  0.00  0.00    +0.008 A 
ATOM     26  C19 UNL     1       7.518   9.921  27.882  0.00  0.00    +0.046 A 
ATOM     27  S2  UNL     1       8.653  10.929  27.157  0.00  0.00    -0.092 S 
ENDBRANCH  21  23
ENDBRANCH  17  18
ENDBRANCH  15  17
ENDBRANCH   1  15
TORSDOF 7
ENDMDL
MODEL 9
REMARK VINA RESULT:    -5.506      4.058      7.733
REMARK INTER + INTRA:          -8.627
REMARK INTER:                  -7.514
REMARK INTRA:                  -1.113
REMARK UNBOUND:                -0.868
REMARK  Name = /home/qwerty/github/datacon2025hack/step_04_hit_selection/docking/ligands/lig_357.pdb
REMARK  9 active torsions:
REMARK  status: ('A' for Active; 'I' for Inactive)
REMARK    1  A    between atoms: C1_1  and  C2_2
REMARK    2  A    between atoms: C2_2  and  C3_3
REMARK    3  A    between atoms: C2_2  and  N1_10
REMARK    4  A    between atoms: N1_10  and  C9_11
REMARK    5  A    between atoms: C10_12  and  C11_14
REMARK    6  A    between atoms: C11_14  and  S1_15
REMARK    7  A    between atoms: S1_15  and  C12_17
REMARK    8  A    between atoms: C12_17  and  C13_18
REMARK    9  A    between atoms: C15_21  and  C16_22
REMARK                            x       y       z     vdW  Elec       q    Type
REMARK                         _______ _______ _______ _____ _____    ______ ____
ROOT
ATOM      1  C11 UNL     1       9.472   7.995  24.671  0.00  0.00    +0.199 C 
ENDROOT
BRANCH   1   4
ATOM      2  N1  UNL     1       8.771   7.585  22.211  0.00  0.00    -0.297 N 
ATOM      3  C9  UNL     1       7.536   7.389  21.440  0.00  0.00    +0.132 C 
ATOM      4  C10 UNL     1       8.663   8.327  23.448  0.00  0.00    +0.228 C 
ATOM      5  O1  UNL     1       7.812   9.255  23.536  0.00  0.00    -0.275 OA
BRANCH   2   7
ATOM      6  C1  UNL     1       9.861   6.143  20.495  0.00  0.00    +0.033 C 
ATOM      7  C2  UNL     1      10.064   7.168  21.624  0.00  0.00    +0.103 C 
BRANCH   7   8
ATOM      8  C3  UNL     1      10.928   8.375  21.276  0.00  0.00    -0.027 A 
ATOM      9  C4  UNL     1      10.541   9.186  20.193  0.00  0.00    +0.008 A 
ATOM     10  C5  UNL     1      11.289  10.313  19.841  0.00  0.00    +0.038 A 
ATOM     11  C6  UNL     1      12.432  10.650  20.569  0.00  0.00    +0.123 A 
ATOM     12  F1  UNL     1      13.160  11.740  20.223  0.00  0.00    -0.205 F 
ATOM     13  C7  UNL     1      12.822   9.865  21.656  0.00  0.00    +0.038 A 
ATOM     14  C8  UNL     1      12.074   8.740  22.015  0.00  0.00    +0.008 A 
ENDBRANCH   7   8
ENDBRANCH   2   7
ENDBRANCH   1   4
BRANCH   1  15
ATOM     15  S1  UNL     1       8.515   7.025  25.863  0.00  0.00    +0.037 S 
ATOM     16  O2  UNL     1       9.172   5.650  25.871  0.00  0.00    -0.256 OA
BRANCH  15  17
ATOM     17  C12 UNL     1       8.916   7.720  27.477  0.00  0.00    +0.162 C 
BRANCH  17  18
ATOM     18  C13 UNL     1       8.962   9.210  27.397  0.00  0.00    +0.092 A 
ATOM     19  C14 UNL     1       7.877  10.050  27.285  0.00  0.00    +0.221 A 
ATOM     20  O3  UNL     1       8.332  11.277  27.301  0.00  0.00    -0.443 OA
ATOM     21  C15 UNL     1       9.640  11.206  27.426  0.00  0.00    +0.234 A 
ATOM     22  N2  UNL     1      10.091   9.935  27.499  0.00  0.00    -0.213 NA
BRANCH  21  23
ATOM     23  C16 UNL     1      10.516  12.379  27.486  0.00  0.00    +0.074 A 
ATOM     24  C17 UNL     1      11.799  12.463  26.961  0.00  0.00    +0.021 A 
ATOM     25  C18 UNL     1      12.398  13.712  27.170  0.00  0.00    +0.008 A 
ATOM     26  C19 UNL     1      11.590  14.609  27.856  0.00  0.00    +0.046 A 
ATOM     27  S2  UNL     1      10.130  13.849  28.204  0.00  0.00    -0.092 S 
ENDBRANCH  21  23
ENDBRANCH  17  18
ENDBRANCH  15  17
ENDBRANCH   1  15
TORSDOF 7
ENDMDL
