REMARK  Name = /home/qwerty/github/datacon2025hack/step_04_hit_selection/docking/ligands/lig_324.pdb
REMARK  8 active torsions:
REMARK  status: ('A' for Active; 'I' for Inactive)
REMARK    1  A    between atoms: C1_1  and  C2_2
REMARK    2  A    between atoms: C3_3  and  C4_4
REMARK    3  A    between atoms: N1_6  and  C5_7
REMARK    4  A    between atoms: C7_9  and  C8_10
REMARK    5  A    between atoms: C11_15  and  N3_16
REMARK    6  A    between atoms: N3_16  and  C12_17
REMARK    7  A    between atoms: C12_17  and  C13_18
REMARK    8  A    between atoms: N5_26  and  C20_27
REMARK                            x       y       z     vdW  Elec       q    Type
REMARK                         _______ _______ _______ _____ _____    ______ ____
ROOT
ATOM      1  C5  UNL     1       0.171   0.953   0.932  0.00  0.00    +0.055 A 
ATOM      2  C6  UNL     1      -0.145   2.284   0.610  0.00  0.00    +0.038 A 
ATOM      3  C7  UNL     1       0.861   3.228   0.350  0.00  0.00    +0.038 A 
ATOM      4  C9  UNL     1       2.201   2.828   0.448  0.00  0.00    +0.015 A 
ATOM      5  C10 UNL     1       2.529   1.510   0.772  0.00  0.00    +0.025 A 
ATOM      6  C11 UNL     1       1.525   0.551   1.006  0.00  0.00    +0.049 A 
ENDROOT
BRANCH   3   7
ATOM      7  C8  UNL     1       0.498   4.627   0.014  0.00  0.00    +0.242 C 
ATOM      8  N2  UNL     1       1.400   5.486  -0.689  0.00  0.00    -0.325 N 
ATOM      9  O2  UNL     1      -0.636   5.073   0.339  0.00  0.00    -0.270 OA
ATOM     10  H6  UNL     1       2.284   5.129  -1.112  0.00  0.00    +0.145 HD
ATOM     11  H7  UNL     1       1.140   6.483  -0.863  0.00  0.00    +0.145 HD
ENDBRANCH   3   7
BRANCH   1  14
ATOM     12  C4  UNL     1      -2.025  -0.141   0.356  0.00  0.00    +0.252 C 
ATOM     13  O1  UNL     1      -2.015   0.378  -0.794  0.00  0.00    -0.270 OA
ATOM     14  N1  UNL     1      -0.890   0.028   1.222  0.00  0.00    -0.280 N 
ATOM     15  H4  UNL     1      -0.820  -0.542   2.092  0.00  0.00    +0.155 HD
BRANCH  12  18
ATOM     16  C1  UNL     1      -4.644  -0.829  -1.349  0.00  0.00    +0.066 C 
ATOM     17  C2  UNL     1      -4.341  -1.241   0.064  0.00  0.00    +0.048 A 
ATOM     18  C3  UNL     1      -3.199  -0.930   0.790  0.00  0.00    +0.077 A 
ATOM     19  C19 UNL     1      -3.417  -1.489   2.040  0.00  0.00    +0.147 A 
ATOM     20  N4  UNL     1      -4.620  -2.097   2.059  0.00  0.00    -0.179 NA
ATOM     21  N5  UNL     1      -5.173  -1.942   0.867  0.00  0.00    -0.271 N 
ATOM     22  C20 UNL     1      -6.491  -2.466   0.525  0.00  0.00    +0.172 C 
ENDBRANCH  12  18
ENDBRANCH   1  14
BRANCH   6  23
ATOM     23  N3  UNL     1       1.867  -0.827   1.284  0.00  0.00    -0.338 N 
ATOM     24  H10 UNL     1       1.116  -1.504   1.541  0.00  0.00    +0.146 HD
BRANCH  23  25
ATOM     25  C12 UNL     1       3.207  -1.396   1.122  0.00  0.00    +0.137 C 
BRANCH  25  26
ATOM     26  C13 UNL     1       3.608  -1.410  -0.331  0.00  0.00    -0.030 A 
ATOM     27  C14 UNL     1       4.813  -0.816  -0.745  0.00  0.00    +0.005 A 
ATOM     28  C15 UNL     1       5.178  -0.831  -2.095  0.00  0.00    +0.000 A 
ATOM     29  C16 UNL     1       4.353  -1.450  -3.037  0.00  0.00    +0.000 A 
ATOM     30  C17 UNL     1       3.159  -2.054  -2.632  0.00  0.00    +0.000 A 
ATOM     31  C18 UNL     1       2.788  -2.038  -1.284  0.00  0.00    +0.005 A 
ENDBRANCH  25  26
ENDBRANCH  23  25
ENDBRANCH   6  23
TORSDOF 6
