REMARK  Name = /home/qwerty/github/datacon2025hack/step_04_hit_selection/docking/ligands/lig_372.pdb
REMARK  9 active torsions:
REMARK  status: ('A' for Active; 'I' for Inactive)
REMARK    1  A    between atoms: C1_1  and  C2_2
REMARK    2  A    between atoms: C2_2  and  C3_3
REMARK    3  A    between atoms: C2_2  and  C4_4
REMARK    4  A    between atoms: C2_2  and  O1_5
REMARK    5  A    between atoms: O1_5  and  C5_6
REMARK    6  A    between atoms: C8_11  and  N2_12
REMARK    7  A    between atoms: C12_17  and  C13_18
REMARK    8  A    between atoms: C13_18  and  O4_19
REMARK    9  A    between atoms: O4_19  and  C14_20
REMARK                            x       y       z     vdW  Elec       q    Type
REMARK                         _______ _______ _______ _____ _____    ______ ____
ROOT
ATOM      1  N2  UNL     1      -0.021  -0.079   0.215  0.00  0.00    -0.292 NA
ATOM      2  C9  UNL     1      -0.235   0.455  -1.146  0.00  0.00    +0.087 C 
ATOM      3  C10 UNL     1       1.035   0.200  -1.947  0.00  0.00    +0.048 C 
ATOM      4  C11 UNL     1       2.113   0.077  -0.891  0.00  0.00    +0.137 C 
ATOM      5  O3  UNL     1       2.547   1.395  -0.572  0.00  0.00    -0.368 OA
ATOM      6  C12 UNL     1       3.317   1.465   0.615  0.00  0.00    +0.156 C 
ATOM      7  C19 UNL     1       2.511   0.982   1.827  0.00  0.00    +0.036 C 
ATOM      8  C20 UNL     1       2.016  -0.443   1.618  0.00  0.00    +0.024 C 
ATOM      9  C21 UNL     1       1.350  -0.620   0.245  0.00  0.00    +0.086 C 
ENDROOT
BRANCH   1  15
ATOM     10  C5  UNL     1      -4.754  -0.902   0.010  0.00  0.00    +0.403 C 
ATOM     11  O2  UNL     1      -5.518  -1.664  -0.643  0.00  0.00    -0.226 OA
ATOM     12  N1  UNL     1      -3.353  -1.196   0.085  0.00  0.00    -0.266 N 
ATOM     13  C6  UNL     1      -2.743  -2.337  -0.574  0.00  0.00    +0.113 C 
ATOM     14  C7  UNL     1      -1.254  -2.270  -0.252  0.00  0.00    +0.039 C 
ATOM     15  C8  UNL     1      -1.050  -1.050   0.678  0.00  0.00    +0.076 C 
ATOM     16  C22 UNL     1      -2.420  -0.381   0.839  0.00  0.00    +0.130 C 
BRANCH  10  17
ATOM     17  O1  UNL     1      -5.254   0.234   0.665  0.00  0.00    -0.445 OA
BRANCH  17  19
ATOM     18  C1  UNL     1      -7.503  -0.413   1.383  0.00  0.00    +0.055 C 
ATOM     19  C2  UNL     1      -6.625   0.657   0.707  0.00  0.00    +0.107 C 
ATOM     20  C3  UNL     1      -6.676   1.943   1.546  0.00  0.00    +0.055 C 
ATOM     21  C4  UNL     1      -7.142   0.967  -0.711  0.00  0.00    +0.055 C 
ENDBRANCH  17  19
ENDBRANCH  10  17
ENDBRANCH   1  15
BRANCH   6  22
ATOM     22  C13 UNL     1       4.694   0.789   0.476  0.00  0.00    +0.260 C 
BRANCH  22  23
ATOM     23  O4  UNL     1       5.379   1.334  -0.650  0.00  0.00    -0.488 OA
BRANCH  23  24
ATOM     24  C14 UNL     1       6.669   0.957  -1.050  0.00  0.00    +0.139 A 
ATOM     25  C15 UNL     1       7.423  -0.017  -0.370  0.00  0.00    +0.048 A 
ATOM     26  C16 UNL     1       8.703  -0.345  -0.819  0.00  0.00    +0.023 A 
ATOM     27  C17 UNL     1       9.222   0.301  -1.942  0.00  0.00    +0.111 A 
ATOM     28  N3  UNL     1       8.481   1.239  -2.590  0.00  0.00    -0.260 NA
ATOM     29  C18 UNL     1       7.231   1.576  -2.172  0.00  0.00    +0.156 A 
ENDBRANCH  23  24
ENDBRANCH  22  23
ENDBRANCH   6  22
TORSDOF 6
