MODEL 1
REMARK VINA RESULT:    -6.533      0.000      0.000
REMARK INTER + INTRA:          -8.515
REMARK INTER:                  -8.252
REMARK INTRA:                  -0.264
REMARK UNBOUND:                -0.264
REMARK  Name = /home/qwerty/github/datacon2025hack/step_04_hit_selection/docking/ligands/lig_599.pdb
REMARK  7 active torsions:
REMARK  status: ('A' for Active; 'I' for Inactive)
REMARK    1  A    between atoms: C1_1  and  O1_2
REMARK    2  A    between atoms: O1_2  and  C2_3
REMARK    3  A    between atoms: C5_7  and  C6_8
REMARK    4  A    between atoms: N1_10  and  C7_11
REMARK    5  A    between atoms: C7_11  and  C8_12
REMARK    6  A    between atoms: C7_11  and  C9_13
REMARK    7  A    between atoms: C13_17  and  O3_18
REMARK                            x       y       z     vdW  Elec       q    Type
REMARK                         _______ _______ _______ _____ _____    ______ ____
ROOT
ATOM      1  C6  UNL     1      21.217   1.511  26.648  0.00  0.00    +0.247 C 
ATOM      2  O2  UNL     1      20.323   0.680  26.328  0.00  0.00    -0.270 OA
ATOM      3  N1  UNL     1      22.018   1.281  27.818  0.00  0.00    -0.305 N 
ATOM      4  H5  UNL     1      22.892   1.838  27.946  0.00  0.00    +0.150 HD
ENDROOT
BRANCH   1   9
ATOM      5  C2  UNL     1      21.918   4.969  24.186  0.00  0.00    +0.158 A 
ATOM      6  C3  UNL     1      20.887   4.070  23.859  0.00  0.00    +0.087 A 
ATOM      7  C4  UNL     1      20.652   2.941  24.652  0.00  0.00    +0.139 A 
ATOM      8  F1  UNL     1      19.686   2.067  24.270  0.00  0.00    -0.205 F 
ATOM      9  C5  UNL     1      21.443   2.697  25.792  0.00  0.00    +0.075 A 
ATOM     10  C15 UNL     1      22.483   3.589  26.102  0.00  0.00    +0.058 A 
ATOM     11  C16 UNL     1      22.714   4.716  25.309  0.00  0.00    +0.166 A 
ATOM     12  F2  UNL     1      23.716   5.570  25.637  0.00  0.00    -0.202 F 
BRANCH   5  14
ATOM     13  C1  UNL     1      22.353   6.116  22.007  0.00  0.00    +0.277 C 
ATOM     14  O1  UNL     1      22.187   6.115  23.421  0.00  0.00    -0.492 OA
ENDBRANCH   5  14
ENDBRANCH   1   9
BRANCH   3  15
ATOM     15  C7  UNL     1      21.674   0.245  28.799  0.00  0.00    +0.101 C 
ATOM     16  C8  UNL     1      22.792  -0.798  28.898  0.00  0.00    +0.033 C 
BRANCH  15  17
ATOM     17  C9  UNL     1      21.420   0.868  30.156  0.00  0.00    -0.024 A 
ATOM     18  C10 UNL     1      22.102   2.034  30.548  0.00  0.00    +0.005 A 
ATOM     19  C11 UNL     1      21.871   2.598  31.806  0.00  0.00    +0.004 A 
ATOM     20  C12 UNL     1      20.963   2.002  32.686  0.00  0.00    +0.045 A 
ATOM     21  C13 UNL     1      20.286   0.837  32.312  0.00  0.00    +0.117 A 
ATOM     22  C14 UNL     1      20.516   0.269  31.051  0.00  0.00    +0.050 A 
BRANCH  21  23
ATOM     23  O3  UNL     1      19.388   0.250  33.201  0.00  0.00    -0.507 OA
ATOM     24  H13 UNL     1      18.512  -0.147  32.884  0.00  0.00    +0.292 HD
ENDBRANCH  21  23
ENDBRANCH  15  17
ENDBRANCH   3  15
TORSDOF 5
ENDMDL
MODEL 2
REMARK VINA RESULT:    -6.469     14.729     16.269
REMARK INTER + INTRA:          -8.434
REMARK INTER:                  -7.726
REMARK INTRA:                  -0.708
REMARK UNBOUND:                -0.264
REMARK  Name = /home/qwerty/github/datacon2025hack/step_04_hit_selection/docking/ligands/lig_599.pdb
REMARK  7 active torsions:
REMARK  status: ('A' for Active; 'I' for Inactive)
REMARK    1  A    between atoms: C1_1  and  O1_2
REMARK    2  A    between atoms: O1_2  and  C2_3
REMARK    3  A    between atoms: C5_7  and  C6_8
REMARK    4  A    between atoms: N1_10  and  C7_11
REMARK    5  A    between atoms: C7_11  and  C8_12
REMARK    6  A    between atoms: C7_11  and  C9_13
REMARK    7  A    between atoms: C13_17  and  O3_18
REMARK                            x       y       z     vdW  Elec       q    Type
REMARK                         _______ _______ _______ _____ _____    ______ ____
ROOT
ATOM      1  C6  UNL     1       9.300  12.859  29.451  0.00  0.00    +0.247 C 
ATOM      2  O2  UNL     1       8.556  13.835  29.744  0.00  0.00    -0.270 OA
ATOM      3  N1  UNL     1      10.706  12.922  29.743  0.00  0.00    -0.305 N 
ATOM      4  H5  UNL     1      11.265  12.041  29.714  0.00  0.00    +0.150 HD
ENDROOT
BRANCH   1   9
ATOM      5  C2  UNL     1       7.530   9.350  27.701  0.00  0.00    +0.158 A 
ATOM      6  C3  UNL     1       8.507  10.073  26.994  0.00  0.00    +0.087 A 
ATOM      7  C4  UNL     1       9.087  11.216  27.553  0.00  0.00    +0.139 A 
ATOM      8  F1  UNL     1       9.985  11.919  26.814  0.00  0.00    -0.205 F 
ATOM      9  C5  UNL     1       8.703  11.652  28.836  0.00  0.00    +0.075 A 
ATOM     10  C15 UNL     1       7.714  10.937  29.530  0.00  0.00    +0.058 A 
ATOM     11  C16 UNL     1       7.137   9.794  28.969  0.00  0.00    +0.166 A 
ATOM     12  F2  UNL     1       6.192   9.112  29.664  0.00  0.00    -0.202 F 
BRANCH   5  14
ATOM     13  C1  UNL     1       7.378   6.869  27.425  0.00  0.00    +0.277 C 
ATOM     14  O1  UNL     1       6.924   8.196  27.180  0.00  0.00    -0.492 OA
ENDBRANCH   5  14
ENDBRANCH   1   9
BRANCH   3  15
ATOM     15  C7  UNL     1      11.358  14.175  30.142  0.00  0.00    +0.101 C 
ATOM     16  C8  UNL     1      11.807  14.108  31.605  0.00  0.00    +0.033 C 
BRANCH  15  17
ATOM     17  C9  UNL     1      12.542  14.462  29.243  0.00  0.00    -0.024 A 
ATOM     18  C10 UNL     1      13.819  14.683  29.790  0.00  0.00    +0.005 A 
ATOM     19  C11 UNL     1      14.906  14.958  28.955  0.00  0.00    +0.004 A 
ATOM     20  C12 UNL     1      14.728  15.022  27.571  0.00  0.00    +0.045 A 
ATOM     21  C13 UNL     1      13.462  14.815  27.015  0.00  0.00    +0.117 A 
ATOM     22  C14 UNL     1      12.370  14.538  27.850  0.00  0.00    +0.050 A 
BRANCH  21  23
ATOM     23  O3  UNL     1      13.299  14.887  25.633  0.00  0.00    -0.507 OA
ATOM     24  H13 UNL     1      12.611  14.320  25.151  0.00  0.00    +0.292 HD
ENDBRANCH  21  23
ENDBRANCH  15  17
ENDBRANCH   3  15
TORSDOF 5
ENDMDL
MODEL 3
REMARK VINA RESULT:    -6.465      2.248      3.470
REMARK INTER + INTRA:          -8.430
REMARK INTER:                  -7.713
REMARK INTRA:                  -0.717
REMARK UNBOUND:                -0.264
REMARK  Name = /home/qwerty/github/datacon2025hack/step_04_hit_selection/docking/ligands/lig_599.pdb
REMARK  7 active torsions:
REMARK  status: ('A' for Active; 'I' for Inactive)
REMARK    1  A    between atoms: C1_1  and  O1_2
REMARK    2  A    between atoms: O1_2  and  C2_3
REMARK    3  A    between atoms: C5_7  and  C6_8
REMARK    4  A    between atoms: N1_10  and  C7_11
REMARK    5  A    between atoms: C7_11  and  C8_12
REMARK    6  A    between atoms: C7_11  and  C9_13
REMARK    7  A    between atoms: C13_17  and  O3_18
REMARK                            x       y       z     vdW  Elec       q    Type
REMARK                         _______ _______ _______ _____ _____    ______ ____
ROOT
ATOM      1  C6  UNL     1      22.036   1.804  29.684  0.00  0.00    +0.247 C 
ATOM      2  O2  UNL     1      23.025   1.081  29.982  0.00  0.00    -0.270 OA
ATOM      3  N1  UNL     1      21.309   2.481  30.722  0.00  0.00    -0.305 N 
ATOM      4  H5  UNL     1      20.651   3.247  30.457  0.00  0.00    +0.150 HD
ENDROOT
BRANCH   1   9
ATOM      5  C2  UNL     1      20.989   2.281  25.538  0.00  0.00    +0.158 A 
ATOM      6  C3  UNL     1      20.064   1.720  26.437  0.00  0.00    +0.087 A 
ATOM      7  C4  UNL     1      20.396   1.558  27.787  0.00  0.00    +0.139 A 
ATOM      8  F1  UNL     1      19.498   0.959  28.610  0.00  0.00    -0.205 F 
ATOM      9  C5  UNL     1      21.658   1.964  28.261  0.00  0.00    +0.075 A 
ATOM     10  C15 UNL     1      22.584   2.507  27.355  0.00  0.00    +0.058 A 
ATOM     11  C16 UNL     1      22.249   2.669  26.008  0.00  0.00    +0.166 A 
ATOM     12  F2  UNL     1      23.155   3.208  25.154  0.00  0.00    -0.202 F 
BRANCH   5  14
ATOM     13  C1  UNL     1      20.194   3.674  23.619  0.00  0.00    +0.277 C 
ATOM     14  O1  UNL     1      20.697   2.465  24.178  0.00  0.00    -0.492 OA
ENDBRANCH   5  14
ENDBRANCH   1   9
BRANCH   3  15
ATOM     15  C7  UNL     1      21.516   2.170  32.141  0.00  0.00    +0.101 C 
ATOM     16  C8  UNL     1      22.037   3.398  32.894  0.00  0.00    +0.033 C 
BRANCH  15  17
ATOM     17  C9  UNL     1      20.227   1.680  32.766  0.00  0.00    -0.024 A 
ATOM     18  C10 UNL     1      19.726   2.279  33.937  0.00  0.00    +0.005 A 
ATOM     19  C11 UNL     1      18.542   1.815  34.515  0.00  0.00    +0.004 A 
ATOM     20  C12 UNL     1      17.850   0.747  33.937  0.00  0.00    +0.045 A 
ATOM     21  C13 UNL     1      18.342   0.136  32.780  0.00  0.00    +0.117 A 
ATOM     22  C14 UNL     1      19.530   0.600  32.197  0.00  0.00    +0.050 A 
BRANCH  21  23
ATOM     23  O3  UNL     1      17.645  -0.931  32.217  0.00  0.00    -0.507 OA
ATOM     24  H13 UNL     1      17.680  -1.120  31.223  0.00  0.00    +0.292 HD
ENDBRANCH  21  23
ENDBRANCH  15  17
ENDBRANCH   3  15
TORSDOF 5
ENDMDL
MODEL 4
REMARK VINA RESULT:    -6.413     15.246     16.682
REMARK INTER + INTRA:          -8.364
REMARK INTER:                  -7.972
REMARK INTRA:                  -0.392
REMARK UNBOUND:                -0.264
REMARK  Name = /home/qwerty/github/datacon2025hack/step_04_hit_selection/docking/ligands/lig_599.pdb
REMARK  7 active torsions:
REMARK  status: ('A' for Active; 'I' for Inactive)
REMARK    1  A    between atoms: C1_1  and  O1_2
REMARK    2  A    between atoms: O1_2  and  C2_3
REMARK    3  A    between atoms: C5_7  and  C6_8
REMARK    4  A    between atoms: N1_10  and  C7_11
REMARK    5  A    between atoms: C7_11  and  C8_12
REMARK    6  A    between atoms: C7_11  and  C9_13
REMARK    7  A    between atoms: C13_17  and  O3_18
REMARK                            x       y       z     vdW  Elec       q    Type
REMARK                         _______ _______ _______ _____ _____    ______ ____
ROOT
ATOM      1  C6  UNL     1       8.283  10.611  27.581  0.00  0.00    +0.247 C 
ATOM      2  O2  UNL     1       8.883  10.510  26.477  0.00  0.00    -0.270 OA
ATOM      3  N1  UNL     1       8.015  11.912  28.129  0.00  0.00    -0.305 N 
ATOM      4  H5  UNL     1       7.327  11.996  28.911  0.00  0.00    +0.150 HD
ENDROOT
BRANCH   1   9
ATOM      5  C2  UNL     1       6.986   7.073  29.657  0.00  0.00    +0.158 A 
ATOM      6  C3  UNL     1       7.240   7.025  28.274  0.00  0.00    +0.087 A 
ATOM      7  C4  UNL     1       7.660   8.170  27.590  0.00  0.00    +0.139 A 
ATOM      8  F1  UNL     1       7.838   8.096  26.246  0.00  0.00    -0.205 F 
ATOM      9  C5  UNL     1       7.840   9.384  28.280  0.00  0.00    +0.075 A 
ATOM     10  C15 UNL     1       7.568   9.431  29.658  0.00  0.00    +0.058 A 
ATOM     11  C16 UNL     1       7.150   8.284  30.339  0.00  0.00    +0.166 A 
ATOM     12  F2  UNL     1       6.905   8.351  31.672  0.00  0.00    -0.202 F 
BRANCH   5  14
ATOM     13  C1  UNL     1       5.601   5.008  29.923  0.00  0.00    +0.277 C 
ATOM     14  O1  UNL     1       6.567   5.948  30.384  0.00  0.00    -0.492 OA
ENDBRANCH   5  14
ENDBRANCH   1   9
BRANCH   3  15
ATOM     15  C7  UNL     1       8.629  13.125  27.580  0.00  0.00    +0.101 C 
ATOM     16  C8  UNL     1       7.601  14.257  27.484  0.00  0.00    +0.033 C 
BRANCH  15  17
ATOM     17  C9  UNL     1       9.803  13.555  28.434  0.00  0.00    -0.024 A 
ATOM     18  C10 UNL     1       9.824  13.278  29.814  0.00  0.00    +0.005 A 
ATOM     19  C11 UNL     1      10.905  13.687  30.599  0.00  0.00    +0.004 A 
ATOM     20  C12 UNL     1      11.970  14.382  30.019  0.00  0.00    +0.045 A 
ATOM     21  C13 UNL     1      11.957  14.672  28.652  0.00  0.00    +0.117 A 
ATOM     22  C14 UNL     1      10.874  14.263  27.861  0.00  0.00    +0.050 A 
BRANCH  21  23
ATOM     23  O3  UNL     1      13.024  15.370  28.088  0.00  0.00    -0.507 OA
ATOM     24  H13 UNL     1      12.883  16.245  27.597  0.00  0.00    +0.292 HD
ENDBRANCH  21  23
ENDBRANCH  15  17
ENDBRANCH   3  15
TORSDOF 5
ENDMDL
MODEL 5
REMARK VINA RESULT:    -6.355     14.970     15.836
REMARK INTER + INTRA:          -8.291
REMARK INTER:                  -7.803
REMARK INTRA:                  -0.488
REMARK UNBOUND:                -0.264
REMARK  Name = /home/qwerty/github/datacon2025hack/step_04_hit_selection/docking/ligands/lig_599.pdb
REMARK  7 active torsions:
REMARK  status: ('A' for Active; 'I' for Inactive)
REMARK    1  A    between atoms: C1_1  and  O1_2
REMARK    2  A    between atoms: O1_2  and  C2_3
REMARK    3  A    between atoms: C5_7  and  C6_8
REMARK    4  A    between atoms: N1_10  and  C7_11
REMARK    5  A    between atoms: C7_11  and  C8_12
REMARK    6  A    between atoms: C7_11  and  C9_13
REMARK    7  A    between atoms: C13_17  and  O3_18
REMARK                            x       y       z     vdW  Elec       q    Type
REMARK                         _______ _______ _______ _____ _____    ______ ____
ROOT
ATOM      1  C6  UNL     1      10.934  13.513  29.631  0.00  0.00    +0.247 C 
ATOM      2  O2  UNL     1      11.094  12.797  30.657  0.00  0.00    -0.270 OA
ATOM      3  N1  UNL     1       9.607  13.777  29.146  0.00  0.00    -0.305 N 
ATOM      4  H5  UNL     1       9.471  14.544  28.450  0.00  0.00    +0.150 HD
ENDROOT
BRANCH   1   9
ATOM      5  C2  UNL     1      14.352  15.199  27.635  0.00  0.00    +0.158 A 
ATOM      6  C3  UNL     1      14.366  15.027  29.031  0.00  0.00    +0.087 A 
ATOM      7  C4  UNL     1      13.259  14.482  29.689  0.00  0.00    +0.139 A 
ATOM      8  F1  UNL     1      13.289  14.386  31.044  0.00  0.00    -0.205 F 
ATOM      9  C5  UNL     1      12.120  14.091  28.960  0.00  0.00    +0.075 A 
ATOM     10  C15 UNL     1      12.104  14.282  27.568  0.00  0.00    +0.058 A 
ATOM     11  C16 UNL     1      13.213  14.826  26.912  0.00  0.00    +0.166 A 
ATOM     12  F2  UNL     1      13.180  14.989  25.566  0.00  0.00    -0.202 F 
BRANCH   5  14
ATOM     13  C1  UNL     1      16.492  16.490  27.533  0.00  0.00    +0.277 C 
ATOM     14  O1  UNL     1      15.441  15.738  26.933  0.00  0.00    -0.492 OA
ENDBRANCH   5  14
ENDBRANCH   1   9
BRANCH   3  15
ATOM     15  C7  UNL     1       8.440  13.045  29.649  0.00  0.00    +0.101 C 
ATOM     16  C8  UNL     1       7.204  13.950  29.673  0.00  0.00    +0.033 C 
BRANCH  15  17
ATOM     17  C9  UNL     1       8.176  11.823  28.795  0.00  0.00    -0.024 A 
ATOM     18  C10 UNL     1       8.521  11.814  27.431  0.00  0.00    +0.005 A 
ATOM     19  C11 UNL     1       8.266  10.686  26.646  0.00  0.00    +0.004 A 
ATOM     20  C12 UNL     1       7.658   9.562  27.210  0.00  0.00    +0.045 A 
ATOM     21  C13 UNL     1       7.301   9.561  28.562  0.00  0.00    +0.117 A 
ATOM     22  C14 UNL     1       7.556  10.691  29.352  0.00  0.00    +0.050 A 
BRANCH  21  23
ATOM     23  O3  UNL     1       6.691   8.435  29.110  0.00  0.00    -0.507 OA
ATOM     24  H13 UNL     1       6.850   7.509  28.730  0.00  0.00    +0.292 HD
ENDBRANCH  21  23
ENDBRANCH  15  17
ENDBRANCH   3  15
TORSDOF 5
ENDMDL
MODEL 6
REMARK VINA RESULT:    -6.218      1.040      1.835
REMARK INTER + INTRA:          -8.118
REMARK INTER:                  -7.352
REMARK INTRA:                  -0.766
REMARK UNBOUND:                -0.264
REMARK  Name = /home/qwerty/github/datacon2025hack/step_04_hit_selection/docking/ligands/lig_599.pdb
REMARK  7 active torsions:
REMARK  status: ('A' for Active; 'I' for Inactive)
REMARK    1  A    between atoms: C1_1  and  O1_2
REMARK    2  A    between atoms: O1_2  and  C2_3
REMARK    3  A    between atoms: C5_7  and  C6_8
REMARK    4  A    between atoms: N1_10  and  C7_11
REMARK    5  A    between atoms: C7_11  and  C8_12
REMARK    6  A    between atoms: C7_11  and  C9_13
REMARK    7  A    between atoms: C13_17  and  O3_18
REMARK                            x       y       z     vdW  Elec       q    Type
REMARK                         _______ _______ _______ _____ _____    ______ ____
ROOT
ATOM      1  C6  UNL     1      20.779   1.712  27.053  0.00  0.00    +0.247 C 
ATOM      2  O2  UNL     1      19.622   1.243  27.235  0.00  0.00    -0.270 OA
ATOM      3  N1  UNL     1      21.902   1.116  27.722  0.00  0.00    -0.305 N 
ATOM      4  H5  UNL     1      22.866   1.353  27.394  0.00  0.00    +0.150 HD
ENDROOT
BRANCH   1   9
ATOM      5  C2  UNL     1      21.281   5.004  24.328  0.00  0.00    +0.158 A 
ATOM      6  C3  UNL     1      21.628   5.153  25.684  0.00  0.00    +0.087 A 
ATOM      7  C4  UNL     1      21.466   4.089  26.578  0.00  0.00    +0.139 A 
ATOM      8  F1  UNL     1      21.757   4.291  27.889  0.00  0.00    -0.205 F 
ATOM      9  C5  UNL     1      20.961   2.854  26.128  0.00  0.00    +0.075 A 
ATOM     10  C15 UNL     1      20.600   2.717  24.778  0.00  0.00    +0.058 A 
ATOM     11  C16 UNL     1      20.764   3.781  23.886  0.00  0.00    +0.166 A 
ATOM     12  F2  UNL     1      20.420   3.621  22.584  0.00  0.00    -0.202 F 
BRANCH   5  14
ATOM     13  C1  UNL     1      22.613   6.282  22.641  0.00  0.00    +0.277 C 
ATOM     14  O1  UNL     1      21.430   6.043  23.397  0.00  0.00    -0.492 OA
ENDBRANCH   5  14
ENDBRANCH   1   9
BRANCH   3  15
ATOM     15  C7  UNL     1      21.730   0.140  28.803  0.00  0.00    +0.101 C 
ATOM     16  C8  UNL     1      22.945  -0.790  28.891  0.00  0.00    +0.033 C 
BRANCH  15  17
ATOM     17  C9  UNL     1      21.517   0.848  30.124  0.00  0.00    -0.024 A 
ATOM     18  C10 UNL     1      22.240   2.014  30.436  0.00  0.00    +0.005 A 
ATOM     19  C11 UNL     1      22.046   2.658  31.662  0.00  0.00    +0.004 A 
ATOM     20  C12 UNL     1      21.137   2.142  32.589  0.00  0.00    +0.045 A 
ATOM     21  C13 UNL     1      20.419   0.978  32.295  0.00  0.00    +0.117 A 
ATOM     22  C14 UNL     1      20.611   0.331  31.066  0.00  0.00    +0.050 A 
BRANCH  21  23
ATOM     23  O3  UNL     1      19.520   0.472  33.231  0.00  0.00    -0.507 OA
ATOM     24  H13 UNL     1      18.627   0.084  32.951  0.00  0.00    +0.292 HD
ENDBRANCH  21  23
ENDBRANCH  15  17
ENDBRANCH   3  15
TORSDOF 5
ENDMDL
MODEL 7
REMARK VINA RESULT:    -6.140     13.101     15.429
REMARK INTER + INTRA:          -8.019
REMARK INTER:                  -7.382
REMARK INTRA:                  -0.638
REMARK UNBOUND:                -0.264
REMARK  Name = /home/qwerty/github/datacon2025hack/step_04_hit_selection/docking/ligands/lig_599.pdb
REMARK  7 active torsions:
REMARK  status: ('A' for Active; 'I' for Inactive)
REMARK    1  A    between atoms: C1_1  and  O1_2
REMARK    2  A    between atoms: O1_2  and  C2_3
REMARK    3  A    between atoms: C5_7  and  C6_8
REMARK    4  A    between atoms: N1_10  and  C7_11
REMARK    5  A    between atoms: C7_11  and  C8_12
REMARK    6  A    between atoms: C7_11  and  C9_13
REMARK    7  A    between atoms: C13_17  and  O3_18
REMARK                            x       y       z     vdW  Elec       q    Type
REMARK                         _______ _______ _______ _____ _____    ______ ____
ROOT
ATOM      1  C6  UNL     1       8.067   6.712  21.998  0.00  0.00    +0.247 C 
ATOM      2  O2  UNL     1       7.306   6.894  21.008  0.00  0.00    -0.270 OA
ATOM      3  N1  UNL     1       8.541   7.842  22.749  0.00  0.00    -0.305 N 
ATOM      4  H5  UNL     1       8.972   7.677  23.686  0.00  0.00    +0.150 HD
ENDROOT
BRANCH   1   9
ATOM      5  C2  UNL     1       9.102   2.700  23.157  0.00  0.00    +0.158 A 
ATOM      6  C3  UNL     1       9.663   3.265  21.998  0.00  0.00    +0.087 A 
ATOM      7  C4  UNL     1       9.332   4.567  21.611  0.00  0.00    +0.139 A 
ATOM      8  F1  UNL     1       9.850   5.055  20.454  0.00  0.00    -0.205 F 
ATOM      9  C5  UNL     1       8.436   5.332  22.384  0.00  0.00    +0.075 A 
ATOM     10  C15 UNL     1       7.864   4.756  23.531  0.00  0.00    +0.058 A 
ATOM     11  C16 UNL     1       8.199   3.454  23.915  0.00  0.00    +0.166 A 
ATOM     12  F2  UNL     1       7.643   2.925  25.034  0.00  0.00    -0.202 F 
BRANCH   5  14
ATOM     13  C1  UNL     1       9.768   0.331  22.713  0.00  0.00    +0.277 C 
ATOM     14  O1  UNL     1       9.408   1.399  23.584  0.00  0.00    -0.492 OA
ENDBRANCH   5  14
ENDBRANCH   1   9
BRANCH   3  15
ATOM     15  C7  UNL     1       8.378   9.217  22.264  0.00  0.00    +0.101 C 
ATOM     16  C8  UNL     1       8.004  10.155  23.416  0.00  0.00    +0.033 C 
BRANCH  15  17
ATOM     17  C9  UNL     1       9.649   9.693  21.593  0.00  0.00    -0.024 A 
ATOM     18  C10 UNL     1       9.626  10.167  20.268  0.00  0.00    +0.005 A 
ATOM     19  C11 UNL     1      10.804  10.595  19.651  0.00  0.00    +0.004 A 
ATOM     20  C12 UNL     1      12.017  10.548  20.345  0.00  0.00    +0.045 A 
ATOM     21  C13 UNL     1      12.055  10.070  21.659  0.00  0.00    +0.117 A 
ATOM     22  C14 UNL     1      10.874   9.641  22.280  0.00  0.00    +0.050 A 
BRANCH  21  23
ATOM     23  O3  UNL     1      13.272  10.025  22.337  0.00  0.00    -0.507 OA
ATOM     24  H13 UNL     1      13.894   9.229  22.254  0.00  0.00    +0.292 HD
ENDBRANCH  21  23
ENDBRANCH  15  17
ENDBRANCH   3  15
TORSDOF 5
ENDMDL
MODEL 8
REMARK VINA RESULT:    -6.077      5.047      7.641
REMARK INTER + INTRA:          -7.940
REMARK INTER:                  -7.242
REMARK INTRA:                  -0.698
REMARK UNBOUND:                -0.264
REMARK  Name = /home/qwerty/github/datacon2025hack/step_04_hit_selection/docking/ligands/lig_599.pdb
REMARK  7 active torsions:
REMARK  status: ('A' for Active; 'I' for Inactive)
REMARK    1  A    between atoms: C1_1  and  O1_2
REMARK    2  A    between atoms: O1_2  and  C2_3
REMARK    3  A    between atoms: C5_7  and  C6_8
REMARK    4  A    between atoms: N1_10  and  C7_11
REMARK    5  A    between atoms: C7_11  and  C8_12
REMARK    6  A    between atoms: C7_11  and  C9_13
REMARK    7  A    between atoms: C13_17  and  O3_18
REMARK                            x       y       z     vdW  Elec       q    Type
REMARK                         _______ _______ _______ _____ _____    ______ ____
ROOT
ATOM      1  C6  UNL     1      21.610   4.902  32.536  0.00  0.00    +0.247 C 
ATOM      2  O2  UNL     1      20.609   5.300  33.192  0.00  0.00    -0.270 OA
ATOM      3  N1  UNL     1      22.904   5.472  32.794  0.00  0.00    -0.305 N 
ATOM      4  H5  UNL     1      23.750   4.986  32.422  0.00  0.00    +0.150 HD
ENDROOT
BRANCH   1   9
ATOM      5  C2  UNL     1      21.093   1.757  29.645  0.00  0.00    +0.158 A 
ATOM      6  C3  UNL     1      21.287   3.083  29.216  0.00  0.00    +0.087 A 
ATOM      7  C4  UNL     1      21.454   4.112  30.148  0.00  0.00    +0.139 A 
ATOM      8  F1  UNL     1      21.580   5.386  29.695  0.00  0.00    -0.205 F 
ATOM      9  C5  UNL     1      21.437   3.832  31.528  0.00  0.00    +0.075 A 
ATOM     10  C15 UNL     1      21.225   2.509  31.951  0.00  0.00    +0.058 A 
ATOM     11  C16 UNL     1      21.060   1.482  31.017  0.00  0.00    +0.166 A 
ATOM     12  F2  UNL     1      20.869   0.210  31.449  0.00  0.00    -0.202 F 
BRANCH   5  14
ATOM     13  C1  UNL     1      21.305   0.733  27.374  0.00  0.00    +0.277 C 
ATOM     14  O1  UNL     1      20.925   0.693  28.746  0.00  0.00    -0.492 OA
ENDBRANCH   5  14
ENDBRANCH   1   9
BRANCH   3  15
ATOM     15  C7  UNL     1      23.069   6.676  33.617  0.00  0.00    +0.101 C 
ATOM     16  C8  UNL     1      24.057   6.419  34.759  0.00  0.00    +0.033 C 
BRANCH  15  17
ATOM     17  C9  UNL     1      23.543   7.834  32.766  0.00  0.00    -0.024 A 
ATOM     18  C10 UNL     1      24.813   8.404  32.974  0.00  0.00    +0.005 A 
ATOM     19  C11 UNL     1      25.241   9.480  32.192  0.00  0.00    +0.004 A 
ATOM     20  C12 UNL     1      24.405  10.003  31.201  0.00  0.00    +0.045 A 
ATOM     21  C13 UNL     1      23.137   9.454  30.991  0.00  0.00    +0.117 A 
ATOM     22  C14 UNL     1      22.706   8.373  31.774  0.00  0.00    +0.050 A 
BRANCH  21  23
ATOM     23  O3  UNL     1      22.313   9.989  30.003  0.00  0.00    -0.507 OA
ATOM     24  H13 UNL     1      21.891   9.403  29.292  0.00  0.00    +0.292 HD
ENDBRANCH  21  23
ENDBRANCH  15  17
ENDBRANCH   3  15
TORSDOF 5
ENDMDL
MODEL 9
REMARK VINA RESULT:    -6.071      4.913      6.892
REMARK INTER + INTRA:          -7.932
REMARK INTER:                  -7.254
REMARK INTRA:                  -0.679
REMARK UNBOUND:                -0.264
REMARK  Name = /home/qwerty/github/datacon2025hack/step_04_hit_selection/docking/ligands/lig_599.pdb
REMARK  7 active torsions:
REMARK  status: ('A' for Active; 'I' for Inactive)
REMARK    1  A    between atoms: C1_1  and  O1_2
REMARK    2  A    between atoms: O1_2  and  C2_3
REMARK    3  A    between atoms: C5_7  and  C6_8
REMARK    4  A    between atoms: N1_10  and  C7_11
REMARK    5  A    between atoms: C7_11  and  C8_12
REMARK    6  A    between atoms: C7_11  and  C9_13
REMARK    7  A    between atoms: C13_17  and  O3_18
REMARK                            x       y       z     vdW  Elec       q    Type
REMARK                         _______ _______ _______ _____ _____    ______ ____
ROOT
ATOM      1  C6  UNL     1      18.649   1.246  26.027  0.00  0.00    +0.247 C 
ATOM      2  O2  UNL     1      18.226   2.282  25.444  0.00  0.00    -0.270 OA
ATOM      3  N1  UNL     1      18.230  -0.050  25.570  0.00  0.00    -0.305 N 
ATOM      4  H5  UNL     1      18.753  -0.892  25.899  0.00  0.00    +0.150 HD
ENDROOT
BRANCH   1   9
ATOM      5  C2  UNL     1      21.433   1.668  29.280  0.00  0.00    +0.158 A 
ATOM      6  C3  UNL     1      20.069   1.449  29.545  0.00  0.00    +0.087 A 
ATOM      7  C4  UNL     1      19.155   1.312  28.494  0.00  0.00    +0.139 A 
ATOM      8  F1  UNL     1      17.839   1.160  28.792  0.00  0.00    -0.205 F 
ATOM      9  C5  UNL     1      19.594   1.386  27.158  0.00  0.00    +0.075 A 
ATOM     10  C15 UNL     1      20.954   1.624  26.900  0.00  0.00    +0.058 A 
ATOM     11  C16 UNL     1      21.864   1.759  27.952  0.00  0.00    +0.166 A 
ATOM     12  F2  UNL     1      23.175   1.975  27.678  0.00  0.00    -0.202 F 
BRANCH   5  14
ATOM     13  C1  UNL     1      22.199   2.603  31.470  0.00  0.00    +0.277 C 
ATOM     14  O1  UNL     1      22.384   1.808  30.302  0.00  0.00    -0.492 OA
ENDBRANCH   5  14
ENDBRANCH   1   9
BRANCH   3  15
ATOM     15  C7  UNL     1      17.134  -0.215  24.608  0.00  0.00    +0.101 C 
ATOM     16  C8  UNL     1      17.636  -0.885  23.326  0.00  0.00    +0.033 C 
BRANCH  15  17
ATOM     17  C9  UNL     1      16.014  -1.029  25.220  0.00  0.00    -0.024 A 
ATOM     18  C10 UNL     1      15.741  -2.330  24.761  0.00  0.00    +0.005 A 
ATOM     19  C11 UNL     1      14.698  -3.072  25.323  0.00  0.00    +0.004 A 
ATOM     20  C12 UNL     1      13.915  -2.522  26.341  0.00  0.00    +0.045 A 
ATOM     21  C13 UNL     1      14.169  -1.226  26.799  0.00  0.00    +0.117 A 
ATOM     22  C14 UNL     1      15.215  -0.480  26.238  0.00  0.00    +0.050 A 
BRANCH  21  23
ATOM     23  O3  UNL     1      13.377  -0.688  27.812  0.00  0.00    -0.507 OA
ATOM     24  H13 UNL     1      12.393  -0.917  27.891  0.00  0.00    +0.292 HD
ENDBRANCH  21  23
ENDBRANCH  15  17
ENDBRANCH   3  15
TORSDOF 5
ENDMDL
