MODEL 1
REMARK VINA RESULT:    -6.207      0.000      0.000
REMARK INTER + INTRA:          -9.457
REMARK INTER:                  -8.022
REMARK INTRA:                  -1.436
REMARK UNBOUND:                -1.436
REMARK  Name = /home/qwerty/github/datacon2025hack/step_04_hit_selection/docking/ligands/lig_167.pdb
REMARK  7 active torsions:
REMARK  status: ('A' for Active; 'I' for Inactive)
REMARK    1  A    between atoms: C1_1  and  C2_2
REMARK    2  A    between atoms: C2_2  and  C3_3
REMARK    3  A    between atoms: C3_3  and  C4_4
REMARK    4  A    between atoms: C3_3  and  C5_5
REMARK    5  A    between atoms: N5_19  and  C15_20
REMARK    6  A    between atoms: C15_20  and  C16_21
REMARK    7  A    between atoms: C20_25  and  C21_26
REMARK                            x       y       z     vdW  Elec       q    Type
REMARK                         _______ _______ _______ _____ _____    ______ ____
ROOT
ATOM      1  C5  UNL     1      22.076   6.272  34.880  0.00  0.00    +0.138 A 
ATOM      2  N1  UNL     1      20.895   5.672  35.137  0.00  0.00    -0.132 NA
ATOM      3  N2  UNL     1      20.681   4.792  34.171  0.00  0.00    -0.113 NA
ATOM      4  C6  UNL     1      21.732   4.877  33.334  0.00  0.00    +0.220 A 
ATOM      5  N3  UNL     1      21.884   4.043  32.177  0.00  0.00    -0.297 N 
ATOM      6  C7  UNL     1      21.652   2.602  32.273  0.00  0.00    +0.123 C 
ATOM      7  C8  UNL     1      20.424   2.216  31.436  0.00  0.00    +0.103 C 
ATOM      8  N4  UNL     1      20.489   2.748  30.056  0.00  0.00    -0.296 NA
ATOM      9  C9  UNL     1      21.459   2.009  29.219  0.00  0.00    +0.085 C 
ATOM     10  C10 UNL     1      21.392   2.492  27.769  0.00  0.00    +0.015 C 
ATOM     11  C11 UNL     1      21.669   3.993  27.693  0.00  0.00    +0.003 C 
ATOM     12  C12 UNL     1      20.709   4.767  28.601  0.00  0.00    +0.020 C 
ATOM     13  C13 UNL     1      20.698   4.218  30.043  0.00  0.00    +0.074 C 
ATOM     14  C14 UNL     1      21.951   4.635  30.840  0.00  0.00    +0.126 C 
ATOM     15  N5  UNL     1      22.628   5.802  33.737  0.00  0.00    -0.293 N 
ENDROOT
BRANCH   1  16
ATOM     16  C3  UNL     1      22.685   7.315  35.791  0.00  0.00    +0.054 C 
ATOM     17  C4  UNL     1      23.230   6.644  37.057  0.00  0.00    +0.015 C 
BRANCH  16  19
ATOM     18  C1  UNL     1      21.359   9.331  34.975  0.00  0.00    +0.004 C 
ATOM     19  C2  UNL     1      21.652   8.400  36.152  0.00  0.00    +0.007 C 
ENDBRANCH  16  19
ENDBRANCH   1  16
BRANCH  15  20
ATOM     20  C15 UNL     1      23.976   6.038  33.210  0.00  0.00    +0.181 C 
BRANCH  20  21
ATOM     21  C16 UNL     1      24.068   7.426  32.648  0.00  0.00    +0.062 A 
ATOM     22  C17 UNL     1      25.228   8.193  32.824  0.00  0.00    +0.025 A 
ATOM     23  C18 UNL     1      25.259   9.502  32.341  0.00  0.00    +0.004 A 
ATOM     24  C19 UNL     1      24.140  10.037  31.701  0.00  0.00    +0.032 A 
ATOM     25  C20 UNL     1      22.991   9.247  31.549  0.00  0.00    +0.144 A 
ATOM     26  N6  UNL     1      22.987   7.972  32.028  0.00  0.00    -0.246 NA
BRANCH  25  27
ATOM     27  C21 UNL     1      21.764   9.805  30.890  0.00  0.00    +0.434 C 
ATOM     28  F1  UNL     1      21.096   8.816  30.191  0.00  0.00    -0.164 F 
ATOM     29  F2  UNL     1      20.918  10.324  31.853  0.00  0.00    -0.164 F 
ATOM     30  F3  UNL     1      22.125  10.810  30.011  0.00  0.00    -0.164 F 
ENDBRANCH  25  27
ENDBRANCH  20  21
ENDBRANCH  15  20
TORSDOF 5
ENDMDL
MODEL 2
REMARK VINA RESULT:    -6.051      3.694      7.004
REMARK INTER + INTRA:          -9.255
REMARK INTER:                  -8.147
REMARK INTRA:                  -1.109
REMARK UNBOUND:                -1.436
REMARK  Name = /home/qwerty/github/datacon2025hack/step_04_hit_selection/docking/ligands/lig_167.pdb
REMARK  7 active torsions:
REMARK  status: ('A' for Active; 'I' for Inactive)
REMARK    1  A    between atoms: C1_1  and  C2_2
REMARK    2  A    between atoms: C2_2  and  C3_3
REMARK    3  A    between atoms: C3_3  and  C4_4
REMARK    4  A    between atoms: C3_3  and  C5_5
REMARK    5  A    between atoms: N5_19  and  C15_20
REMARK    6  A    between atoms: C15_20  and  C16_21
REMARK    7  A    between atoms: C20_25  and  C21_26
REMARK                            x       y       z     vdW  Elec       q    Type
REMARK                         _______ _______ _______ _____ _____    ______ ____
ROOT
ATOM      1  C5  UNL     1      18.401   2.899  34.788  0.00  0.00    +0.138 A 
ATOM      2  N1  UNL     1      17.795   4.104  34.845  0.00  0.00    -0.132 NA
ATOM      3  N2  UNL     1      18.622   4.987  34.306  0.00  0.00    -0.113 NA
ATOM      4  C6  UNL     1      19.724   4.308  33.938  0.00  0.00    +0.220 A 
ATOM      5  N3  UNL     1      20.838   4.920  33.273  0.00  0.00    -0.297 N 
ATOM      6  C7  UNL     1      20.615   5.827  32.147  0.00  0.00    +0.123 C 
ATOM      7  C8  UNL     1      21.054   7.248  32.530  0.00  0.00    +0.103 C 
ATOM      8  N4  UNL     1      22.420   7.285  33.103  0.00  0.00    -0.296 NA
ATOM      9  C9  UNL     1      23.462   7.096  32.070  0.00  0.00    +0.085 C 
ATOM     10  C10 UNL     1      24.854   7.284  32.674  0.00  0.00    +0.015 C 
ATOM     11  C11 UNL     1      25.073   6.303  33.827  0.00  0.00    +0.003 C 
ATOM     12  C12 UNL     1      23.967   6.447  34.876  0.00  0.00    +0.020 C 
ATOM     13  C13 UNL     1      22.557   6.359  34.256  0.00  0.00    +0.074 C 
ATOM     14  C14 UNL     1      22.164   4.912  33.891  0.00  0.00    +0.126 C 
ATOM     15  N5  UNL     1      19.632   2.994  34.231  0.00  0.00    -0.293 N 
ENDROOT
BRANCH   1  16
ATOM     16  C3  UNL     1      17.748   1.625  35.273  0.00  0.00    +0.054 C 
ATOM     17  C4  UNL     1      16.249   1.658  34.954  0.00  0.00    +0.015 C 
BRANCH  16  19
ATOM     18  C1  UNL     1      16.730   1.765  37.604  0.00  0.00    +0.004 C 
ATOM     19  C2  UNL     1      17.977   1.429  36.784  0.00  0.00    +0.007 C 
ENDBRANCH  16  19
ENDBRANCH   1  16
BRANCH  15  20
ATOM     20  C15 UNL     1      20.527   1.913  33.808  0.00  0.00    +0.181 C 
BRANCH  20  21
ATOM     21  C16 UNL     1      20.354   1.651  32.341  0.00  0.00    +0.062 A 
ATOM     22  C17 UNL     1      19.092   1.350  31.812  0.00  0.00    +0.025 A 
ATOM     23  C18 UNL     1      18.975   1.052  30.454  0.00  0.00    +0.004 A 
ATOM     24  C19 UNL     1      20.109   1.046  29.640  0.00  0.00    +0.032 A 
ATOM     25  C20 UNL     1      21.360   1.344  30.202  0.00  0.00    +0.144 A 
ATOM     26  N6  UNL     1      21.446   1.632  31.530  0.00  0.00    -0.246 NA
BRANCH  25  27
ATOM     27  C21 UNL     1      22.599   1.318  29.357  0.00  0.00    +0.434 C 
ATOM     28  F1  UNL     1      22.654   0.154  28.611  0.00  0.00    -0.164 F 
ATOM     29  F2  UNL     1      22.597   2.401  28.498  0.00  0.00    -0.164 F 
ATOM     30  F3  UNL     1      23.717   1.383  30.169  0.00  0.00    -0.164 F 
ENDBRANCH  25  27
ENDBRANCH  20  21
ENDBRANCH  15  20
TORSDOF 5
ENDMDL
MODEL 3
REMARK VINA RESULT:    -6.043      8.676     12.667
REMARK INTER + INTRA:          -9.245
REMARK INTER:                  -8.120
REMARK INTRA:                  -1.126
REMARK UNBOUND:                -1.436
REMARK  Name = /home/qwerty/github/datacon2025hack/step_04_hit_selection/docking/ligands/lig_167.pdb
REMARK  7 active torsions:
REMARK  status: ('A' for Active; 'I' for Inactive)
REMARK    1  A    between atoms: C1_1  and  C2_2
REMARK    2  A    between atoms: C2_2  and  C3_3
REMARK    3  A    between atoms: C3_3  and  C4_4
REMARK    4  A    between atoms: C3_3  and  C5_5
REMARK    5  A    between atoms: N5_19  and  C15_20
REMARK    6  A    between atoms: C15_20  and  C16_21
REMARK    7  A    between atoms: C20_25  and  C21_26
REMARK                            x       y       z     vdW  Elec       q    Type
REMARK                         _______ _______ _______ _____ _____    ______ ____
ROOT
ATOM      1  C5  UNL     1      16.128  -1.278  23.790  0.00  0.00    +0.138 A 
ATOM      2  N1  UNL     1      16.452  -1.634  22.529  0.00  0.00    -0.132 NA
ATOM      3  N2  UNL     1      16.234  -0.583  21.754  0.00  0.00    -0.113 NA
ATOM      4  C6  UNL     1      15.771   0.395  22.554  0.00  0.00    +0.220 A 
ATOM      5  N3  UNL     1      15.458   1.713  22.081  0.00  0.00    -0.297 N 
ATOM      6  C7  UNL     1      16.385   2.419  21.198  0.00  0.00    +0.123 C 
ATOM      7  C8  UNL     1      15.744   2.609  19.816  0.00  0.00    +0.103 C 
ATOM      8  N4  UNL     1      14.388   3.198  19.896  0.00  0.00    -0.296 NA
ATOM      9  C9  UNL     1      14.425   4.639  20.227  0.00  0.00    +0.085 C 
ATOM     10  C10 UNL     1      13.021   5.240  20.158  0.00  0.00    +0.015 C 
ATOM     11  C11 UNL     1      12.078   4.507  21.113  0.00  0.00    +0.003 C 
ATOM     12  C12 UNL     1      12.075   3.004  20.821  0.00  0.00    +0.020 C 
ATOM     13  C13 UNL     1      13.499   2.411  20.789  0.00  0.00    +0.074 C 
ATOM     14  C14 UNL     1      14.097   2.239  22.201  0.00  0.00    +0.126 C 
ATOM     15  N5  UNL     1      15.679  -0.001  23.840  0.00  0.00    -0.293 N 
ENDROOT
BRANCH   1  16
ATOM     16  C3  UNL     1      16.283  -2.206  24.973  0.00  0.00    +0.054 C 
ATOM     17  C4  UNL     1      17.531  -3.077  24.789  0.00  0.00    +0.015 C 
BRANCH  16  19
ATOM     18  C1  UNL     1      13.934  -2.371  25.945  0.00  0.00    +0.004 C 
ATOM     19  C2  UNL     1      15.029  -3.085  25.152  0.00  0.00    +0.007 C 
ENDBRANCH  16  19
ENDBRANCH   1  16
BRANCH  15  20
ATOM     20  C15 UNL     1      15.415   0.827  25.021  0.00  0.00    +0.181 C 
BRANCH  20  21
ATOM     21  C16 UNL     1      16.697   1.101  25.749  0.00  0.00    +0.062 A 
ATOM     22  C17 UNL     1      16.852   0.726  27.090  0.00  0.00    +0.025 A 
ATOM     23  C18 UNL     1      18.035   1.050  27.757  0.00  0.00    +0.004 A 
ATOM     24  C19 UNL     1      19.043   1.748  27.090  0.00  0.00    +0.032 A 
ATOM     25  C20 UNL     1      18.854   2.116  25.750  0.00  0.00    +0.144 A 
ATOM     26  N6  UNL     1      17.691   1.788  25.123  0.00  0.00    -0.246 NA
BRANCH  25  27
ATOM     27  C21 UNL     1      19.909   2.892  25.018  0.00  0.00    +0.434 C 
ATOM     28  F1  UNL     1      21.043   2.119  24.836  0.00  0.00    -0.164 F 
ATOM     29  F2  UNL     1      19.426   3.276  23.780  0.00  0.00    -0.164 F 
ATOM     30  F3  UNL     1      20.247   4.019  25.745  0.00  0.00    -0.164 F 
ENDBRANCH  25  27
ENDBRANCH  20  21
ENDBRANCH  15  20
TORSDOF 5
ENDMDL
MODEL 4
REMARK VINA RESULT:    -5.996     12.876     15.499
REMARK INTER + INTRA:          -9.184
REMARK INTER:                  -7.893
REMARK INTRA:                  -1.291
REMARK UNBOUND:                -1.436
REMARK  Name = /home/qwerty/github/datacon2025hack/step_04_hit_selection/docking/ligands/lig_167.pdb
REMARK  7 active torsions:
REMARK  status: ('A' for Active; 'I' for Inactive)
REMARK    1  A    between atoms: C1_1  and  C2_2
REMARK    2  A    between atoms: C2_2  and  C3_3
REMARK    3  A    between atoms: C3_3  and  C4_4
REMARK    4  A    between atoms: C3_3  and  C5_5
REMARK    5  A    between atoms: N5_19  and  C15_20
REMARK    6  A    between atoms: C15_20  and  C16_21
REMARK    7  A    between atoms: C20_25  and  C21_26
REMARK                            x       y       z     vdW  Elec       q    Type
REMARK                         _______ _______ _______ _____ _____    ______ ____
ROOT
ATOM      1  C5  UNL     1       9.579   4.007  22.294  0.00  0.00    +0.138 A 
ATOM      2  N1  UNL     1       9.624   2.711  21.919  0.00  0.00    -0.132 NA
ATOM      3  N2  UNL     1      10.895   2.341  21.931  0.00  0.00    -0.113 NA
ATOM      4  C6  UNL     1      11.606   3.420  22.304  0.00  0.00    +0.220 A 
ATOM      5  N3  UNL     1      13.031   3.401  22.475  0.00  0.00    -0.297 N 
ATOM      6  C7  UNL     1      13.669   2.312  23.212  0.00  0.00    +0.123 C 
ATOM      7  C8  UNL     1      14.547   1.485  22.262  0.00  0.00    +0.103 C 
ATOM      8  N4  UNL     1      15.470   2.326  21.467  0.00  0.00    -0.296 NA
ATOM      9  C9  UNL     1      16.596   2.838  22.278  0.00  0.00    +0.085 C 
ATOM     10  C10 UNL     1      17.599   3.579  21.393  0.00  0.00    +0.015 C 
ATOM     11  C11 UNL     1      16.915   4.732  20.658  0.00  0.00    +0.003 C 
ATOM     12  C12 UNL     1      15.711   4.224  19.860  0.00  0.00    +0.020 C 
ATOM     13  C13 UNL     1      14.744   3.390  20.727  0.00  0.00    +0.074 C 
ATOM     14  C14 UNL     1      13.886   4.267  21.661  0.00  0.00    +0.126 C 
ATOM     15  N5  UNL     1      10.820   4.492  22.532  0.00  0.00    -0.293 N 
ENDROOT
BRANCH   1  16
ATOM     16  C3  UNL     1       8.286   4.777  22.440  0.00  0.00    +0.054 C 
ATOM     17  C4  UNL     1       7.294   3.970  23.285  0.00  0.00    +0.015 C 
BRANCH  16  19
ATOM     18  C1  UNL     1       7.015   6.484  21.040  0.00  0.00    +0.004 C 
ATOM     19  C2  UNL     1       7.682   5.108  21.061  0.00  0.00    +0.007 C 
ENDBRANCH  16  19
ENDBRANCH   1  16
BRANCH  15  20
ATOM     20  C15 UNL     1      11.197   5.772  23.141  0.00  0.00    +0.181 C 
BRANCH  20  21
ATOM     21  C16 UNL     1      10.783   6.903  22.248  0.00  0.00    +0.062 A 
ATOM     22  C17 UNL     1      11.286   7.007  20.944  0.00  0.00    +0.025 A 
ATOM     23  C18 UNL     1      10.929   8.104  20.160  0.00  0.00    +0.004 A 
ATOM     24  C19 UNL     1      10.089   9.089  20.680  0.00  0.00    +0.032 A 
ATOM     25  C20 UNL     1       9.609   8.962  21.992  0.00  0.00    +0.144 A 
ATOM     26  N6  UNL     1       9.972   7.881  22.736  0.00  0.00    -0.246 NA
BRANCH  25  27
ATOM     27  C21 UNL     1       8.726  10.020  22.586  0.00  0.00    +0.434 C 
ATOM     28  F1  UNL     1       9.232  10.449  23.801  0.00  0.00    -0.164 F 
ATOM     29  F2  UNL     1       8.653  11.099  21.725  0.00  0.00    -0.164 F 
ATOM     30  F3  UNL     1       7.456   9.509  22.785  0.00  0.00    -0.164 F 
ENDBRANCH  25  27
ENDBRANCH  20  21
ENDBRANCH  15  20
TORSDOF 5
ENDMDL
MODEL 5
REMARK VINA RESULT:    -5.965      3.307      6.811
REMARK INTER + INTRA:          -9.144
REMARK INTER:                  -8.170
REMARK INTRA:                  -0.974
REMARK UNBOUND:                -1.436
REMARK  Name = /home/qwerty/github/datacon2025hack/step_04_hit_selection/docking/ligands/lig_167.pdb
REMARK  7 active torsions:
REMARK  status: ('A' for Active; 'I' for Inactive)
REMARK    1  A    between atoms: C1_1  and  C2_2
REMARK    2  A    between atoms: C2_2  and  C3_3
REMARK    3  A    between atoms: C3_3  and  C4_4
REMARK    4  A    between atoms: C3_3  and  C5_5
REMARK    5  A    between atoms: N5_19  and  C15_20
REMARK    6  A    between atoms: C15_20  and  C16_21
REMARK    7  A    between atoms: C20_25  and  C21_26
REMARK                            x       y       z     vdW  Elec       q    Type
REMARK                         _______ _______ _______ _____ _____    ______ ____
ROOT
ATOM      1  C5  UNL     1      23.506   7.058  34.017  0.00  0.00    +0.138 A 
ATOM      2  N1  UNL     1      23.866   6.741  35.279  0.00  0.00    -0.132 NA
ATOM      3  N2  UNL     1      22.768   6.766  36.019  0.00  0.00    -0.113 NA
ATOM      4  C6  UNL     1      21.758   7.107  35.199  0.00  0.00    +0.220 A 
ATOM      5  N3  UNL     1      20.393   7.198  35.630  0.00  0.00    -0.297 N 
ATOM      6  C7  UNL     1      19.809   6.139  36.452  0.00  0.00    +0.123 C 
ATOM      7  C8  UNL     1      19.477   6.688  37.848  0.00  0.00    +0.103 C 
ATOM      8  N4  UNL     1      18.691   7.942  37.791  0.00  0.00    -0.296 NA
ATOM      9  C9  UNL     1      17.284   7.700  37.404  0.00  0.00    +0.085 C 
ATOM     10  C10 UNL     1      16.473   8.993  37.498  0.00  0.00    +0.015 C 
ATOM     11  C11 UNL     1      17.086  10.074  36.606  0.00  0.00    +0.003 C 
ATOM     12  C12 UNL     1      18.560  10.292  36.957  0.00  0.00    +0.020 C 
ATOM     13  C13 UNL     1      19.362   8.974  36.962  0.00  0.00    +0.074 C 
ATOM     14  C14 UNL     1      19.670   8.468  35.538  0.00  0.00    +0.126 C 
ATOM     15  N5  UNL     1      22.178   7.310  33.933  0.00  0.00    -0.293 N 
ENDROOT
BRANCH   1  16
ATOM     16  C3  UNL     1      24.486   7.093  32.866  0.00  0.00    +0.054 C 
ATOM     17  C4  UNL     1      25.538   5.993  33.046  0.00  0.00    +0.015 C 
BRANCH  16  19
ATOM     18  C1  UNL     1      24.402   9.412  31.816  0.00  0.00    +0.004 C 
ATOM     19  C2  UNL     1      25.160   8.475  32.758  0.00  0.00    +0.007 C 
ENDBRANCH  16  19
ENDBRANCH   1  16
BRANCH  15  20
ATOM     20  C15 UNL     1      21.360   7.493  32.731  0.00  0.00    +0.181 C 
BRANCH  20  21
ATOM     21  C16 UNL     1      21.408   6.254  31.887  0.00  0.00    +0.062 A 
ATOM     22  C17 UNL     1      21.538   6.341  30.494  0.00  0.00    +0.025 A 
ATOM     23  C18 UNL     1      21.519   5.172  29.732  0.00  0.00    +0.004 A 
ATOM     24  C19 UNL     1      21.359   3.935  30.357  0.00  0.00    +0.032 A 
ATOM     25  C20 UNL     1      21.222   3.881  31.752  0.00  0.00    +0.144 A 
ATOM     26  N6  UNL     1      21.245   5.037  32.473  0.00  0.00    -0.246 NA
BRANCH  25  27
ATOM     27  C21 UNL     1      21.021   2.567  32.448  0.00  0.00    +0.434 C 
ATOM     28  F1  UNL     1      19.672   2.293  32.590  0.00  0.00    -0.164 F 
ATOM     29  F2  UNL     1      21.608   1.557  31.708  0.00  0.00    -0.164 F 
ATOM     30  F3  UNL     1      21.605   2.610  33.702  0.00  0.00    -0.164 F 
ENDBRANCH  25  27
ENDBRANCH  20  21
ENDBRANCH  15  20
TORSDOF 5
ENDMDL
MODEL 6
REMARK VINA RESULT:    -5.943      2.729      6.728
REMARK INTER + INTRA:          -9.116
REMARK INTER:                  -7.877
REMARK INTRA:                  -1.239
REMARK UNBOUND:                -1.436
REMARK  Name = /home/qwerty/github/datacon2025hack/step_04_hit_selection/docking/ligands/lig_167.pdb
REMARK  7 active torsions:
REMARK  status: ('A' for Active; 'I' for Inactive)
REMARK    1  A    between atoms: C1_1  and  C2_2
REMARK    2  A    between atoms: C2_2  and  C3_3
REMARK    3  A    between atoms: C3_3  and  C4_4
REMARK    4  A    between atoms: C3_3  and  C5_5
REMARK    5  A    between atoms: N5_19  and  C15_20
REMARK    6  A    between atoms: C15_20  and  C16_21
REMARK    7  A    between atoms: C20_25  and  C21_26
REMARK                            x       y       z     vdW  Elec       q    Type
REMARK                         _______ _______ _______ _____ _____    ______ ____
ROOT
ATOM      1  C5  UNL     1      19.522   3.080  32.597  0.00  0.00    +0.138 A 
ATOM      2  N1  UNL     1      18.567   4.033  32.622  0.00  0.00    -0.132 NA
ATOM      3  N2  UNL     1      19.136   5.172  32.258  0.00  0.00    -0.113 NA
ATOM      4  C6  UNL     1      20.433   4.896  32.025  0.00  0.00    +0.220 A 
ATOM      5  N3  UNL     1      21.373   5.878  31.566  0.00  0.00    -0.297 N 
ATOM      6  C7  UNL     1      21.022   6.775  30.466  0.00  0.00    +0.123 C 
ATOM      7  C8  UNL     1      20.941   8.220  30.981  0.00  0.00    +0.103 C 
ATOM      8  N4  UNL     1      22.142   8.615  31.752  0.00  0.00    -0.296 NA
ATOM      9  C9  UNL     1      23.312   8.850  30.879  0.00  0.00    +0.085 C 
ATOM     10  C10 UNL     1      24.487   9.394  31.694  0.00  0.00    +0.015 C 
ATOM     11  C11 UNL     1      24.854   8.422  32.816  0.00  0.00    +0.003 C 
ATOM     12  C12 UNL     1      23.635   8.125  33.694  0.00  0.00    +0.020 C 
ATOM     13  C13 UNL     1      22.415   7.671  32.865  0.00  0.00    +0.074 C 
ATOM     14  C14 UNL     1      22.546   6.215  32.374  0.00  0.00    +0.126 C 
ATOM     15  N5  UNL     1      20.721   3.596  32.235  0.00  0.00    -0.293 N 
ENDROOT
BRANCH   1  16
ATOM     16  C3  UNL     1      19.245   1.628  32.914  0.00  0.00    +0.054 C 
ATOM     17  C4  UNL     1      18.371   1.014  31.815  0.00  0.00    +0.015 C 
BRANCH  16  19
ATOM     18  C1  UNL     1      17.403   0.492  34.258  0.00  0.00    +0.004 C 
ATOM     19  C2  UNL     1      18.566   1.485  34.291  0.00  0.00    +0.007 C 
ENDBRANCH  16  19
ENDBRANCH   1  16
BRANCH  15  20
ATOM     20  C15 UNL     1      21.956   2.881  31.898  0.00  0.00    +0.181 C 
BRANCH  20  21
ATOM     21  C16 UNL     1      21.837   2.273  30.533  0.00  0.00    +0.062 A 
ATOM     22  C17 UNL     1      21.795   0.882  30.370  0.00  0.00    +0.025 A 
ATOM     23  C18 UNL     1      21.746   0.346  29.083  0.00  0.00    +0.004 A 
ATOM     24  C19 UNL     1      21.750   1.194  27.974  0.00  0.00    +0.032 A 
ATOM     25  C20 UNL     1      21.802   2.582  28.169  0.00  0.00    +0.144 A 
ATOM     26  N6  UNL     1      21.848   3.079  29.436  0.00  0.00    -0.246 NA
BRANCH  25  27
ATOM     27  C21 UNL     1      21.835   3.515  26.995  0.00  0.00    +0.434 C 
ATOM     28  F1  UNL     1      22.009   4.821  27.417  0.00  0.00    -0.164 F 
ATOM     29  F2  UNL     1      22.882   3.171  26.160  0.00  0.00    -0.164 F 
ATOM     30  F3  UNL     1      20.646   3.425  26.295  0.00  0.00    -0.164 F 
ENDBRANCH  25  27
ENDBRANCH  20  21
ENDBRANCH  15  20
TORSDOF 5
ENDMDL
MODEL 7
REMARK VINA RESULT:    -5.891     13.332     15.477
REMARK INTER + INTRA:          -9.049
REMARK INTER:                  -7.847
REMARK INTRA:                  -1.202
REMARK UNBOUND:                -1.436
REMARK  Name = /home/qwerty/github/datacon2025hack/step_04_hit_selection/docking/ligands/lig_167.pdb
REMARK  7 active torsions:
REMARK  status: ('A' for Active; 'I' for Inactive)
REMARK    1  A    between atoms: C1_1  and  C2_2
REMARK    2  A    between atoms: C2_2  and  C3_3
REMARK    3  A    between atoms: C3_3  and  C4_4
REMARK    4  A    between atoms: C3_3  and  C5_5
REMARK    5  A    between atoms: N5_19  and  C15_20
REMARK    6  A    between atoms: C15_20  and  C16_21
REMARK    7  A    between atoms: C20_25  and  C21_26
REMARK                            x       y       z     vdW  Elec       q    Type
REMARK                         _______ _______ _______ _____ _____    ______ ____
ROOT
ATOM      1  C5  UNL     1       9.517   5.054  21.998  0.00  0.00    +0.138 A 
ATOM      2  N1  UNL     1       9.471   4.036  21.112  0.00  0.00    -0.132 NA
ATOM      3  N2  UNL     1      10.711   3.602  20.945  0.00  0.00    -0.113 NA
ATOM      4  C6  UNL     1      11.495   4.369  21.724  0.00  0.00    +0.220 A 
ATOM      5  N3  UNL     1      12.911   4.175  21.845  0.00  0.00    -0.297 N 
ATOM      6  C7  UNL     1      13.455   2.833  22.046  0.00  0.00    +0.123 C 
ATOM      7  C8  UNL     1      14.284   2.419  20.820  0.00  0.00    +0.103 C 
ATOM      8  N4  UNL     1      15.278   3.446  20.436  0.00  0.00    -0.296 NA
ATOM      9  C9  UNL     1      16.427   3.485  21.367  0.00  0.00    +0.085 C 
ATOM     10  C10 UNL     1      17.496   4.452  20.857  0.00  0.00    +0.015 C 
ATOM     11  C11 UNL     1      16.910   5.854  20.687  0.00  0.00    +0.003 C 
ATOM     12  C12 UNL     1      15.684   5.820  19.771  0.00  0.00    +0.020 C 
ATOM     13  C13 UNL     1      14.645   4.772  20.224  0.00  0.00    +0.074 C 
ATOM     14  C14 UNL     1      13.840   5.236  21.455  0.00  0.00    +0.126 C 
ATOM     15  N5  UNL     1      10.788   5.301  22.396  0.00  0.00    -0.293 N 
ENDROOT
BRANCH   1  16
ATOM     16  C3  UNL     1       8.283   5.784  22.477  0.00  0.00    +0.054 C 
ATOM     17  C4  UNL     1       7.196   4.772  22.857  0.00  0.00    +0.015 C 
BRANCH  16  19
ATOM     18  C1  UNL     1       6.510   6.234  20.705  0.00  0.00    +0.004 C 
ATOM     19  C2  UNL     1       7.767   6.759  21.401  0.00  0.00    +0.007 C 
ENDBRANCH  16  19
ENDBRANCH   1  16
BRANCH  15  20
ATOM     20  C15 UNL     1      11.250   6.174  23.479  0.00  0.00    +0.181 C 
BRANCH  20  21
ATOM     21  C16 UNL     1      10.922   7.602  23.158  0.00  0.00    +0.062 A 
ATOM     22  C17 UNL     1      10.249   8.408  24.087  0.00  0.00    +0.025 A 
ATOM     23  C18 UNL     1       9.906   9.714  23.735  0.00  0.00    +0.004 A 
ATOM     24  C19 UNL     1      10.223  10.200  22.466  0.00  0.00    +0.032 A 
ATOM     25  C20 UNL     1      10.889   9.367  21.555  0.00  0.00    +0.144 A 
ATOM     26  N6  UNL     1      11.214   8.096  21.924  0.00  0.00    -0.246 NA
BRANCH  25  27
ATOM     27  C21 UNL     1      11.217   9.854  20.175  0.00  0.00    +0.434 C 
ATOM     28  F1  UNL     1      10.294  10.798  19.761  0.00  0.00    -0.164 F 
ATOM     29  F2  UNL     1      12.476  10.427  20.174  0.00  0.00    -0.164 F 
ATOM     30  F3  UNL     1      11.200   8.791  19.290  0.00  0.00    -0.164 F 
ENDBRANCH  25  27
ENDBRANCH  20  21
ENDBRANCH  15  20
TORSDOF 5
ENDMDL
MODEL 8
REMARK VINA RESULT:    -5.862     14.040     16.195
REMARK INTER + INTRA:          -9.011
REMARK INTER:                  -7.942
REMARK INTRA:                  -1.069
REMARK UNBOUND:                -1.436
REMARK  Name = /home/qwerty/github/datacon2025hack/step_04_hit_selection/docking/ligands/lig_167.pdb
REMARK  7 active torsions:
REMARK  status: ('A' for Active; 'I' for Inactive)
REMARK    1  A    between atoms: C1_1  and  C2_2
REMARK    2  A    between atoms: C2_2  and  C3_3
REMARK    3  A    between atoms: C3_3  and  C4_4
REMARK    4  A    between atoms: C3_3  and  C5_5
REMARK    5  A    between atoms: N5_19  and  C15_20
REMARK    6  A    between atoms: C15_20  and  C16_21
REMARK    7  A    between atoms: C20_25  and  C21_26
REMARK                            x       y       z     vdW  Elec       q    Type
REMARK                         _______ _______ _______ _____ _____    ______ ____
ROOT
ATOM      1  C5  UNL     1      10.654   2.697  22.683  0.00  0.00    +0.138 A 
ATOM      2  N1  UNL     1      10.033   3.184  23.778  0.00  0.00    -0.132 NA
ATOM      3  N2  UNL     1       9.674   4.429  23.507  0.00  0.00    -0.113 NA
ATOM      4  C6  UNL     1      10.092   4.685  22.253  0.00  0.00    +0.220 A 
ATOM      5  N3  UNL     1       9.848   5.930  21.584  0.00  0.00    -0.297 N 
ATOM      6  C7  UNL     1       8.519   6.538  21.621  0.00  0.00    +0.123 C 
ATOM      7  C8  UNL     1       8.572   7.858  22.405  0.00  0.00    +0.103 C 
ATOM      8  N4  UNL     1       9.656   8.752  21.936  0.00  0.00    -0.296 NA
ATOM      9  C9  UNL     1       9.336   9.381  20.637  0.00  0.00    +0.085 C 
ATOM     10  C10 UNL     1      10.408  10.403  20.258  0.00  0.00    +0.015 C 
ATOM     11  C11 UNL     1      11.783   9.736  20.195  0.00  0.00    +0.003 C 
ATOM     12  C12 UNL     1      12.102   9.030  21.515  0.00  0.00    +0.020 C 
ATOM     13  C13 UNL     1      10.976   8.071  21.953  0.00  0.00    +0.074 C 
ATOM     14  C14 UNL     1      10.966   6.762  21.137  0.00  0.00    +0.126 C 
ATOM     15  N5  UNL     1      10.721   3.627  21.702  0.00  0.00    -0.293 N 
ENDROOT
BRANCH   1  16
ATOM     16  C3  UNL     1      11.174   1.280  22.594  0.00  0.00    +0.054 C 
ATOM     17  C4  UNL     1       9.999   0.295  22.594  0.00  0.00    +0.015 C 
BRANCH  16  19
ATOM     18  C1  UNL     1      13.383   1.862  23.720  0.00  0.00    +0.004 C 
ATOM     19  C2  UNL     1      12.139   0.973  23.756  0.00  0.00    +0.007 C 
ENDBRANCH  16  19
ENDBRANCH   1  16
BRANCH  15  20
ATOM     20  C15 UNL     1      11.130   3.451  20.305  0.00  0.00    +0.181 C 
BRANCH  20  21
ATOM     21  C16 UNL     1      12.624   3.522  20.198  0.00  0.00    +0.062 A 
ATOM     22  C17 UNL     1      13.269   4.747  19.978  0.00  0.00    +0.025 A 
ATOM     23  C18 UNL     1      14.655   4.771  19.823  0.00  0.00    +0.004 A 
ATOM     24  C19 UNL     1      15.383   3.581  19.876  0.00  0.00    +0.032 A 
ATOM     25  C20 UNL     1      14.709   2.370  20.088  0.00  0.00    +0.144 A 
ATOM     26  N6  UNL     1      13.355   2.374  20.238  0.00  0.00    -0.246 NA
BRANCH  25  27
ATOM     27  C21 UNL     1      15.463   1.073  20.122  0.00  0.00    +0.434 C 
ATOM     28  F1  UNL     1      15.299   0.447  21.345  0.00  0.00    -0.164 F 
ATOM     29  F2  UNL     1      14.994   0.239  19.125  0.00  0.00    -0.164 F 
ATOM     30  F3  UNL     1      16.810   1.314  19.919  0.00  0.00    -0.164 F 
ENDBRANCH  25  27
ENDBRANCH  20  21
ENDBRANCH  15  20
TORSDOF 5
ENDMDL
MODEL 9
REMARK VINA RESULT:    -5.851     13.501     16.159
REMARK INTER + INTRA:          -8.997
REMARK INTER:                  -7.552
REMARK INTRA:                  -1.445
REMARK UNBOUND:                -1.436
REMARK  Name = /home/qwerty/github/datacon2025hack/step_04_hit_selection/docking/ligands/lig_167.pdb
REMARK  7 active torsions:
REMARK  status: ('A' for Active; 'I' for Inactive)
REMARK    1  A    between atoms: C1_1  and  C2_2
REMARK    2  A    between atoms: C2_2  and  C3_3
REMARK    3  A    between atoms: C3_3  and  C4_4
REMARK    4  A    between atoms: C3_3  and  C5_5
REMARK    5  A    between atoms: N5_19  and  C15_20
REMARK    6  A    between atoms: C15_20  and  C16_21
REMARK    7  A    between atoms: C20_25  and  C21_26
REMARK                            x       y       z     vdW  Elec       q    Type
REMARK                         _______ _______ _______ _____ _____    ______ ____
ROOT
ATOM      1  C5  UNL     1       8.658   6.900  23.426  0.00  0.00    +0.138 A 
ATOM      2  N1  UNL     1       8.742   6.138  24.537  0.00  0.00    -0.132 NA
ATOM      3  N2  UNL     1       8.698   6.955  25.579  0.00  0.00    -0.113 NA
ATOM      4  C6  UNL     1       8.597   8.203  25.085  0.00  0.00    +0.220 A 
ATOM      5  N3  UNL     1       8.480   9.368  25.914  0.00  0.00    -0.297 N 
ATOM      6  C7  UNL     1       7.546   9.380  27.039  0.00  0.00    +0.123 C 
ATOM      7  C8  UNL     1       8.325   9.466  28.360  0.00  0.00    +0.103 C 
ATOM      8  N4  UNL     1       9.319  10.564  28.361  0.00  0.00    -0.296 NA
ATOM      9  C9  UNL     1       8.682  11.892  28.493  0.00  0.00    +0.085 C 
ATOM     10  C10 UNL     1       9.745  12.983  28.636  0.00  0.00    +0.015 C 
ATOM     11  C11 UNL     1      10.688  12.970  27.432  0.00  0.00    +0.003 C 
ATOM     12  C12 UNL     1      11.310  11.583  27.248  0.00  0.00    +0.020 C 
ATOM     13  C13 UNL     1      10.246  10.466  27.205  0.00  0.00    +0.074 C 
ATOM     14  C14 UNL     1       9.495  10.421  25.858  0.00  0.00    +0.126 C 
ATOM     15  N5  UNL     1       8.579   8.215  23.736  0.00  0.00    -0.293 N 
ENDROOT
BRANCH   1  16
ATOM     16  C3  UNL     1       8.635   6.319  22.030  0.00  0.00    +0.054 C 
ATOM     17  C4  UNL     1       7.569   5.221  21.943  0.00  0.00    +0.015 C 
BRANCH  16  19
ATOM     18  C1  UNL     1      10.489   6.287  20.284  0.00  0.00    +0.004 C 
ATOM     19  C2  UNL     1      10.020   5.763  21.642  0.00  0.00    +0.007 C 
ENDBRANCH  16  19
ENDBRANCH   1  16
BRANCH  15  20
ATOM     20  C15 UNL     1       8.279   9.344  22.850  0.00  0.00    +0.181 C 
BRANCH  20  21
ATOM     21  C16 UNL     1       9.462   9.635  21.976  0.00  0.00    +0.062 A 
ATOM     22  C17 UNL     1       9.292  10.213  20.710  0.00  0.00    +0.025 A 
ATOM     23  C18 UNL     1      10.407  10.415  19.897  0.00  0.00    +0.004 A 
ATOM     24  C19 UNL     1      11.674  10.032  20.341  0.00  0.00    +0.032 A 
ATOM     25  C20 UNL     1      11.810   9.448  21.609  0.00  0.00    +0.144 A 
ATOM     26  N6  UNL     1      10.706   9.263  22.384  0.00  0.00    -0.246 NA
BRANCH  25  27
ATOM     27  C21 UNL     1      13.156   9.002  22.101  0.00  0.00    +0.434 C 
ATOM     28  F1  UNL     1      13.312   7.639  21.918  0.00  0.00    -0.164 F 
ATOM     29  F2  UNL     1      14.147   9.665  21.402  0.00  0.00    -0.164 F 
ATOM     30  F3  UNL     1      13.277   9.290  23.449  0.00  0.00    -0.164 F 
ENDBRANCH  25  27
ENDBRANCH  20  21
ENDBRANCH  15  20
TORSDOF 5
ENDMDL
