REMARK  Name = /home/qwerty/github/datacon2025hack/step_04_hit_selection/docking/ligands/lig_477.pdb
REMARK  7 active torsions:
REMARK  status: ('A' for Active; 'I' for Inactive)
REMARK    1  A    between atoms: C1_1  and  O1_2
REMARK    2  A    between atoms: O1_2  and  C2_3
REMARK    3  A    between atoms: C4_5  and  N1_6
REMARK    4  A    between atoms: C5_7  and  C6_9
REMARK    5  A    between atoms: C9_12  and  C10_13
REMARK    6  A    between atoms: C15_21  and  N2_22
REMARK    7  A    between atoms: C16_23  and  C17_25
REMARK                            x       y       z     vdW  Elec       q    Type
REMARK                         _______ _______ _______ _____ _____    ______ ____
ROOT
ATOM      1  C2  UNL     1      -0.559   0.682  -0.139  0.00  0.00    +0.143 A 
ATOM      2  C3  UNL     1       0.846   0.567  -0.139  0.00  0.00    +0.070 A 
ATOM      3  C4  UNL     1       1.462  -0.697  -0.140  0.00  0.00    +0.037 A 
ATOM      4  C13 UNL     1       0.662  -1.846  -0.113  0.00  0.00    +0.025 A 
ATOM      5  C14 UNL     1      -0.729  -1.742  -0.114  0.00  0.00    +0.029 A 
ATOM      6  C15 UNL     1      -1.350  -0.481  -0.115  0.00  0.00    +0.076 A 
ENDROOT
BRANCH   3   7
ATOM      7  N1  UNL     1       2.893  -0.833  -0.120  0.00  0.00    -0.281 N 
ATOM      8  C5  UNL     1       3.792   0.098  -0.748  0.00  0.00    +0.248 C 
ATOM      9  O2  UNL     1       3.373   0.837  -1.681  0.00  0.00    -0.270 OA
ATOM     10  H5  UNL     1       3.294  -1.716   0.269  0.00  0.00    +0.155 HD
BRANCH   8  11
ATOM     11  C6  UNL     1       5.219   0.166  -0.348  0.00  0.00    +0.037 A 
ATOM     12  C7  UNL     1       5.647  -0.338   0.893  0.00  0.00    +0.013 A 
ATOM     13  C8  UNL     1       6.993  -0.263   1.263  0.00  0.00    +0.013 A 
ATOM     14  C9  UNL     1       7.936   0.337   0.412  0.00  0.00    +0.055 A 
ATOM     15  C11 UNL     1       7.512   0.825  -0.835  0.00  0.00    +0.013 A 
ATOM     16  C12 UNL     1       6.166   0.751  -1.206  0.00  0.00    +0.013 A 
BRANCH  14  17
ATOM     17  C10 UNL     1       9.395   0.373   0.790  0.00  0.00    +0.417 C 
ATOM     18  F1  UNL     1       9.545   0.435   2.164  0.00  0.00    -0.166 F 
ATOM     19  F2  UNL     1      10.015   1.480   0.237  0.00  0.00    -0.166 F 
ATOM     20  F3  UNL     1      10.014  -0.771   0.321  0.00  0.00    -0.166 F 
ENDBRANCH  14  17
ENDBRANCH   8  11
ENDBRANCH   3   7
BRANCH   6  21
ATOM     21  N2  UNL     1      -2.783  -0.369  -0.149  0.00  0.00    -0.279 N 
ATOM     22  C16 UNL     1      -3.664  -1.188   0.643  0.00  0.00    +0.248 C 
ATOM     23  O3  UNL     1      -3.183  -2.016   1.464  0.00  0.00    -0.270 OA
ATOM     24  H12 UNL     1      -3.187   0.377  -0.756  0.00  0.00    +0.155 HD
BRANCH  22  25
ATOM     25  C17 UNL     1      -5.138  -1.074   0.521  0.00  0.00    +0.041 A 
ATOM     26  C18 UNL     1      -5.955  -2.199   0.813  0.00  0.00    +0.017 A 
ATOM     27  C19 UNL     1      -7.356  -2.117   0.711  0.00  0.00    +0.050 A 
ATOM     28  C20 UNL     1      -7.908  -0.902   0.326  0.00  0.00    +0.166 A 
ATOM     29  C21 UNL     1      -7.140   0.182   0.055  0.00  0.00    +0.167 A 
ATOM     30  C22 UNL     1      -5.752   0.146   0.142  0.00  0.00    +0.062 A 
ATOM     31  O4  UNL     1      -7.952   1.246  -0.289  0.00  0.00    -0.453 OA
ATOM     32  C23 UNL     1      -9.314   0.801  -0.235  0.00  0.00    +0.466 C 
ATOM     33  O5  UNL     1      -9.241  -0.576   0.162  0.00  0.00    -0.453 OA
ENDBRANCH  22  25
ENDBRANCH   6  21
BRANCH   1  35
ATOM     34  C1  UNL     1      -0.528   3.186  -0.174  0.00  0.00    +0.277 C 
ATOM     35  O1  UNL     1      -1.200   1.932  -0.148  0.00  0.00    -0.493 OA
ENDBRANCH   1  35
TORSDOF 6
