REMARK  Name = /home/qwerty/github/datacon2025hack/step_04_hit_selection/docking/ligands/lig_618.pdb
REMARK  3 active torsions:
REMARK  status: ('A' for Active; 'I' for Inactive)
REMARK    1  A    between atoms: C1_1  and  C2_2
REMARK    2  A    between atoms: C8_8  and  N1_9
REMARK    3  A    between atoms: N1_9  and  C9_10
REMARK                            x       y       z     vdW  Elec       q    Type
REMARK                         _______ _______ _______ _____ _____    ______ ____
ROOT
ATOM      1  C1  UNL     1      -4.927  -0.625  -1.402  0.00  0.00    +0.044 C 
ATOM      2  C2  UNL     1      -3.993  -0.123  -0.342  0.00  0.00    -0.050 A 
ATOM      3  C3  UNL     1      -4.500   0.592   0.769  0.00  0.00    +0.005 A 
ATOM      4  C4  UNL     1      -3.639   1.033   1.787  0.00  0.00    +0.024 A 
ATOM      5  C5  UNL     1      -2.281   0.739   1.677  0.00  0.00    +0.039 A 
ATOM      6  C6  UNL     1      -1.779   0.031   0.607  0.00  0.00    +0.003 A 
ATOM      7  C7  UNL     1      -2.616  -0.421  -0.414  0.00  0.00    +0.011 A 
ATOM      8  C8  UNL     1      -0.297  -0.161   0.746  0.00  0.00    +0.190 C 
ATOM      9  C15 UNL     1      -0.075   0.543   2.057  0.00  0.00    +0.242 C 
ATOM     10  O1  UNL     1       1.042   0.642   2.629  0.00  0.00    -0.273 OA
ATOM     11  N5  UNL     1      -1.271   1.085   2.606  0.00  0.00    -0.283 N 
ATOM     12  H13 UNL     1      -1.381   1.606   3.504  0.00  0.00    +0.155 HD
ENDROOT
BRANCH   8  13
ATOM     13  N1  UNL     1       0.425   0.511  -0.339  0.00  0.00    -0.328 N 
ATOM     14  H8  UNL     1      -0.073   1.259  -0.875  0.00  0.00    +0.147 HD
BRANCH  13  15
ATOM     15  C9  UNL     1       1.807   0.263  -0.661  0.00  0.00    +0.048 A 
ATOM     16  C10 UNL     1       2.402   0.961  -1.747  0.00  0.00    +0.136 A 
ATOM     17  N2  UNL     1       3.711   0.754  -2.085  0.00  0.00    -0.234 NA
ATOM     18  C11 UNL     1       4.435  -0.132  -1.362  0.00  0.00    +0.158 A 
ATOM     19  N3  UNL     1       5.718  -0.462  -1.539  0.00  0.00    -0.329 N 
ATOM     20  C12 UNL     1       5.946  -1.374  -0.562  0.00  0.00    +0.198 A 
ATOM     21  N4  UNL     1       4.858  -1.625   0.216  0.00  0.00    -0.234 NA
ATOM     22  C13 UNL     1       3.920  -0.823  -0.318  0.00  0.00    +0.109 A 
ATOM     23  C14 UNL     1       2.597  -0.657   0.074  0.00  0.00    +0.056 A 
ATOM     24  H10 UNL     1       6.386  -0.103  -2.257  0.00  0.00    +0.168 HD
ENDBRANCH  13  15
ENDBRANCH   8  13
TORSDOF 2
