REMARK  Name = /home/qwerty/github/datacon2025hack/step_04_hit_selection/docking/ligands/lig_804.pdb
REMARK  6 active torsions:
REMARK  status: ('A' for Active; 'I' for Inactive)
REMARK    1  A    between atoms: C1_1  and  C2_2
REMARK    2  A    between atoms: C6_6  and  C7_7
REMARK    3  A    between atoms: C11_14  and  C12_15
REMARK    4  A    between atoms: N4_18  and  C15_19
REMARK    5  A    between atoms: C15_19  and  C16_20
REMARK    6  A    between atoms: C16_20  and  C17_21
REMARK                            x       y       z     vdW  Elec       q    Type
REMARK                         _______ _______ _______ _____ _____    ______ ____
ROOT
ATOM      1  C7  UNL     1       0.664   2.115   0.019  0.00  0.00    +0.184 A 
ATOM      2  N1  UNL     1       1.731   2.616   0.671  0.00  0.00    -0.126 NA
ATOM      3  N2  UNL     1       2.621   1.640   0.772  0.00  0.00    -0.113 NA
ATOM      4  C8  UNL     1       2.072   0.553   0.197  0.00  0.00    +0.220 A 
ATOM      5  N3  UNL     1       2.725  -0.724   0.154  0.00  0.00    -0.300 N 
ATOM      6  C9  UNL     1       4.115  -0.784  -0.310  0.00  0.00    +0.108 C 
ATOM      7  C10 UNL     1       4.442  -2.197  -0.802  0.00  0.00    +0.022 C 
ATOM      8  C11 UNL     1       4.173  -3.283   0.276  0.00  0.00    -0.011 C 
ATOM      9  C12 UNL     1       5.485  -3.799   0.881  0.00  0.00    +0.007 C 
ATOM     10  C13 UNL     1       3.222  -2.803   1.398  0.00  0.00    +0.022 C 
ATOM     11  C14 UNL     1       2.132  -1.869   0.862  0.00  0.00    +0.108 C 
ATOM     12  N4  UNL     1       0.842   0.812  -0.297  0.00  0.00    -0.294 N 
ENDROOT
BRANCH   1  18
ATOM     13  C1  UNL     1      -2.906   4.942   1.857  0.00  0.00    +0.065 C 
ATOM     14  C2  UNL     1      -2.296   4.260   0.674  0.00  0.00    +0.039 A 
ATOM     15  C3  UNL     1      -2.880   4.381  -0.593  0.00  0.00    +0.023 A 
ATOM     16  C4  UNL     1      -2.277   3.756  -1.685  0.00  0.00    +0.004 A 
ATOM     17  C5  UNL     1      -1.109   3.014  -1.506  0.00  0.00    +0.031 A 
ATOM     18  C6  UNL     1      -0.561   2.895  -0.221  0.00  0.00    +0.108 A 
ATOM     19  N5  UNL     1      -1.155   3.533   0.825  0.00  0.00    -0.249 NA
ENDBRANCH   1  18
BRANCH  12  20
ATOM     20  C15 UNL     1      -0.101  -0.114  -0.932  0.00  0.00    +0.129 C 
BRANCH  20  21
ATOM     21  C16 UNL     1      -1.204  -0.520   0.057  0.00  0.00    +0.055 C 
BRANCH  21  22
ATOM     22  C17 UNL     1      -2.296  -1.380  -0.608  0.00  0.00    +0.146 C 
ATOM     23  C18 UNL     1      -3.131  -0.586  -1.647  0.00  0.00    +0.191 C 
ATOM     24  O1  UNL     1      -4.442  -1.104  -1.700  0.00  0.00    -0.375 OA
ATOM     25  C19 UNL     1      -5.095  -0.868  -0.465  0.00  0.00    +0.188 C 
ATOM     26  C20 UNL     1      -4.194  -1.172   0.751  0.00  0.00    +0.188 C 
ATOM     27  O2  UNL     1      -3.109  -2.000   0.382  0.00  0.00    -0.372 OA
ENDBRANCH  21  22
ENDBRANCH  20  21
ENDBRANCH  12  20
TORSDOF 4
