REMARK  Name = /home/qwerty/github/datacon2025hack/step_04_hit_selection/docking/ligands/lig_34.pdb
REMARK  8 active torsions:
REMARK  status: ('A' for Active; 'I' for Inactive)
REMARK    1  A    between atoms: C1_1  and  C2_2
REMARK    2  A    between atoms: C2_2  and  N1_3
REMARK    3  A    between atoms: N2_6  and  C5_7
REMARK    4  A    between atoms: C8_10  and  N3_11
REMARK    5  A    between atoms: C9_12  and  C10_14
REMARK    6  A    between atoms: C12_16  and  C13_17
REMARK    7  A    between atoms: C12_16  and  O2_18
REMARK    8  A    between atoms: C16_21  and  O3_22
REMARK                            x       y       z     vdW  Elec       q    Type
REMARK                         _______ _______ _______ _____ _____    ______ ____
ROOT
ATOM      1  N3  UNL     1      -2.134  -1.326  -0.802  0.00  0.00    -0.282 N 
ATOM      2  C9  UNL     1      -3.076  -1.182   0.277  0.00  0.00    +0.247 C 
ATOM      3  O1  UNL     1      -2.646  -1.141   1.463  0.00  0.00    -0.270 OA
ATOM      4  H12 UNL     1      -2.426  -1.829  -1.668  0.00  0.00    +0.155 HD
ENDROOT
BRANCH   2   5
ATOM      5  C10 UNL     1      -4.544  -1.090   0.024  0.00  0.00    +0.046 C 
ATOM      6  C11 UNL     1      -5.376  -0.795   1.045  0.00  0.00    +0.022 C 
ATOM      7  C12 UNL     1      -6.863  -0.578   0.850  0.00  0.00    +0.100 C 
ATOM      8  C13 UNL     1      -7.134   0.921   0.693  0.00  0.00    +0.050 C 
ATOM      9  C14 UNL     1      -7.372  -1.305  -0.377  0.00  0.00    +0.010 C 
ATOM     10  C15 UNL     1      -6.559  -1.602  -1.398  0.00  0.00    +0.008 C 
ATOM     11  C16 UNL     1      -5.101  -1.219  -1.388  0.00  0.00    +0.172 C 
BRANCH   7  12
ATOM     12  O2  UNL     1      -7.557  -1.035   1.986  0.00  0.00    -0.381 OA
ATOM     13  H17 UNL     1      -7.378  -2.008   2.080  0.00  0.00    +0.211 HD
ENDBRANCH   7  12
BRANCH  11  14
ATOM     14  O3  UNL     1      -4.953  -0.004  -2.072  0.00  0.00    -0.383 OA
ATOM     15  H21 UNL     1      -4.000   0.063  -2.342  0.00  0.00    +0.211 HD
ENDBRANCH  11  14
ENDBRANCH   2   5
BRANCH   1  19
ATOM     16  C5  UNL     1       1.951  -0.144  -0.601  0.00  0.00    +0.030 A 
ATOM     17  C6  UNL     1       1.554  -1.216  -1.414  0.00  0.00    +0.025 A 
ATOM     18  C7  UNL     1       0.211  -1.599  -1.473  0.00  0.00    +0.025 A 
ATOM     19  C8  UNL     1      -0.755  -0.929  -0.707  0.00  0.00    +0.034 A 
ATOM     20  C17 UNL     1      -0.358   0.156   0.095  0.00  0.00    +0.025 A 
ATOM     21  C18 UNL     1       0.985   0.539   0.153  0.00  0.00    +0.025 A 
BRANCH  16  25
ATOM     22  N1  UNL     1       5.953   1.188   0.297  0.00  0.00    -0.300 NA
ATOM     23  C3  UNL     1       5.763  -0.167  -0.288  0.00  0.00    +0.103 C 
ATOM     24  C4  UNL     1       4.343  -0.722  -0.089  0.00  0.00    +0.120 C 
ATOM     25  N2  UNL     1       3.334   0.245  -0.534  0.00  0.00    -0.327 N 
ATOM     26  C19 UNL     1       3.736   1.632  -0.782  0.00  0.00    +0.120 C 
ATOM     27  C20 UNL     1       4.741   2.046   0.293  0.00  0.00    +0.103 C 
BRANCH  22  29
ATOM     28  C1  UNL     1       8.091   1.014   1.522  0.00  0.00    +0.020 C 
ATOM     29  C2  UNL     1       6.574   1.141   1.638  0.00  0.00    +0.081 C 
ENDBRANCH  22  29
ENDBRANCH  16  25
ENDBRANCH   1  19
TORSDOF 6
