REMARK  Name = /home/qwerty/github/datacon2025hack/step_04_hit_selection/docking/ligands/lig_353.pdb
REMARK  7 active torsions:
REMARK  status: ('A' for Active; 'I' for Inactive)
REMARK    1  A    between atoms: C1_1  and  C2_2
REMARK    2  A    between atoms: C2_2  and  C3_3
REMARK    3  A    between atoms: C2_2  and  N1_4
REMARK    4  A    between atoms: C4_5  and  C5_7
REMARK    5  A    between atoms: C5_7  and  N2_8
REMARK    6  A    between atoms: C9_15  and  C10_16
REMARK    7  A    between atoms: N6_25  and  C17_26
REMARK                            x       y       z     vdW  Elec       q    Type
REMARK                         _______ _______ _______ _____ _____    ______ ____
ROOT
ATOM      1  N2  UNL     1      -2.848   1.594   0.701  0.00  0.00    -0.291 NA
ATOM      2  C6  UNL     1      -2.238   0.880  -0.455  0.00  0.00    +0.104 C 
ATOM      3  C7  UNL     1      -0.844   0.315  -0.155  0.00  0.00    +0.123 C 
ATOM      4  N3  UNL     1       0.034   1.387   0.326  0.00  0.00    -0.297 N 
ATOM      5  C8  UNL     1       1.418   1.440  -0.060  0.00  0.00    +0.220 A 
ATOM      6  N4  UNL     1       2.047   2.584  -0.387  0.00  0.00    -0.113 NA
ATOM      7  N5  UNL     1       3.287   2.257  -0.721  0.00  0.00    -0.128 NA
ATOM      8  C9  UNL     1       3.396   0.919  -0.595  0.00  0.00    +0.166 A 
ATOM      9  N6  UNL     1       2.240   0.371  -0.151  0.00  0.00    -0.292 N 
ATOM     10  C20 UNL     1      -0.547   2.508   1.069  0.00  0.00    +0.123 C 
ATOM     11  C21 UNL     1      -1.872   2.080   1.707  0.00  0.00    +0.104 C 
ENDROOT
BRANCH   8  12
ATOM     12  C10 UNL     1       4.642   0.185  -0.904  0.00  0.00    +0.023 A 
ATOM     13  C11 UNL     1       4.605  -1.091  -1.527  0.00  0.00    +0.015 A 
ATOM     14  C12 UNL     1       5.796  -1.779  -1.821  0.00  0.00    +0.050 A 
ATOM     15  C13 UNL     1       6.999  -1.163  -1.495  0.00  0.00    +0.166 A 
ATOM     16  C14 UNL     1       7.045   0.063  -0.917  0.00  0.00    +0.167 A 
ATOM     17  C15 UNL     1       5.890   0.778  -0.610  0.00  0.00    +0.061 A 
ATOM     18  O2  UNL     1       8.362   0.428  -0.714  0.00  0.00    -0.453 OA
ATOM     19  C16 UNL     1       9.195  -0.637  -1.193  0.00  0.00    +0.466 C 
ATOM     20  O3  UNL     1       8.285  -1.631  -1.684  0.00  0.00    -0.453 OA
ENDBRANCH   8  12
BRANCH   9  21
ATOM     21  C17 UNL     1       1.973  -1.014   0.253  0.00  0.00    +0.092 C 
ATOM     22  C18 UNL     1       1.552  -1.163   1.710  0.00  0.00    +0.027 C 
ATOM     23  C19 UNL     1       2.949  -1.569   1.283  0.00  0.00    +0.027 C 
ENDBRANCH   9  21
BRANCH   1  24
ATOM     24  C5  UNL     1      -3.903   0.793   1.355  0.00  0.00    +0.180 C 
BRANCH  24  26
ATOM     25  N1  UNL     1      -5.551  -0.455  -0.134  0.00  0.00    -0.312 N 
ATOM     26  C4  UNL     1      -5.140   0.763   0.507  0.00  0.00    +0.227 C 
ATOM     27  O1  UNL     1      -5.805   1.822   0.347  0.00  0.00    -0.274 OA
ATOM     28  H8  UNL     1      -4.952  -1.305  -0.018  0.00  0.00    +0.149 HD
BRANCH  25  30
ATOM     29  C1  UNL     1      -8.004  -0.580  -0.100  0.00  0.00    +0.027 C 
ATOM     30  C2  UNL     1      -6.749  -0.531  -0.977  0.00  0.00    +0.067 C 
ATOM     31  C3  UNL     1      -6.682  -1.763  -1.886  0.00  0.00    +0.027 C 
ENDBRANCH  25  30
ENDBRANCH  24  26
ENDBRANCH   1  24
TORSDOF 5
