MODEL 1
REMARK VINA RESULT:    -6.365      0.000      0.000
REMARK INTER + INTRA:          -7.598
REMARK INTER:                  -7.110
REMARK INTRA:                  -0.488
REMARK UNBOUND:                -0.488
REMARK  Name = /home/qwerty/github/datacon2025hack/step_04_hit_selection/docking/ligands/lig_38.pdb
REMARK  4 active torsions:
REMARK  status: ('A' for Active; 'I' for Inactive)
REMARK    1  A    between atoms: C1_1  and  N1_2
REMARK    2  A    between atoms: C5_6  and  C6_7
REMARK    3  A    between atoms: C10_16  and  C11_17
REMARK    4  A    between atoms: N7_22  and  C15_23
REMARK                            x       y       z     vdW  Elec       q    Type
REMARK                         _______ _______ _______ _____ _____    ______ ____
ROOT
ATOM      1  C6  UNL     1       8.935   6.741  21.949  0.00  0.00    +0.233 C 
ATOM      2  O1  UNL     1       7.692   6.584  21.787  0.00  0.00    -0.274 OA
ATOM      3  N2  UNL     1       9.796   5.584  22.036  0.00  0.00    -0.297 N 
ATOM      4  C7  UNL     1       9.277   4.267  21.633  0.00  0.00    +0.127 C 
ATOM      5  C8  UNL     1      10.397   3.399  21.051  0.00  0.00    +0.127 C 
ATOM      6  N3  UNL     1      11.577   3.382  21.923  0.00  0.00    -0.297 N 
ATOM      7  C9  UNL     1      12.663   2.494  21.598  0.00  0.00    +0.220 A 
ATOM      8  N4  UNL     1      13.041   2.229  20.333  0.00  0.00    -0.113 NA
ATOM      9  N5  UNL     1      14.051   1.375  20.406  0.00  0.00    -0.126 NA
ATOM     10  C10 UNL     1      14.275   1.130  21.713  0.00  0.00    +0.182 A 
ATOM     11  N7  UNL     1      13.403   1.806  22.496  0.00  0.00    -0.297 N 
ATOM     12  C15 UNL     1      13.186   1.676  23.938  0.00  0.00    +0.154 C 
ATOM     13  C16 UNL     1      11.677   4.313  23.054  0.00  0.00    +0.127 C 
ATOM     14  C17 UNL     1      11.122   5.687  22.667  0.00  0.00    +0.127 C 
ENDROOT
BRANCH   1  20
ATOM     15  C1  UNL     1      10.979   8.559  20.214  0.00  0.00    +0.105 C 
ATOM     16  N1  UNL     1       9.635   8.771  20.774  0.00  0.00    -0.295 NA
ATOM     17  C2  UNL     1       9.353  10.195  20.967  0.00  0.00    +0.085 C 
ATOM     18  C3  UNL     1       8.300  10.277  22.054  0.00  0.00    +0.017 C 
ATOM     19  C4  UNL     1       8.510   9.031  22.898  0.00  0.00    +0.029 C 
ATOM     20  C5  UNL     1       9.475   8.146  22.098  0.00  0.00    +0.143 C 
ENDBRANCH   1  20
BRANCH  10  21
ATOM     21  C11 UNL     1      15.341   0.224  22.180  0.00  0.00    +0.084 A 
ATOM     22  C12 UNL     1      16.604   0.591  22.609  0.00  0.00    +0.031 A 
ATOM     23  C13 UNL     1      17.274  -0.584  22.890  0.00  0.00    +0.020 A 
ATOM     24  C14 UNL     1      16.398  -1.614  22.611  0.00  0.00    +0.083 A 
ATOM     25  N6  UNL     1      15.228  -1.118  22.171  0.00  0.00    -0.358 N 
ATOM     26  H18 UNL     1      14.394  -1.675  21.879  0.00  0.00    +0.165 HD
ENDBRANCH  10  21
TORSDOF 2
ENDMDL
MODEL 2
REMARK VINA RESULT:    -6.144     15.615     16.502
REMARK INTER + INTRA:          -7.350
REMARK INTER:                  -6.863
REMARK INTRA:                  -0.487
REMARK UNBOUND:                -0.488
REMARK  Name = /home/qwerty/github/datacon2025hack/step_04_hit_selection/docking/ligands/lig_38.pdb
REMARK  4 active torsions:
REMARK  status: ('A' for Active; 'I' for Inactive)
REMARK    1  A    between atoms: C1_1  and  N1_2
REMARK    2  A    between atoms: C5_6  and  C6_7
REMARK    3  A    between atoms: C10_16  and  C11_17
REMARK    4  A    between atoms: N7_22  and  C15_23
REMARK                            x       y       z     vdW  Elec       q    Type
REMARK                         _______ _______ _______ _____ _____    ______ ____
ROOT
ATOM      1  C6  UNL     1      14.462  13.422  35.453  0.00  0.00    +0.233 C 
ATOM      2  O1  UNL     1      14.475  14.670  35.650  0.00  0.00    -0.274 OA
ATOM      3  N2  UNL     1      15.704  12.683  35.472  0.00  0.00    -0.297 N 
ATOM      4  C7  UNL     1      16.913  13.320  36.015  0.00  0.00    +0.127 C 
ATOM      5  C8  UNL     1      17.828  12.278  36.665  0.00  0.00    +0.127 C 
ATOM      6  N3  UNL     1      18.052  11.127  35.782  0.00  0.00    -0.297 N 
ATOM      7  C9  UNL     1      19.009  10.128  36.179  0.00  0.00    +0.220 A 
ATOM      8  N4  UNL     1      19.184   9.746  37.458  0.00  0.00    -0.113 NA
ATOM      9  N5  UNL     1      20.139   8.828  37.457  0.00  0.00    -0.126 NA
ATOM     10  C10 UNL     1      20.534   8.663  36.179  0.00  0.00    +0.182 A 
ATOM     11  N7  UNL     1      19.855   9.483  35.344  0.00  0.00    -0.297 N 
ATOM     12  C15 UNL     1      20.106   9.749  33.926  0.00  0.00    +0.154 C 
ATOM     13  C16 UNL     1      17.254  10.964  34.560  0.00  0.00    +0.127 C 
ATOM     14  C17 UNL     1      15.799  11.371  34.814  0.00  0.00    +0.127 C 
ENDROOT
BRANCH   1  20
ATOM     15  C1  UNL     1      12.666  11.210  36.994  0.00  0.00    +0.105 C 
ATOM     16  N1  UNL     1      12.389  12.529  36.401  0.00  0.00    -0.295 NA
ATOM     17  C2  UNL     1      10.976  12.671  36.047  0.00  0.00    +0.085 C 
ATOM     18  C3  UNL     1      10.915  13.713  34.948  0.00  0.00    +0.017 C 
ATOM     19  C4  UNL     1      12.263  13.625  34.251  0.00  0.00    +0.029 C 
ATOM     20  C5  UNL     1      13.141  12.749  35.154  0.00  0.00    +0.143 C 
ENDBRANCH   1  20
BRANCH  10  21
ATOM     21  C11 UNL     1      21.586   7.704  35.790  0.00  0.00    +0.084 A 
ATOM     22  C12 UNL     1      21.394   6.450  35.239  0.00  0.00    +0.031 A 
ATOM     23  C13 UNL     1      22.651   5.894  35.097  0.00  0.00    +0.020 A 
ATOM     24  C14 UNL     1      23.551   6.824  35.576  0.00  0.00    +0.083 A 
ATOM     25  N6  UNL     1      22.898   7.919  36.005  0.00  0.00    -0.358 N 
ATOM     26  H18 UNL     1      23.334   8.770  36.425  0.00  0.00    +0.165 HD
ENDBRANCH  10  21
TORSDOF 2
ENDMDL
MODEL 3
REMARK VINA RESULT:    -6.129     15.687     16.557
REMARK INTER + INTRA:          -7.333
REMARK INTER:                  -6.946
REMARK INTRA:                  -0.387
REMARK UNBOUND:                -0.488
REMARK  Name = /home/qwerty/github/datacon2025hack/step_04_hit_selection/docking/ligands/lig_38.pdb
REMARK  4 active torsions:
REMARK  status: ('A' for Active; 'I' for Inactive)
REMARK    1  A    between atoms: C1_1  and  N1_2
REMARK    2  A    between atoms: C5_6  and  C6_7
REMARK    3  A    between atoms: C10_16  and  C11_17
REMARK    4  A    between atoms: N7_22  and  C15_23
REMARK                            x       y       z     vdW  Elec       q    Type
REMARK                         _______ _______ _______ _____ _____    ______ ____
ROOT
ATOM      1  C6  UNL     1      14.063  13.070  35.402  0.00  0.00    +0.233 C 
ATOM      2  O1  UNL     1      13.622  14.012  36.118  0.00  0.00    -0.274 OA
ATOM      3  N2  UNL     1      15.255  12.361  35.808  0.00  0.00    -0.297 N 
ATOM      4  C7  UNL     1      15.763  12.531  37.179  0.00  0.00    +0.127 C 
ATOM      5  C8  UNL     1      16.444  11.248  37.666  0.00  0.00    +0.127 C 
ATOM      6  N3  UNL     1      17.410  10.742  36.684  0.00  0.00    -0.297 N 
ATOM      7  C9  UNL     1      18.247   9.628  37.049  0.00  0.00    +0.220 A 
ATOM      8  N4  UNL     1      17.818   8.609  37.818  0.00  0.00    -0.113 NA
ATOM      9  N5  UNL     1      18.841   7.779  37.958  0.00  0.00    -0.126 NA
ATOM     10  C10 UNL     1      19.878   8.302  37.275  0.00  0.00    +0.182 A 
ATOM     11  N7  UNL     1      19.545   9.483  36.703  0.00  0.00    -0.297 N 
ATOM     12  C15 UNL     1      20.421  10.453  36.042  0.00  0.00    +0.154 C 
ATOM     13  C16 UNL     1      17.459  11.310  35.331  0.00  0.00    +0.127 C 
ATOM     14  C17 UNL     1      16.045  11.605  34.823  0.00  0.00    +0.127 C 
ENDROOT
BRANCH   1  20
ATOM     15  C1  UNL     1      11.339  11.473  34.679  0.00  0.00    +0.105 C 
ATOM     16  N1  UNL     1      11.890  12.787  34.311  0.00  0.00    -0.295 NA
ATOM     17  C2  UNL     1      11.325  13.272  33.050  0.00  0.00    +0.085 C 
ATOM     18  C3  UNL     1      12.339  14.239  32.473  0.00  0.00    +0.017 C 
ATOM     19  C4  UNL     1      13.679  13.773  33.019  0.00  0.00    +0.029 C 
ATOM     20  C5  UNL     1      13.348  12.746  34.109  0.00  0.00    +0.143 C 
ENDBRANCH   1  20
BRANCH  10  21
ATOM     21  C11 UNL     1      21.194   7.640  37.198  0.00  0.00    +0.084 A 
ATOM     22  C12 UNL     1      21.777   7.094  36.069  0.00  0.00    +0.031 A 
ATOM     23  C13 UNL     1      22.972   6.536  36.481  0.00  0.00    +0.020 A 
ATOM     24  C14 UNL     1      23.061   6.754  37.842  0.00  0.00    +0.083 A 
ATOM     25  N6  UNL     1      21.973   7.417  38.274  0.00  0.00    -0.358 N 
ATOM     26  H18 UNL     1      21.778   7.701  39.260  0.00  0.00    +0.165 HD
ENDBRANCH  10  21
TORSDOF 2
ENDMDL
MODEL 4
REMARK VINA RESULT:    -5.843     15.602     18.410
REMARK INTER + INTRA:          -7.014
REMARK INTER:                  -6.566
REMARK INTRA:                  -0.448
REMARK UNBOUND:                -0.488
REMARK  Name = /home/qwerty/github/datacon2025hack/step_04_hit_selection/docking/ligands/lig_38.pdb
REMARK  4 active torsions:
REMARK  status: ('A' for Active; 'I' for Inactive)
REMARK    1  A    between atoms: C1_1  and  N1_2
REMARK    2  A    between atoms: C5_6  and  C6_7
REMARK    3  A    between atoms: C10_16  and  C11_17
REMARK    4  A    between atoms: N7_22  and  C15_23
REMARK                            x       y       z     vdW  Elec       q    Type
REMARK                         _______ _______ _______ _____ _____    ______ ____
ROOT
ATOM      1  C6  UNL     1      21.795   6.530  34.911  0.00  0.00    +0.233 C 
ATOM      2  O1  UNL     1      22.776   6.220  35.643  0.00  0.00    -0.274 OA
ATOM      3  N2  UNL     1      20.970   7.663  35.262  0.00  0.00    -0.297 N 
ATOM      4  C7  UNL     1      21.449   8.615  36.276  0.00  0.00    +0.127 C 
ATOM      5  C8  UNL     1      20.935  10.027  35.977  0.00  0.00    +0.127 C 
ATOM      6  N3  UNL     1      19.489  10.035  35.723  0.00  0.00    -0.297 N 
ATOM      7  C9  UNL     1      18.820  11.301  35.575  0.00  0.00    +0.220 A 
ATOM      8  N4  UNL     1      19.383  12.362  34.966  0.00  0.00    -0.113 NA
ATOM      9  N5  UNL     1      18.500  13.347  35.019  0.00  0.00    -0.126 NA
ATOM     10  C10 UNL     1      17.412  12.876  35.659  0.00  0.00    +0.182 A 
ATOM     11  N7  UNL     1      17.586  11.590  36.044  0.00  0.00    -0.297 N 
ATOM     12  C15 UNL     1      16.735  10.778  36.915  0.00  0.00    +0.154 C 
ATOM     13  C16 UNL     1      18.761   8.772  35.544  0.00  0.00    +0.127 C 
ATOM     14  C17 UNL     1      19.602   7.781  34.734  0.00  0.00    +0.127 C 
ENDROOT
BRANCH   1  20
ATOM     15  C1  UNL     1      22.993   6.351  31.906  0.00  0.00    +0.105 C 
ATOM     16  N1  UNL     1      22.725   5.367  32.967  0.00  0.00    -0.295 NA
ATOM     17  C2  UNL     1      22.548   4.021  32.418  0.00  0.00    +0.085 C 
ATOM     18  C3  UNL     1      21.708   3.258  33.423  0.00  0.00    +0.017 C 
ATOM     19  C4  UNL     1      20.882   4.320  34.129  0.00  0.00    +0.029 C 
ATOM     20  C5  UNL     1      21.488   5.666  33.707  0.00  0.00    +0.143 C 
ENDBRANCH   1  20
BRANCH  10  21
ATOM     21  C11 UNL     1      16.211  13.699  35.897  0.00  0.00    +0.084 A 
ATOM     22  C12 UNL     1      15.109  13.808  35.067  0.00  0.00    +0.031 A 
ATOM     23  C13 UNL     1      14.267  14.728  35.661  0.00  0.00    +0.020 A 
ATOM     24  C14 UNL     1      14.893  15.148  36.817  0.00  0.00    +0.083 A 
ATOM     25  N6  UNL     1      16.079  14.527  36.951  0.00  0.00    -0.358 N 
ATOM     26  H18 UNL     1      16.762  14.667  37.729  0.00  0.00    +0.165 HD
ENDBRANCH  10  21
TORSDOF 2
ENDMDL
MODEL 5
REMARK VINA RESULT:    -5.788     15.547     16.377
REMARK INTER + INTRA:          -6.952
REMARK INTER:                  -6.458
REMARK INTRA:                  -0.494
REMARK UNBOUND:                -0.488
REMARK  Name = /home/qwerty/github/datacon2025hack/step_04_hit_selection/docking/ligands/lig_38.pdb
REMARK  4 active torsions:
REMARK  status: ('A' for Active; 'I' for Inactive)
REMARK    1  A    between atoms: C1_1  and  N1_2
REMARK    2  A    between atoms: C5_6  and  C6_7
REMARK    3  A    between atoms: C10_16  and  C11_17
REMARK    4  A    between atoms: N7_22  and  C15_23
REMARK                            x       y       z     vdW  Elec       q    Type
REMARK                         _______ _______ _______ _____ _____    ______ ____
ROOT
ATOM      1  C6  UNL     1      16.171  13.205  35.265  0.00  0.00    +0.233 C 
ATOM      2  O1  UNL     1      16.219  14.426  35.582  0.00  0.00    -0.274 OA
ATOM      3  N2  UNL     1      17.398  12.478  35.029  0.00  0.00    -0.297 N 
ATOM      4  C7  UNL     1      18.677  13.069  35.450  0.00  0.00    +0.127 C 
ATOM      5  C8  UNL     1      19.672  11.975  35.853  0.00  0.00    +0.127 C 
ATOM      6  N3  UNL     1      19.758  10.921  34.836  0.00  0.00    -0.297 N 
ATOM      7  C9  UNL     1      20.757   9.895  34.987  0.00  0.00    +0.220 A 
ATOM      8  N4  UNL     1      21.114   9.389  36.182  0.00  0.00    -0.113 NA
ATOM      9  N5  UNL     1      22.053   8.484  35.950  0.00  0.00    -0.126 NA
ATOM     10  C10 UNL     1      22.256   8.451  34.618  0.00  0.00    +0.182 A 
ATOM     11  N7  UNL     1      21.468   9.345  33.978  0.00  0.00    -0.297 N 
ATOM     12  C15 UNL     1      21.510   9.753  32.572  0.00  0.00    +0.154 C 
ATOM     13  C16 UNL     1      18.789  10.873  33.733  0.00  0.00    +0.127 C 
ATOM     14  C17 UNL     1      17.389  11.239  34.236  0.00  0.00    +0.127 C 
ENDROOT
BRANCH   1  20
ATOM     15  C1  UNL     1      14.561  10.911  36.890  0.00  0.00    +0.105 C 
ATOM     16  N1  UNL     1      14.224  12.262  36.413  0.00  0.00    -0.295 NA
ATOM     17  C2  UNL     1      12.779  12.428  36.248  0.00  0.00    +0.085 C 
ATOM     18  C3  UNL     1      12.591  13.532  35.226  0.00  0.00    +0.017 C 
ATOM     19  C4  UNL     1      13.841  13.482  34.362  0.00  0.00    +0.029 C 
ATOM     20  C5  UNL     1      14.816  12.553  35.096  0.00  0.00    +0.143 C 
ENDBRANCH   1  20
BRANCH  10  21
ATOM     21  C11 UNL     1      23.235   7.546  33.986  0.00  0.00    +0.084 A 
ATOM     22  C12 UNL     1      23.011   6.239  33.589  0.00  0.00    +0.031 A 
ATOM     23  C13 UNL     1      24.218   5.769  33.108  0.00  0.00    +0.020 A 
ATOM     24  C14 UNL     1      25.126   6.801  33.242  0.00  0.00    +0.083 A 
ATOM     25  N6  UNL     1      24.525   7.875  33.785  0.00  0.00    -0.358 N 
ATOM     26  H18 UNL     1      24.981   8.789  34.006  0.00  0.00    +0.165 HD
ENDBRANCH  10  21
TORSDOF 2
ENDMDL
MODEL 6
REMARK VINA RESULT:    -5.762      3.305      9.011
REMARK INTER + INTRA:          -6.924
REMARK INTER:                  -6.477
REMARK INTRA:                  -0.447
REMARK UNBOUND:                -0.488
REMARK  Name = /home/qwerty/github/datacon2025hack/step_04_hit_selection/docking/ligands/lig_38.pdb
REMARK  4 active torsions:
REMARK  status: ('A' for Active; 'I' for Inactive)
REMARK    1  A    between atoms: C1_1  and  N1_2
REMARK    2  A    between atoms: C5_6  and  C6_7
REMARK    3  A    between atoms: C10_16  and  C11_17
REMARK    4  A    between atoms: N7_22  and  C15_23
REMARK                            x       y       z     vdW  Elec       q    Type
REMARK                         _______ _______ _______ _____ _____    ______ ____
ROOT
ATOM      1  C6  UNL     1      16.462   0.602  23.243  0.00  0.00    +0.233 C 
ATOM      2  O1  UNL     1      16.952  -0.410  22.667  0.00  0.00    -0.274 OA
ATOM      3  N2  UNL     1      15.223   1.169  22.762  0.00  0.00    -0.297 N 
ATOM      4  C7  UNL     1      14.395   0.398  21.821  0.00  0.00    +0.127 C 
ATOM      5  C8  UNL     1      12.910   0.710  22.027  0.00  0.00    +0.127 C 
ATOM      6  N3  UNL     1      12.660   2.155  22.063  0.00  0.00    -0.297 N 
ATOM      7  C9  UNL     1      11.298   2.621  22.098  0.00  0.00    +0.220 A 
ATOM      8  N4  UNL     1      10.322   1.985  22.774  0.00  0.00    -0.113 NA
ATOM      9  N5  UNL     1       9.209   2.676  22.581  0.00  0.00    -0.126 NA
ATOM     10  C10 UNL     1       9.520   3.723  21.790  0.00  0.00    +0.182 A 
ATOM     11  N7  UNL     1      10.829   3.709  21.448  0.00  0.00    -0.297 N 
ATOM     12  C15 UNL     1      11.521   4.547  20.467  0.00  0.00    +0.154 C 
ATOM     13  C16 UNL     1      13.781   3.100  22.144  0.00  0.00    +0.127 C 
ATOM     14  C17 UNL     1      14.868   2.561  23.079  0.00  0.00    +0.127 C 
ENDROOT
BRANCH   1  20
ATOM     15  C1  UNL     1      16.680  -0.062  26.406  0.00  0.00    +0.105 C 
ATOM     16  N1  UNL     1      17.661   0.172  25.334  0.00  0.00    -0.295 NA
ATOM     17  C2  UNL     1      18.945   0.626  25.871  0.00  0.00    +0.085 C 
ATOM     18  C3  UNL     1      19.625   1.396  24.756  0.00  0.00    +0.017 C 
ATOM     19  C4  UNL     1      18.489   1.936  23.904  0.00  0.00    +0.029 C 
ATOM     20  C5  UNL     1      17.224   1.219  24.395  0.00  0.00    +0.143 C 
ENDBRANCH   1  20
BRANCH  10  21
ATOM     21  C11 UNL     1       8.521   4.724  21.369  0.00  0.00    +0.084 A 
ATOM     22  C12 UNL     1       8.377   6.004  21.872  0.00  0.00    +0.031 A 
ATOM     23  C13 UNL     1       7.285   6.552  21.227  0.00  0.00    +0.020 A 
ATOM     24  C14 UNL     1       6.805   5.582  20.369  0.00  0.00    +0.083 A 
ATOM     25  N6  UNL     1       7.554   4.469  20.467  0.00  0.00    -0.358 N 
ATOM     26  H18 UNL     1       7.407   3.580  19.939  0.00  0.00    +0.165 HD
ENDBRANCH  10  21
TORSDOF 2
ENDMDL
MODEL 7
REMARK VINA RESULT:    -5.720      3.068      9.236
REMARK INTER + INTRA:          -6.877
REMARK INTER:                  -6.441
REMARK INTRA:                  -0.435
REMARK UNBOUND:                -0.488
REMARK  Name = /home/qwerty/github/datacon2025hack/step_04_hit_selection/docking/ligands/lig_38.pdb
REMARK  4 active torsions:
REMARK  status: ('A' for Active; 'I' for Inactive)
REMARK    1  A    between atoms: C1_1  and  N1_2
REMARK    2  A    between atoms: C5_6  and  C6_7
REMARK    3  A    between atoms: C10_16  and  C11_17
REMARK    4  A    between atoms: N7_22  and  C15_23
REMARK                            x       y       z     vdW  Elec       q    Type
REMARK                         _______ _______ _______ _____ _____    ______ ____
ROOT
ATOM      1  C6  UNL     1      16.015  -0.406  22.249  0.00  0.00    +0.233 C 
ATOM      2  O1  UNL     1      16.486  -1.172  21.362  0.00  0.00    -0.274 OA
ATOM      3  N2  UNL     1      15.397   0.841  21.861  0.00  0.00    -0.297 N 
ATOM      4  C7  UNL     1      15.050   1.065  20.449  0.00  0.00    +0.127 C 
ATOM      5  C8  UNL     1      13.805   1.951  20.332  0.00  0.00    +0.127 C 
ATOM      6  N3  UNL     1      13.919   3.156  21.162  0.00  0.00    -0.297 N 
ATOM      7  C9  UNL     1      12.901   4.169  21.052  0.00  0.00    +0.220 A 
ATOM      8  N4  UNL     1      11.600   3.883  20.858  0.00  0.00    -0.113 NA
ATOM      9  N5  UNL     1      10.959   5.041  20.795  0.00  0.00    -0.126 NA
ATOM     10  C10 UNL     1      11.877   6.016  20.952  0.00  0.00    +0.182 A 
ATOM     11  N7  UNL     1      13.120   5.502  21.096  0.00  0.00    -0.297 N 
ATOM     12  C15 UNL     1      14.402   6.209  21.103  0.00  0.00    +0.154 C 
ATOM     13  C16 UNL     1      15.005   3.282  22.142  0.00  0.00    +0.127 C 
ATOM     14  C17 UNL     1      15.261   1.939  22.832  0.00  0.00    +0.127 C 
ENDROOT
BRANCH   1  20
ATOM     15  C1  UNL     1      13.920  -0.827  24.683  0.00  0.00    +0.105 C 
ATOM     16  N1  UNL     1      15.015  -1.632  24.117  0.00  0.00    -0.295 NA
ATOM     17  C2  UNL     1      15.543  -2.583  25.097  0.00  0.00    +0.085 C 
ATOM     18  C3  UNL     1      16.967  -2.885  24.672  0.00  0.00    +0.017 C 
ATOM     19  C4  UNL     1      17.424  -1.644  23.924  0.00  0.00    +0.029 C 
ATOM     20  C5  UNL     1      16.159  -0.804  23.701  0.00  0.00    +0.143 C 
ENDBRANCH   1  20
BRANCH  10  21
ATOM     21  C11 UNL     1      11.524   7.448  20.946  0.00  0.00    +0.084 A 
ATOM     22  C12 UNL     1      11.357   8.259  22.054  0.00  0.00    +0.031 A 
ATOM     23  C13 UNL     1      10.975   9.497  21.574  0.00  0.00    +0.020 A 
ATOM     24  C14 UNL     1      10.915   9.386  20.199  0.00  0.00    +0.083 A 
ATOM     25  N6  UNL     1      11.240   8.136  19.824  0.00  0.00    -0.358 N 
ATOM     26  H18 UNL     1      11.265   7.775  18.843  0.00  0.00    +0.165 HD
ENDBRANCH  10  21
TORSDOF 2
ENDMDL
MODEL 8
REMARK VINA RESULT:    -5.558     12.151     13.721
REMARK INTER + INTRA:          -6.696
REMARK INTER:                  -6.274
REMARK INTRA:                  -0.423
REMARK UNBOUND:                -0.488
REMARK  Name = /home/qwerty/github/datacon2025hack/step_04_hit_selection/docking/ligands/lig_38.pdb
REMARK  4 active torsions:
REMARK  status: ('A' for Active; 'I' for Inactive)
REMARK    1  A    between atoms: C1_1  and  N1_2
REMARK    2  A    between atoms: C5_6  and  C6_7
REMARK    3  A    between atoms: C10_16  and  C11_17
REMARK    4  A    between atoms: N7_22  and  C15_23
REMARK                            x       y       z     vdW  Elec       q    Type
REMARK                         _______ _______ _______ _____ _____    ______ ____
ROOT
ATOM      1  C6  UNL     1      13.042  14.496  27.632  0.00  0.00    +0.233 C 
ATOM      2  O1  UNL     1      12.417  15.270  26.854  0.00  0.00    -0.274 OA
ATOM      3  N2  UNL     1      14.487  14.496  27.632  0.00  0.00    -0.297 N 
ATOM      4  C7  UNL     1      15.208  15.592  26.964  0.00  0.00    +0.127 C 
ATOM      5  C8  UNL     1      16.536  15.877  27.673  0.00  0.00    +0.127 C 
ATOM      6  N3  UNL     1      17.305  14.647  27.896  0.00  0.00    -0.297 N 
ATOM      7  C9  UNL     1      18.644  14.755  28.414  0.00  0.00    +0.220 A 
ATOM      8  N4  UNL     1      19.006  15.677  29.326  0.00  0.00    -0.113 NA
ATOM      9  N5  UNL     1      20.297  15.494  29.563  0.00  0.00    -0.126 NA
ATOM     10  C10 UNL     1      20.704  14.465  28.794  0.00  0.00    +0.182 A 
ATOM     11  N7  UNL     1      19.690  13.985  28.038  0.00  0.00    -0.297 N 
ATOM     12  C15 UNL     1      19.750  13.010  26.948  0.00  0.00    +0.154 C 
ATOM     13  C16 UNL     1      16.687  13.335  27.670  0.00  0.00    +0.127 C 
ATOM     14  C17 UNL     1      15.233  13.339  28.151  0.00  0.00    +0.127 C 
ENDROOT
BRANCH   1  20
ATOM     15  C1  UNL     1      12.497  14.316  30.820  0.00  0.00    +0.105 C 
ATOM     16  N1  UNL     1      11.636  14.294  29.626  0.00  0.00    -0.295 NA
ATOM     17  C2  UNL     1      10.360  13.628  29.896  0.00  0.00    +0.085 C 
ATOM     18  C3  UNL     1       9.853  13.122  28.561  0.00  0.00    +0.017 C 
ATOM     19  C4  UNL     1      11.104  12.898  27.727  0.00  0.00    +0.029 C 
ATOM     20  C5  UNL     1      12.248  13.554  28.510  0.00  0.00    +0.143 C 
ENDBRANCH   1  20
BRANCH  10  21
ATOM     21  C11 UNL     1      22.093  13.968  28.802  0.00  0.00    +0.084 A 
ATOM     22  C12 UNL     1      23.022  14.105  27.787  0.00  0.00    +0.031 A 
ATOM     23  C13 UNL     1      24.157  13.439  28.208  0.00  0.00    +0.020 A 
ATOM     24  C14 UNL     1      23.868  12.915  29.453  0.00  0.00    +0.083 A 
ATOM     25  N6  UNL     1      22.609  13.232  29.805  0.00  0.00    -0.358 N 
ATOM     26  H18 UNL     1      22.130  12.955  30.691  0.00  0.00    +0.165 HD
ENDBRANCH  10  21
TORSDOF 2
ENDMDL
MODEL 9
REMARK VINA RESULT:    -5.467      9.557     10.946
REMARK INTER + INTRA:          -6.594
REMARK INTER:                  -6.168
REMARK INTRA:                  -0.426
REMARK UNBOUND:                -0.488
REMARK  Name = /home/qwerty/github/datacon2025hack/step_04_hit_selection/docking/ligands/lig_38.pdb
REMARK  4 active torsions:
REMARK  status: ('A' for Active; 'I' for Inactive)
REMARK    1  A    between atoms: C1_1  and  N1_2
REMARK    2  A    between atoms: C5_6  and  C6_7
REMARK    3  A    between atoms: C10_16  and  C11_17
REMARK    4  A    between atoms: N7_22  and  C15_23
REMARK                            x       y       z     vdW  Elec       q    Type
REMARK                         _______ _______ _______ _____ _____    ______ ____
ROOT
ATOM      1  C6  UNL     1      22.447  10.151  20.004  0.00  0.00    +0.233 C 
ATOM      2  O1  UNL     1      23.365  10.255  19.143  0.00  0.00    -0.274 OA
ATOM      3  N2  UNL     1      22.231   8.888  20.671  0.00  0.00    -0.297 N 
ATOM      4  C7  UNL     1      23.257   7.838  20.574  0.00  0.00    +0.127 C 
ATOM      5  C8  UNL     1      23.283   6.987  21.848  0.00  0.00    +0.127 C 
ATOM      6  N3  UNL     1      21.938   6.536  22.225  0.00  0.00    -0.297 N 
ATOM      7  C9  UNL     1      21.803   5.601  23.312  0.00  0.00    +0.220 A 
ATOM      8  N4  UNL     1      22.584   5.633  24.408  0.00  0.00    -0.113 NA
ATOM      9  N5  UNL     1      22.193   4.636  25.187  0.00  0.00    -0.126 NA
ATOM     10  C10 UNL     1      21.179   4.010  24.556  0.00  0.00    +0.182 A 
ATOM     11  N7  UNL     1      20.918   4.581  23.358  0.00  0.00    -0.297 N 
ATOM     12  C15 UNL     1      20.035   4.100  22.293  0.00  0.00    +0.154 C 
ATOM     13  C16 UNL     1      20.755   7.091  21.556  0.00  0.00    +0.127 C 
ATOM     14  C17 UNL     1      20.937   8.591  21.306  0.00  0.00    +0.127 C 
ENDROOT
BRANCH   1  20
ATOM     15  C1  UNL     1      22.807  12.860  21.743  0.00  0.00    +0.105 C 
ATOM     16  N1  UNL     1      22.385  12.572  20.363  0.00  0.00    -0.295 NA
ATOM     17  C2  UNL     1      21.557  13.651  19.819  0.00  0.00    +0.085 C 
ATOM     18  C3  UNL     1      20.708  13.027  18.729  0.00  0.00    +0.017 C 
ATOM     19  C4  UNL     1      20.562  11.570  19.133  0.00  0.00    +0.029 C 
ATOM     20  C5  UNL     1      21.566  11.352  20.272  0.00  0.00    +0.143 C 
ENDBRANCH   1  20
BRANCH  10  21
ATOM     21  C11 UNL     1      20.481   2.845  25.134  0.00  0.00    +0.084 A 
ATOM     22  C12 UNL     1      19.572   2.865  26.176  0.00  0.00    +0.031 A 
ATOM     23  C13 UNL     1      19.228   1.548  26.414  0.00  0.00    +0.020 A 
ATOM     24  C14 UNL     1      19.949   0.783  25.519  0.00  0.00    +0.083 A 
ATOM     25  N6  UNL     1      20.717   1.576  24.750  0.00  0.00    -0.358 N 
ATOM     26  H18 UNL     1      21.370   1.259  23.998  0.00  0.00    +0.165 HD
ENDBRANCH  10  21
TORSDOF 2
ENDMDL
