MODEL 1
REMARK VINA RESULT:    -6.731      0.000      0.000
REMARK INTER + INTRA:          -8.464
REMARK INTER:                  -7.911
REMARK INTRA:                  -0.553
REMARK UNBOUND:                -0.553
REMARK  Name = /home/qwerty/github/datacon2025hack/step_04_hit_selection/docking/ligands/lig_486.pdb
REMARK  3 active torsions:
REMARK  status: ('A' for Active; 'I' for Inactive)
REMARK    1  A    between atoms: C1_2  and  C2_3
REMARK    2  A    between atoms: N3_20  and  C17_21
REMARK    3  A    between atoms: C17_21  and  C18_22
REMARK                            x       y       z     vdW  Elec       q    Type
REMARK                         _______ _______ _______ _____ _____    ______ ____
ROOT
ATOM      1  O1  UNL     1      22.872  12.781  18.434  0.00  0.00    -0.268 OA
ATOM      2  C1  UNL     1      21.886  13.145  19.130  0.00  0.00    +0.263 C 
ATOM      3  N2  UNL     1      21.974  14.347  19.917  0.00  0.00    -0.292 N 
ATOM      4  C10 UNL     1      22.664  15.510  19.354  0.00  0.00    +0.108 C 
ATOM      5  C11 UNL     1      24.008  15.680  20.053  0.00  0.00    +0.021 C 
ATOM      6  C12 UNL     1      23.785  15.860  21.553  0.00  0.00    +0.022 C 
ATOM      7  C13 UNL     1      23.013  14.676  22.180  0.00  0.00    +0.077 C 
ATOM      8  C14 UNL     1      21.776  14.259  21.377  0.00  0.00    +0.095 C 
ATOM      9  C15 UNL     1      20.689  15.169  21.904  0.00  0.00    +0.039 C 
ATOM     10  C16 UNL     1      21.068  15.349  23.369  0.00  0.00    +0.086 C 
ATOM     11  N3  UNL     1      22.521  15.110  23.504  0.00  0.00    -0.297 NA
ENDROOT
BRANCH   2  12
ATOM     12  C2  UNL     1      20.665  12.321  19.128  0.00  0.00    +0.103 A 
ATOM     13  C3  UNL     1      20.630  10.928  19.103  0.00  0.00    +0.040 A 
ATOM     14  C4  UNL     1      19.292  10.606  19.144  0.00  0.00    +0.000 A 
ATOM     15  C5  UNL     1      18.657   9.365  19.152  0.00  0.00    +0.010 A 
ATOM     16  C6  UNL     1      17.251   9.347  19.210  0.00  0.00    +0.001 A 
ATOM     17  C7  UNL     1      16.523  10.557  19.263  0.00  0.00    +0.002 A 
ATOM     18  C8  UNL     1      17.192  11.794  19.259  0.00  0.00    +0.026 A 
ATOM     19  C9  UNL     1      18.585  11.780  19.198  0.00  0.00    +0.047 A 
ATOM     20  N1  UNL     1      19.415  12.837  19.195  0.00  0.00    -0.351 N 
ATOM     21  H6  UNL     1      19.145  13.845  19.235  0.00  0.00    +0.166 HD
ENDBRANCH   2  12
BRANCH  11  22
ATOM     22  C17 UNL     1      22.822  14.133  24.571  0.00  0.00    +0.088 C 
BRANCH  22  23
ATOM     23  C18 UNL     1      23.604  14.813  25.705  0.00  0.00    +0.003 C 
ATOM     24  C19 UNL     1      22.766  15.250  26.896  0.00  0.00    +0.005 C 
ATOM     25  C20 UNL     1      23.679  14.038  27.012  0.00  0.00    +0.005 C 
ENDBRANCH  22  23
ENDBRANCH  11  22
TORSDOF 3
ENDMDL
MODEL 2
REMARK VINA RESULT:    -6.632     11.789     15.054
REMARK INTER + INTRA:          -8.348
REMARK INTER:                  -7.634
REMARK INTRA:                  -0.714
REMARK UNBOUND:                -0.553
REMARK  Name = /home/qwerty/github/datacon2025hack/step_04_hit_selection/docking/ligands/lig_486.pdb
REMARK  3 active torsions:
REMARK  status: ('A' for Active; 'I' for Inactive)
REMARK    1  A    between atoms: C1_2  and  C2_3
REMARK    2  A    between atoms: N3_20  and  C17_21
REMARK    3  A    between atoms: C17_21  and  C18_22
REMARK                            x       y       z     vdW  Elec       q    Type
REMARK                         _______ _______ _______ _____ _____    ______ ____
ROOT
ATOM      1  O1  UNL     1      21.407   4.145  33.468  0.00  0.00    -0.268 OA
ATOM      2  C1  UNL     1      21.503   4.652  32.318  0.00  0.00    +0.263 C 
ATOM      3  N2  UNL     1      20.835   4.028  31.206  0.00  0.00    -0.292 N 
ATOM      4  C10 UNL     1      19.497   3.465  31.412  0.00  0.00    +0.108 C 
ATOM      5  C11 UNL     1      19.592   1.944  31.424  0.00  0.00    +0.021 C 
ATOM      6  C12 UNL     1      20.184   1.458  30.103  0.00  0.00    +0.022 C 
ATOM      7  C13 UNL     1      21.576   2.068  29.821  0.00  0.00    +0.077 C 
ATOM      8  C14 UNL     1      21.638   3.583  30.051  0.00  0.00    +0.095 C 
ATOM      9  C15 UNL     1      21.183   4.160  28.729  0.00  0.00    +0.039 C 
ATOM     10  C16 UNL     1      21.714   3.157  27.713  0.00  0.00    +0.086 C 
ATOM     11  N3  UNL     1      21.880   1.853  28.391  0.00  0.00    -0.297 NA
ENDROOT
BRANCH   2  12
ATOM     12  C2  UNL     1      22.309   5.872  32.138  0.00  0.00    +0.103 A 
ATOM     13  C3  UNL     1      22.050   6.883  31.215  0.00  0.00    +0.040 A 
ATOM     14  C4  UNL     1      23.036   7.821  31.430  0.00  0.00    +0.000 A 
ATOM     15  C5  UNL     1      23.274   9.045  30.808  0.00  0.00    +0.010 A 
ATOM     16  C6  UNL     1      24.371   9.805  31.255  0.00  0.00    +0.001 A 
ATOM     17  C7  UNL     1      25.190   9.330  32.304  0.00  0.00    +0.002 A 
ATOM     18  C8  UNL     1      24.920   8.092  32.915  0.00  0.00    +0.026 A 
ATOM     19  C9  UNL     1      23.829   7.360  32.449  0.00  0.00    +0.047 A 
ATOM     20  N1  UNL     1      23.390   6.171  32.896  0.00  0.00    -0.351 N 
ATOM     21  H6  UNL     1      23.803   5.600  33.667  0.00  0.00    +0.166 HD
ENDBRANCH   2  12
BRANCH  11  22
ATOM     22  C17 UNL     1      23.229   1.289  28.176  0.00  0.00    +0.088 C 
BRANCH  22  23
ATOM     23  C18 UNL     1      23.556   0.269  29.278  0.00  0.00    +0.003 C 
ATOM     24  C19 UNL     1      23.338  -1.186  28.896  0.00  0.00    +0.005 C 
ATOM     25  C20 UNL     1      24.751  -0.633  29.008  0.00  0.00    +0.005 C 
ENDBRANCH  22  23
ENDBRANCH  11  22
TORSDOF 3
ENDMDL
MODEL 3
REMARK VINA RESULT:    -6.439      2.088      7.340
REMARK INTER + INTRA:          -8.120
REMARK INTER:                  -7.499
REMARK INTRA:                  -0.621
REMARK UNBOUND:                -0.553
REMARK  Name = /home/qwerty/github/datacon2025hack/step_04_hit_selection/docking/ligands/lig_486.pdb
REMARK  3 active torsions:
REMARK  status: ('A' for Active; 'I' for Inactive)
REMARK    1  A    between atoms: C1_2  and  C2_3
REMARK    2  A    between atoms: N3_20  and  C17_21
REMARK    3  A    between atoms: C17_21  and  C18_22
REMARK                            x       y       z     vdW  Elec       q    Type
REMARK                         _______ _______ _______ _____ _____    ______ ____
ROOT
ATOM      1  O1  UNL     1      21.777  17.107  23.664  0.00  0.00    -0.268 OA
ATOM      2  C1  UNL     1      22.486  16.070  23.774  0.00  0.00    +0.263 C 
ATOM      3  N2  UNL     1      23.128  15.518  22.610  0.00  0.00    -0.292 N 
ATOM      4  C10 UNL     1      23.705  16.434  21.622  0.00  0.00    +0.108 C 
ATOM      5  C11 UNL     1      22.823  16.449  20.379  0.00  0.00    +0.021 C 
ATOM      6  C12 UNL     1      22.720  15.035  19.809  0.00  0.00    +0.022 C 
ATOM      7  C13 UNL     1      22.163  14.024  20.836  0.00  0.00    +0.077 C 
ATOM      8  C14 UNL     1      22.821  14.129  22.217  0.00  0.00    +0.095 C 
ATOM      9  C15 UNL     1      24.040  13.243  22.096  0.00  0.00    +0.039 C 
ATOM     10  C16 UNL     1      23.573  12.138  21.157  0.00  0.00    +0.086 C 
ATOM     11  N3  UNL     1      22.460  12.665  20.338  0.00  0.00    -0.297 NA
ENDROOT
BRANCH   2  12
ATOM     12  C2  UNL     1      22.631  15.439  25.097  0.00  0.00    +0.103 A 
ATOM     13  C3  UNL     1      23.740  14.716  25.531  0.00  0.00    +0.040 A 
ATOM     14  C4  UNL     1      23.442  14.351  26.825  0.00  0.00    +0.000 A 
ATOM     15  C5  UNL     1      24.183  13.625  27.756  0.00  0.00    +0.010 A 
ATOM     16  C6  UNL     1      23.614  13.414  29.026  0.00  0.00    +0.001 A 
ATOM     17  C7  UNL     1      22.336  13.932  29.332  0.00  0.00    +0.002 A 
ATOM     18  C8  UNL     1      21.614  14.666  28.372  0.00  0.00    +0.026 A 
ATOM     19  C9  UNL     1      22.202  14.856  27.122  0.00  0.00    +0.047 A 
ATOM     20  N1  UNL     1      21.698  15.530  26.075  0.00  0.00    -0.351 N 
ATOM     21  H6  UNL     1      20.776  16.019  26.029  0.00  0.00    +0.166 HD
ENDBRANCH   2  12
BRANCH  11  22
ATOM     22  C17 UNL     1      21.280  11.776  20.374  0.00  0.00    +0.088 C 
BRANCH  22  23
ATOM     23  C18 UNL     1      20.253  12.219  19.320  0.00  0.00    +0.003 C 
ATOM     24  C19 UNL     1      19.086  11.266  19.115  0.00  0.00    +0.005 C 
ATOM     25  C20 UNL     1      18.875  12.580  19.852  0.00  0.00    +0.005 C 
ENDBRANCH  22  23
ENDBRANCH  11  22
TORSDOF 3
ENDMDL
MODEL 4
REMARK VINA RESULT:    -6.371     21.389     24.236
REMARK INTER + INTRA:          -8.041
REMARK INTER:                  -7.330
REMARK INTRA:                  -0.711
REMARK UNBOUND:                -0.553
REMARK  Name = /home/qwerty/github/datacon2025hack/step_04_hit_selection/docking/ligands/lig_486.pdb
REMARK  3 active torsions:
REMARK  status: ('A' for Active; 'I' for Inactive)
REMARK    1  A    between atoms: C1_2  and  C2_3
REMARK    2  A    between atoms: N3_20  and  C17_21
REMARK    3  A    between atoms: C17_21  and  C18_22
REMARK                            x       y       z     vdW  Elec       q    Type
REMARK                         _______ _______ _______ _____ _____    ______ ____
ROOT
ATOM      1  O1  UNL     1      10.928  -0.780  38.386  0.00  0.00    -0.268 OA
ATOM      2  C1  UNL     1      10.070   0.090  38.073  0.00  0.00    +0.263 C 
ATOM      3  N2  UNL     1       8.742  -0.322  37.702  0.00  0.00    -0.292 N 
ATOM      4  C10 UNL     1       8.114  -1.425  38.434  0.00  0.00    +0.108 C 
ATOM      5  C11 UNL     1       8.089  -2.664  37.546  0.00  0.00    +0.021 C 
ATOM      6  C12 UNL     1       7.316  -2.358  36.265  0.00  0.00    +0.022 C 
ATOM      7  C13 UNL     1       7.914  -1.165  35.485  0.00  0.00    +0.077 C 
ATOM      8  C14 UNL     1       8.227   0.048  36.369  0.00  0.00    +0.095 C 
ATOM      9  C15 UNL     1       6.919   0.805  36.405  0.00  0.00    +0.039 C 
ATOM     10  C16 UNL     1       6.330   0.545  35.024  0.00  0.00    +0.086 C 
ATOM     11  N3  UNL     1       6.905  -0.715  34.505  0.00  0.00    -0.297 NA
ENDROOT
BRANCH   2  12
ATOM     12  C2  UNL     1      10.454   1.512  38.085  0.00  0.00    +0.103 A 
ATOM     13  C3  UNL     1       9.610   2.574  38.405  0.00  0.00    +0.040 A 
ATOM     14  C4  UNL     1      10.403   3.696  38.313  0.00  0.00    +0.000 A 
ATOM     15  C5  UNL     1      10.103   5.040  38.531  0.00  0.00    +0.010 A 
ATOM     16  C6  UNL     1      11.138   5.978  38.369  0.00  0.00    +0.001 A 
ATOM     17  C7  UNL     1      12.435   5.556  38.001  0.00  0.00    +0.002 A 
ATOM     18  C8  UNL     1      12.709   4.191  37.793  0.00  0.00    +0.026 A 
ATOM     19  C9  UNL     1      11.663   3.285  37.958  0.00  0.00    +0.047 A 
ATOM     20  N1  UNL     1      11.708   1.949  37.822  0.00  0.00    -0.351 N 
ATOM     21  H6  UNL     1      12.541   1.373  37.565  0.00  0.00    +0.166 HD
ENDBRANCH   2  12
BRANCH  11  22
ATOM     22  C17 UNL     1       7.465  -0.547  33.148  0.00  0.00    +0.088 C 
BRANCH  22  23
ATOM     23  C18 UNL     1       8.587  -1.570  32.910  0.00  0.00    +0.003 C 
ATOM     24  C19 UNL     1       8.844  -1.920  31.453  0.00  0.00    +0.005 C 
ATOM     25  C20 UNL     1       9.827  -1.037  32.208  0.00  0.00    +0.005 C 
ENDBRANCH  22  23
ENDBRANCH  11  22
TORSDOF 3
ENDMDL
MODEL 5
REMARK VINA RESULT:    -6.256     12.722     14.534
REMARK INTER + INTRA:          -7.905
REMARK INTER:                  -7.190
REMARK INTRA:                  -0.716
REMARK UNBOUND:                -0.553
REMARK  Name = /home/qwerty/github/datacon2025hack/step_04_hit_selection/docking/ligands/lig_486.pdb
REMARK  3 active torsions:
REMARK  status: ('A' for Active; 'I' for Inactive)
REMARK    1  A    between atoms: C1_2  and  C2_3
REMARK    2  A    between atoms: N3_20  and  C17_21
REMARK    3  A    between atoms: C17_21  and  C18_22
REMARK                            x       y       z     vdW  Elec       q    Type
REMARK                         _______ _______ _______ _____ _____    ______ ____
ROOT
ATOM      1  O1  UNL     1       6.782   8.241  26.881  0.00  0.00    -0.268 OA
ATOM      2  C1  UNL     1       7.883   8.800  26.623  0.00  0.00    +0.263 C 
ATOM      3  N2  UNL     1       8.850   8.987  27.673  0.00  0.00    -0.292 N 
ATOM      4  C10 UNL     1       9.032   7.922  28.663  0.00  0.00    +0.108 C 
ATOM      5  C11 UNL     1       8.414   8.359  29.986  0.00  0.00    +0.021 C 
ATOM      6  C12 UNL     1       9.076   9.652  30.457  0.00  0.00    +0.022 C 
ATOM      7  C13 UNL     1       8.952  10.790  29.419  0.00  0.00    +0.077 C 
ATOM      8  C14 UNL     1       9.301  10.356  27.991  0.00  0.00    +0.095 C 
ATOM      9  C15 UNL     1      10.801  10.538  27.923  0.00  0.00    +0.039 C 
ATOM     10  C16 UNL     1      11.043  11.746  28.819  0.00  0.00    +0.086 C 
ATOM     11  N3  UNL     1       9.925  11.840  29.783  0.00  0.00    -0.297 NA
ENDROOT
BRANCH   2  12
ATOM     12  C2  UNL     1       8.148   9.259  25.249  0.00  0.00    +0.103 A 
ATOM     13  C3  UNL     1       9.226   8.865  24.459  0.00  0.00    +0.040 A 
ATOM     14  C4  UNL     1       9.045   9.518  23.260  0.00  0.00    +0.000 A 
ATOM     15  C5  UNL     1       9.805   9.497  22.092  0.00  0.00    +0.010 A 
ATOM     16  C6  UNL     1       9.358  10.272  21.005  0.00  0.00    +0.001 A 
ATOM     17  C7  UNL     1       8.174  11.035  21.110  0.00  0.00    +0.002 A 
ATOM     18  C8  UNL     1       7.425  11.031  22.301  0.00  0.00    +0.026 A 
ATOM     19  C9  UNL     1       7.894  10.256  23.361  0.00  0.00    +0.047 A 
ATOM     20  N1  UNL     1       7.332  10.102  24.572  0.00  0.00    -0.351 N 
ATOM     21  H6  UNL     1       6.450  10.543  24.915  0.00  0.00    +0.166 HD
ENDBRANCH   2  12
BRANCH  11  22
ATOM     22  C17 UNL     1       9.325  13.190  29.800  0.00  0.00    +0.088 C 
BRANCH  22  23
ATOM     23  C18 UNL     1       7.842  13.114  29.405  0.00  0.00    +0.003 C 
ATOM     24  C19 UNL     1       6.991  14.288  29.861  0.00  0.00    +0.005 C 
ATOM     25  C20 UNL     1       7.374  14.150  28.394  0.00  0.00    +0.005 C 
ENDBRANCH  22  23
ENDBRANCH  11  22
TORSDOF 3
ENDMDL
MODEL 6
REMARK VINA RESULT:    -6.239     12.823     15.519
REMARK INTER + INTRA:          -7.885
REMARK INTER:                  -7.179
REMARK INTRA:                  -0.706
REMARK UNBOUND:                -0.553
REMARK  Name = /home/qwerty/github/datacon2025hack/step_04_hit_selection/docking/ligands/lig_486.pdb
REMARK  3 active torsions:
REMARK  status: ('A' for Active; 'I' for Inactive)
REMARK    1  A    between atoms: C1_2  and  C2_3
REMARK    2  A    between atoms: N3_20  and  C17_21
REMARK    3  A    between atoms: C17_21  and  C18_22
REMARK                            x       y       z     vdW  Elec       q    Type
REMARK                         _______ _______ _______ _____ _____    ______ ____
ROOT
ATOM      1  O1  UNL     1      13.071  14.944  30.444  0.00  0.00    -0.268 OA
ATOM      2  C1  UNL     1      12.477  13.879  30.764  0.00  0.00    +0.263 C 
ATOM      3  N2  UNL     1      12.354  12.815  29.803  0.00  0.00    -0.292 N 
ATOM      4  C10 UNL     1      13.488  12.526  28.920  0.00  0.00    +0.108 C 
ATOM      5  C11 UNL     1      13.163  13.015  27.514  0.00  0.00    +0.021 C 
ATOM      6  C12 UNL     1      11.899  12.321  27.011  0.00  0.00    +0.022 C 
ATOM      7  C13 UNL     1      10.687  12.556  27.942  0.00  0.00    +0.077 C 
ATOM      8  C14 UNL     1      11.006  12.346  29.426  0.00  0.00    +0.095 C 
ATOM      9  C15 UNL     1      10.795  10.862  29.626  0.00  0.00    +0.039 C 
ATOM     10  C16 UNL     1       9.655  10.542  28.668  0.00  0.00    +0.086 C 
ATOM     11  N3  UNL     1       9.652  11.561  27.595  0.00  0.00    -0.297 NA
ENDROOT
BRANCH   2  12
ATOM     12  C2  UNL     1      11.910  13.754  32.118  0.00  0.00    +0.103 A 
ATOM     13  C3  UNL     1      12.237  12.765  33.043  0.00  0.00    +0.040 A 
ATOM     14  C4  UNL     1      11.494  13.066  34.163  0.00  0.00    +0.000 A 
ATOM     15  C5  UNL     1      11.420  12.430  35.401  0.00  0.00    +0.010 A 
ATOM     16  C6  UNL     1      10.565  12.983  36.372  0.00  0.00    +0.001 A 
ATOM     17  C7  UNL     1       9.816  14.147  36.087  0.00  0.00    +0.002 A 
ATOM     18  C8  UNL     1       9.916  14.769  34.829  0.00  0.00    +0.026 A 
ATOM     19  C9  UNL     1      10.769  14.197  33.886  0.00  0.00    +0.047 A 
ATOM     20  N1  UNL     1      11.021  14.632  32.640  0.00  0.00    -0.351 N 
ATOM     21  H6  UNL     1      10.610  15.473  32.174  0.00  0.00    +0.166 HD
ENDBRANCH   2  12
BRANCH  11  22
ATOM     22  C17 UNL     1       8.317  12.167  27.415  0.00  0.00    +0.088 C 
BRANCH  22  23
ATOM     23  C18 UNL     1       8.367  13.664  27.760  0.00  0.00    +0.003 C 
ATOM     24  C19 UNL     1       7.178  14.479  27.275  0.00  0.00    +0.005 C 
ATOM     25  C20 UNL     1       7.321  14.148  28.754  0.00  0.00    +0.005 C 
ENDBRANCH  22  23
ENDBRANCH  11  22
TORSDOF 3
ENDMDL
MODEL 7
REMARK VINA RESULT:    -6.156     20.618     22.797
REMARK INTER + INTRA:          -7.788
REMARK INTER:                  -7.125
REMARK INTRA:                  -0.662
REMARK UNBOUND:                -0.553
REMARK  Name = /home/qwerty/github/datacon2025hack/step_04_hit_selection/docking/ligands/lig_486.pdb
REMARK  3 active torsions:
REMARK  status: ('A' for Active; 'I' for Inactive)
REMARK    1  A    between atoms: C1_2  and  C2_3
REMARK    2  A    between atoms: N3_20  and  C17_21
REMARK    3  A    between atoms: C17_21  and  C18_22
REMARK                            x       y       z     vdW  Elec       q    Type
REMARK                         _______ _______ _______ _____ _____    ______ ____
ROOT
ATOM      1  O1  UNL     1       6.341  -0.361  34.218  0.00  0.00    -0.268 OA
ATOM      2  C1  UNL     1       7.505  -0.840  34.158  0.00  0.00    +0.263 C 
ATOM      3  N2  UNL     1       8.174  -1.242  35.368  0.00  0.00    -0.292 N 
ATOM      4  C10 UNL     1       7.396  -1.909  36.416  0.00  0.00    +0.108 C 
ATOM      5  C11 UNL     1       7.187  -0.942  37.575  0.00  0.00    +0.021 C 
ATOM      6  C12 UNL     1       8.542  -0.490  38.114  0.00  0.00    +0.022 C 
ATOM      7  C13 UNL     1       9.418   0.174  37.028  0.00  0.00    +0.077 C 
ATOM      8  C14 UNL     1       9.464  -0.613  35.713  0.00  0.00    +0.095 C 
ATOM      9  C15 UNL     1      10.588  -1.601  35.931  0.00  0.00    +0.039 C 
ATOM     10  C16 UNL     1      11.563  -0.826  36.809  0.00  0.00    +0.086 C 
ATOM     11  N3  UNL     1      10.806   0.219  37.532  0.00  0.00    -0.297 NA
ENDROOT
BRANCH   2  12
ATOM     12  C2  UNL     1       8.161  -0.967  32.845  0.00  0.00    +0.103 A 
ATOM     13  C3  UNL     1       8.802  -2.108  32.369  0.00  0.00    +0.040 A 
ATOM     14  C4  UNL     1       9.228  -1.773  31.102  0.00  0.00    +0.000 A 
ATOM     15  C5  UNL     1       9.918  -2.521  30.150  0.00  0.00    +0.010 A 
ATOM     16  C6  UNL     1      10.211  -1.905  28.919  0.00  0.00    +0.001 A 
ATOM     17  C7  UNL     1       9.809  -0.573  28.672  0.00  0.00    +0.002 A 
ATOM     18  C8  UNL     1       9.110   0.155  29.652  0.00  0.00    +0.026 A 
ATOM     19  C9  UNL     1       8.835  -0.481  30.862  0.00  0.00    +0.047 A 
ATOM     20  N1  UNL     1       8.175   0.022  31.919  0.00  0.00    -0.351 N 
ATOM     21  H6  UNL     1       7.762   0.977  32.003  0.00  0.00    +0.166 HD
ENDBRANCH   2  12
BRANCH  11  22
ATOM     22  C17 UNL     1      11.424   1.552  37.379  0.00  0.00    +0.088 C 
BRANCH  22  23
ATOM     23  C18 UNL     1      10.868   2.516  38.438  0.00  0.00    +0.003 C 
ATOM     24  C19 UNL     1      11.336   3.957  38.309  0.00  0.00    +0.005 C 
ATOM     25  C20 UNL     1       9.912   3.583  37.923  0.00  0.00    +0.005 C 
ENDBRANCH  22  23
ENDBRANCH  11  22
TORSDOF 3
ENDMDL
MODEL 8
REMARK VINA RESULT:    -6.121     11.743     13.291
REMARK INTER + INTRA:          -7.747
REMARK INTER:                  -7.076
REMARK INTRA:                  -0.672
REMARK UNBOUND:                -0.553
REMARK  Name = /home/qwerty/github/datacon2025hack/step_04_hit_selection/docking/ligands/lig_486.pdb
REMARK  3 active torsions:
REMARK  status: ('A' for Active; 'I' for Inactive)
REMARK    1  A    between atoms: C1_2  and  C2_3
REMARK    2  A    between atoms: N3_20  and  C17_21
REMARK    3  A    between atoms: C17_21  and  C18_22
REMARK                            x       y       z     vdW  Elec       q    Type
REMARK                         _______ _______ _______ _____ _____    ______ ____
ROOT
ATOM      1  O1  UNL     1      20.729   2.309  23.767  0.00  0.00    -0.268 OA
ATOM      2  C1  UNL     1      19.913   2.132  24.711  0.00  0.00    +0.263 C 
ATOM      3  N2  UNL     1      19.952   3.000  25.859  0.00  0.00    -0.292 N 
ATOM      4  C10 UNL     1      20.201   4.430  25.655  0.00  0.00    +0.108 C 
ATOM      5  C11 UNL     1      21.616   4.761  26.116  0.00  0.00    +0.021 C 
ATOM      6  C12 UNL     1      21.772   4.392  27.590  0.00  0.00    +0.022 C 
ATOM      7  C13 UNL     1      21.469   2.900  27.860  0.00  0.00    +0.077 C 
ATOM      8  C14 UNL     1      20.179   2.409  27.193  0.00  0.00    +0.095 C 
ATOM      9  C15 UNL     1      19.106   2.748  28.204  0.00  0.00    +0.039 C 
ATOM     10  C16 UNL     1      19.819   2.567  29.538  0.00  0.00    +0.086 C 
ATOM     11  N3  UNL     1      21.271   2.737  29.315  0.00  0.00    -0.297 NA
ENDROOT
BRANCH   2  12
ATOM     12  C2  UNL     1      18.942   1.029  24.621  0.00  0.00    +0.103 A 
ATOM     13  C3  UNL     1      19.164  -0.280  25.044  0.00  0.00    +0.040 A 
ATOM     14  C4  UNL     1      17.981  -0.940  24.792  0.00  0.00    +0.000 A 
ATOM     15  C5  UNL     1      17.616  -2.266  25.019  0.00  0.00    +0.010 A 
ATOM     16  C6  UNL     1      16.312  -2.656  24.663  0.00  0.00    +0.001 A 
ATOM     17  C7  UNL     1      15.413  -1.722  24.101  0.00  0.00    +0.002 A 
ATOM     18  C8  UNL     1      15.810  -0.389  23.889  0.00  0.00    +0.026 A 
ATOM     19  C9  UNL     1      17.109  -0.032  24.249  0.00  0.00    +0.047 A 
ATOM     20  N1  UNL     1      17.683   1.178  24.145  0.00  0.00    -0.351 N 
ATOM     21  H6  UNL     1      17.245   2.050  23.772  0.00  0.00    +0.166 HD
ENDBRANCH   2  12
BRANCH  11  22
ATOM     22  C17 UNL     1      22.049   1.610  29.871  0.00  0.00    +0.088 C 
BRANCH  22  23
ATOM     23  C18 UNL     1      23.005   1.052  28.804  0.00  0.00    +0.003 C 
ATOM     24  C19 UNL     1      24.391   0.684  29.309  0.00  0.00    +0.005 C 
ATOM     25  C20 UNL     1      23.391  -0.411  28.965  0.00  0.00    +0.005 C 
ENDBRANCH  22  23
ENDBRANCH  11  22
TORSDOF 3
ENDMDL
MODEL 9
REMARK VINA RESULT:    -5.764     12.979     14.687
REMARK INTER + INTRA:          -7.327
REMARK INTER:                  -6.546
REMARK INTRA:                  -0.782
REMARK UNBOUND:                -0.553
REMARK  Name = /home/qwerty/github/datacon2025hack/step_04_hit_selection/docking/ligands/lig_486.pdb
REMARK  3 active torsions:
REMARK  status: ('A' for Active; 'I' for Inactive)
REMARK    1  A    between atoms: C1_2  and  C2_3
REMARK    2  A    between atoms: N3_20  and  C17_21
REMARK    3  A    between atoms: C17_21  and  C18_22
REMARK                            x       y       z     vdW  Elec       q    Type
REMARK                         _______ _______ _______ _____ _____    ______ ____
ROOT
ATOM      1  O1  UNL     1      18.422   2.364  25.235  0.00  0.00    -0.268 OA
ATOM      2  C1  UNL     1      17.945   1.861  26.288  0.00  0.00    +0.263 C 
ATOM      3  N2  UNL     1      18.312   2.408  27.568  0.00  0.00    -0.292 N 
ATOM      4  C10 UNL     1      18.442   3.862  27.704  0.00  0.00    +0.108 C 
ATOM      5  C11 UNL     1      19.919   4.224  27.808  0.00  0.00    +0.021 C 
ATOM      6  C12 UNL     1      20.536   3.513  29.010  0.00  0.00    +0.022 C 
ATOM      7  C13 UNL     1      20.376   1.977  28.934  0.00  0.00    +0.077 C 
ATOM      8  C14 UNL     1      18.958   1.528  28.561  0.00  0.00    +0.095 C 
ATOM      9  C15 UNL     1      18.242   1.476  29.892  0.00  0.00    +0.039 C 
ATOM     10  C16 UNL     1      19.338   1.044  30.858  0.00  0.00    +0.086 C 
ATOM     11  N3  UNL     1      20.644   1.428  30.279  0.00  0.00    -0.297 NA
ENDROOT
BRANCH   2  12
ATOM     12  C2  UNL     1      17.027   0.714  26.183  0.00  0.00    +0.103 A 
ATOM     13  C3  UNL     1      15.776   0.622  26.788  0.00  0.00    +0.040 A 
ATOM     14  C4  UNL     1      15.277  -0.598  26.387  0.00  0.00    +0.000 A 
ATOM     15  C5  UNL     1      14.063  -1.220  26.675  0.00  0.00    +0.010 A 
ATOM     16  C6  UNL     1      13.823  -2.483  26.103  0.00  0.00    +0.001 A 
ATOM     17  C7  UNL     1      14.789  -3.085  25.265  0.00  0.00    +0.002 A 
ATOM     18  C8  UNL     1      16.003  -2.429  24.990  0.00  0.00    +0.026 A 
ATOM     19  C9  UNL     1      16.214  -1.180  25.572  0.00  0.00    +0.047 A 
ATOM     20  N1  UNL     1      17.287  -0.384  25.434  0.00  0.00    -0.351 N 
ATOM     21  H6  UNL     1      18.142  -0.578  24.866  0.00  0.00    +0.166 HD
ENDBRANCH   2  12
BRANCH  11  22
ATOM     22  C17 UNL     1      21.590   0.293  30.252  0.00  0.00    +0.088 C 
BRANCH  22  23
ATOM     23  C18 UNL     1      22.464   0.365  28.989  0.00  0.00    +0.003 C 
ATOM     24  C19 UNL     1      23.932   0.670  29.237  0.00  0.00    +0.005 C 
ATOM     25  C20 UNL     1      23.504  -0.736  28.844  0.00  0.00    +0.005 C 
ENDBRANCH  22  23
ENDBRANCH  11  22
TORSDOF 3
ENDMDL
