REMARK  Name = /home/qwerty/github/datacon2025hack/step_04_hit_selection/docking/ligands/lig_590.pdb
REMARK  7 active torsions:
REMARK  status: ('A' for Active; 'I' for Inactive)
REMARK    1  A    between atoms: C1_1  and  O1_2
REMARK    2  A    between atoms: O1_2  and  C2_3
REMARK    3  A    between atoms: C4_5  and  C5_6
REMARK    4  A    between atoms: C23_26  and  O2_27
REMARK    5  A    between atoms: O2_27  and  C24_28
REMARK    6  A    between atoms: C24_28  and  C25_29
REMARK    7  A    between atoms: C24_28  and  C26_30
REMARK                            x       y       z     vdW  Elec       q    Type
REMARK                         _______ _______ _______ _____ _____    ______ ____
ROOT
ATOM      1  C5  UNL     1      -0.580  -0.291  -1.530  0.00  0.00    +0.072 A 
ATOM      2  C6  UNL     1      -0.732  -0.309  -2.925  0.00  0.00    +0.029 A 
ATOM      3  C7  UNL     1      -1.984  -0.055  -3.485  0.00  0.00    +0.012 A 
ATOM      4  C8  UNL     1      -3.084   0.207  -2.659  0.00  0.00    +0.001 A 
ATOM      5  C9  UNL     1      -4.342   0.463  -3.212  0.00  0.00    +0.010 A 
ATOM      6  C10 UNL     1      -5.432   0.718  -2.385  0.00  0.00    +0.009 A 
ATOM      7  C11 UNL     1      -5.286   0.721  -0.990  0.00  0.00    -0.014 A 
ATOM      8  C12 UNL     1      -6.404   0.980  -0.185  0.00  0.00    +0.009 A 
ATOM      9  C13 UNL     1      -6.293   0.988   1.202  0.00  0.00    +0.010 A 
ATOM     10  C14 UNL     1      -5.061   0.737   1.811  0.00  0.00    +0.001 A 
ATOM     11  C15 UNL     1      -4.945   0.742   3.209  0.00  0.00    +0.011 A 
ATOM     12  C16 UNL     1      -3.711   0.489   3.806  0.00  0.00    +0.020 A 
ATOM     13  C17 UNL     1      -2.602   0.232   3.002  0.00  0.00    +0.111 A 
ATOM     14  N1  UNL     1      -2.728   0.230   1.649  0.00  0.00    -0.254 NA
ATOM     15  C18 UNL     1      -3.915   0.473   1.021  0.00  0.00    +0.081 A 
ATOM     16  C19 UNL     1      -4.017   0.463  -0.399  0.00  0.00    +0.034 A 
ATOM     17  C20 UNL     1      -2.909   0.207  -1.255  0.00  0.00    +0.081 A 
ATOM     18  N2  UNL     1      -1.669  -0.043  -0.751  0.00  0.00    -0.246 NA
ENDROOT
BRANCH   1  21
ATOM     19  C2  UNL     1       3.182  -0.477  -0.879  0.00  0.00    +0.162 A 
ATOM     20  C3  UNL     1       1.943  -0.227  -1.507  0.00  0.00    +0.059 A 
ATOM     21  C4  UNL     1       0.729  -0.557  -0.879  0.00  0.00    +0.004 A 
ATOM     22  C21 UNL     1       0.764  -1.125   0.402  0.00  0.00    +0.014 A 
ATOM     23  C22 UNL     1       1.981  -1.369   1.035  0.00  0.00    +0.050 A 
ATOM     24  C23 UNL     1       3.195  -1.043   0.421  0.00  0.00    +0.162 A 
BRANCH  19  26
ATOM     25  C1  UNL     1       4.504   0.391  -2.827  0.00  0.00    +0.277 C 
ATOM     26  O1  UNL     1       4.390  -0.185  -1.530  0.00  0.00    -0.491 OA
ENDBRANCH  19  26
BRANCH  24  27
ATOM     27  O2  UNL     1       4.363  -1.321   1.158  0.00  0.00    -0.486 OA
BRANCH  27  28
ATOM     28  C24 UNL     1       5.675  -0.789   0.958  0.00  0.00    +0.167 C 
ATOM     29  C25 UNL     1       6.633  -1.497   1.914  0.00  0.00    +0.051 C 
ATOM     30  C26 UNL     1       5.690   0.721   1.225  0.00  0.00    +0.051 C 
ENDBRANCH  27  28
ENDBRANCH  24  27
ENDBRANCH   1  21
TORSDOF 4
