MODEL 1
REMARK VINA RESULT:    -7.192      0.000      0.000
REMARK INTER + INTRA:         -10.803
REMARK INTER:                  -9.715
REMARK INTRA:                  -1.088
REMARK UNBOUND:                -1.088
REMARK  Name = /home/qwerty/github/datacon2025hack/step_04_hit_selection/docking/ligands/lig_271.pdb
REMARK  11 active torsions:
REMARK  status: ('A' for Active; 'I' for Inactive)
REMARK    1  A    between atoms: C1_1  and  C2_2
REMARK    2  A    between atoms: C2_2  and  C3_3
REMARK    3  A    between atoms: C2_2  and  C4_4
REMARK    4  A    between atoms: C7_7  and  C8_8
REMARK    5  A    between atoms: C8_8  and  C9_9
REMARK    6  A    between atoms: N2_19  and  C16_20
REMARK    7  A    between atoms: C16_20  and  C17_21
REMARK    8  A    between atoms: C17_21  and  N3_22
REMARK    9  A    between atoms: N3_22  and  C18_23
REMARK   10  A    between atoms: N3_22  and  C19_24
REMARK   11  A    between atoms: N4_27  and  C22_28
REMARK                            x       y       z     vdW  Elec       q    Type
REMARK                         _______ _______ _______ _____ _____    ______ ____
ROOT
ATOM      1  C9  UNL     1      21.210   1.210  30.272  0.00  0.00    +0.226 C 
ATOM      2  O1  UNL     1      20.832   0.375  31.140  0.00  0.00    -0.275 OA
ATOM      3  N1  UNL     1      20.774   2.582  30.406  0.00  0.00    -0.301 N 
ATOM      4  C10 UNL     1      19.433   2.837  30.944  0.00  0.00    +0.110 C 
ATOM      5  C11 UNL     1      19.099   4.339  30.956  0.00  0.00    +0.051 C 
ATOM      6  C12 UNL     1      20.195   5.248  31.634  0.00  0.00    +0.101 C 
ATOM      7  C13 UNL     1      21.631   4.707  31.271  0.00  0.00    +0.051 C 
ATOM      8  C14 UNL     1      21.648   3.721  30.101  0.00  0.00    +0.110 C 
ATOM      9  C15 UNL     1      20.028   5.178  33.159  0.00  0.00    +0.236 C 
ATOM     10  O2  UNL     1      19.903   4.044  33.701  0.00  0.00    -0.274 OA
ATOM     11  N2  UNL     1      20.137   6.352  33.999  0.00  0.00    -0.298 N 
ATOM     12  C20 UNL     1      20.253   7.691  33.407  0.00  0.00    +0.123 C 
ATOM     13  C21 UNL     1      20.833   7.623  31.997  0.00  0.00    +0.104 C 
ATOM     14  N4  UNL     1      20.086   6.666  31.147  0.00  0.00    -0.290 NA
ATOM     15  C22 UNL     1      18.705   7.153  30.913  0.00  0.00    +0.106 C 
ENDROOT
BRANCH   1  16
ATOM     16  C8  UNL     1      22.160   0.737  29.160  0.00  0.00    +0.072 C 
ATOM     17  C23 UNL     1      22.204  -0.808  29.091  0.00  0.00    +0.021 C 
ATOM     18  C24 UNL     1      23.645  -1.231  28.838  0.00  0.00    +0.001 C 
ATOM     19  C25 UNL     1      24.533  -0.047  29.196  0.00  0.00    +0.001 C 
ATOM     20  C26 UNL     1      23.615   1.125  29.540  0.00  0.00    +0.021 C 
BRANCH  16  24
ATOM     21  C4  UNL     1      21.123   2.487  25.262  0.00  0.00    -0.045 A 
ATOM     22  C5  UNL     1      22.274   2.894  25.953  0.00  0.00    +0.004 A 
ATOM     23  C6  UNL     1      22.597   2.334  27.190  0.00  0.00    +0.005 A 
ATOM     24  C7  UNL     1      21.777   1.352  27.789  0.00  0.00    -0.032 A 
ATOM     25  C27 UNL     1      20.605   0.972  27.092  0.00  0.00    +0.005 A 
ATOM     26  C28 UNL     1      20.289   1.527  25.850  0.00  0.00    +0.004 A 
BRANCH  21  28
ATOM     27  C1  UNL     1      21.135   4.572  23.845  0.00  0.00    +0.012 C 
ATOM     28  C2  UNL     1      20.761   3.086  23.915  0.00  0.00    +0.013 C 
ATOM     29  C3  UNL     1      19.274   2.875  23.607  0.00  0.00    +0.012 C 
ENDBRANCH  21  28
ENDBRANCH  16  24
ENDBRANCH   1  16
BRANCH  11  30
ATOM     30  C16 UNL     1      20.343   6.206  35.453  0.00  0.00    +0.123 C 
BRANCH  30  31
ATOM     31  C17 UNL     1      21.501   7.069  36.021  0.00  0.00    +0.102 C 
BRANCH  31  32
ATOM     32  N3  UNL     1      22.799   6.381  36.211  0.00  0.00    -0.307 NA
ATOM     33  C18 UNL     1      23.388   6.591  37.541  0.00  0.00    +0.104 C 
ATOM     34  C19 UNL     1      23.767   6.624  35.132  0.00  0.00    +0.104 C 
ENDBRANCH  31  32
ENDBRANCH  30  31
ENDBRANCH  11  30
TORSDOF 6
ENDMDL
MODEL 2
REMARK VINA RESULT:    -7.070      3.889      9.049
REMARK INTER + INTRA:         -10.638
REMARK INTER:                  -9.604
REMARK INTRA:                  -1.034
REMARK UNBOUND:                -1.088
REMARK  Name = /home/qwerty/github/datacon2025hack/step_04_hit_selection/docking/ligands/lig_271.pdb
REMARK  11 active torsions:
REMARK  status: ('A' for Active; 'I' for Inactive)
REMARK    1  A    between atoms: C1_1  and  C2_2
REMARK    2  A    between atoms: C2_2  and  C3_3
REMARK    3  A    between atoms: C2_2  and  C4_4
REMARK    4  A    between atoms: C7_7  and  C8_8
REMARK    5  A    between atoms: C8_8  and  C9_9
REMARK    6  A    between atoms: N2_19  and  C16_20
REMARK    7  A    between atoms: C16_20  and  C17_21
REMARK    8  A    between atoms: C17_21  and  N3_22
REMARK    9  A    between atoms: N3_22  and  C18_23
REMARK   10  A    between atoms: N3_22  and  C19_24
REMARK   11  A    between atoms: N4_27  and  C22_28
REMARK                            x       y       z     vdW  Elec       q    Type
REMARK                         _______ _______ _______ _____ _____    ______ ____
ROOT
ATOM      1  C9  UNL     1      21.998   2.035  27.858  0.00  0.00    +0.226 C 
ATOM      2  O1  UNL     1      22.846   2.522  27.060  0.00  0.00    -0.275 OA
ATOM      3  N1  UNL     1      20.605   2.368  27.665  0.00  0.00    -0.301 N 
ATOM      4  C10 UNL     1      20.271   3.712  27.179  0.00  0.00    +0.110 C 
ATOM      5  C11 UNL     1      18.750   3.927  27.095  0.00  0.00    +0.051 C 
ATOM      6  C12 UNL     1      17.971   2.800  26.313  0.00  0.00    +0.101 C 
ATOM      7  C13 UNL     1      18.606   1.394  26.637  0.00  0.00    +0.051 C 
ATOM      8  C14 UNL     1      19.526   1.393  27.861  0.00  0.00    +0.110 C 
ATOM      9  C15 UNL     1      18.111   3.053  24.805  0.00  0.00    +0.236 C 
ATOM     10  O2  UNL     1      19.258   3.294  24.336  0.00  0.00    -0.274 OA
ATOM     11  N2  UNL     1      16.997   2.896  23.893  0.00  0.00    -0.298 N 
ATOM     12  C20 UNL     1      15.642   2.644  24.399  0.00  0.00    +0.123 C 
ATOM     13  C21 UNL     1      15.680   1.998  25.781  0.00  0.00    +0.104 C 
ATOM     14  N4  UNL     1      16.525   2.772  26.721  0.00  0.00    -0.290 NA
ATOM     15  C22 UNL     1      15.915   4.096  26.992  0.00  0.00    +0.106 C 
ENDROOT
BRANCH   1  16
ATOM     16  C8  UNL     1      22.485   1.067  28.949  0.00  0.00    +0.072 C 
ATOM     17  C23 UNL     1      24.029   1.077  29.047  0.00  0.00    +0.021 C 
ATOM     18  C24 UNL     1      24.501  -0.355  29.263  0.00  0.00    +0.001 C 
ATOM     19  C25 UNL     1      23.357  -1.273  28.854  0.00  0.00    +0.001 C 
ATOM     20  C26 UNL     1      22.159  -0.388  28.517  0.00  0.00    +0.021 C 
BRANCH  16  24
ATOM     21  C4  UNL     1      20.637   2.016  32.824  0.00  0.00    -0.045 A 
ATOM     22  C5  UNL     1      21.615   2.853  32.266  0.00  0.00    +0.004 A 
ATOM     23  C6  UNL     1      22.197   2.546  31.035  0.00  0.00    +0.005 A 
ATOM     24  C7  UNL     1      21.832   1.384  30.319  0.00  0.00    -0.032 A 
ATOM     25  C27 UNL     1      20.863   0.536  30.908  0.00  0.00    +0.005 A 
ATOM     26  C28 UNL     1      20.275   0.850  32.135  0.00  0.00    +0.004 A 
BRANCH  21  28
ATOM     27  C1  UNL     1      18.659   1.603  34.331  0.00  0.00    +0.012 C 
ATOM     28  C2  UNL     1      19.993   2.340  34.160  0.00  0.00    +0.013 C 
ATOM     29  C3  UNL     1      19.813   3.853  34.325  0.00  0.00    +0.012 C 
ENDBRANCH  21  28
ENDBRANCH  16  24
ENDBRANCH   1  16
BRANCH  11  30
ATOM     30  C16 UNL     1      17.238   2.779  22.441  0.00  0.00    +0.123 C 
BRANCH  30  31
ATOM     31  C17 UNL     1      16.478   1.608  21.764  0.00  0.00    +0.102 C 
BRANCH  31  32
ATOM     32  N3  UNL     1      16.131   1.792  20.335  0.00  0.00    -0.307 NA
ATOM     33  C18 UNL     1      16.033   3.201  19.929  0.00  0.00    +0.104 C 
ATOM     34  C19 UNL     1      14.967   1.008  19.898  0.00  0.00    +0.104 C 
ENDBRANCH  31  32
ENDBRANCH  30  31
ENDBRANCH  11  30
TORSDOF 6
ENDMDL
MODEL 3
REMARK VINA RESULT:    -6.838     12.879     14.057
REMARK INTER + INTRA:         -10.324
REMARK INTER:                  -9.113
REMARK INTRA:                  -1.211
REMARK UNBOUND:                -1.088
REMARK  Name = /home/qwerty/github/datacon2025hack/step_04_hit_selection/docking/ligands/lig_271.pdb
REMARK  11 active torsions:
REMARK  status: ('A' for Active; 'I' for Inactive)
REMARK    1  A    between atoms: C1_1  and  C2_2
REMARK    2  A    between atoms: C2_2  and  C3_3
REMARK    3  A    between atoms: C2_2  and  C4_4
REMARK    4  A    between atoms: C7_7  and  C8_8
REMARK    5  A    between atoms: C8_8  and  C9_9
REMARK    6  A    between atoms: N2_19  and  C16_20
REMARK    7  A    between atoms: C16_20  and  C17_21
REMARK    8  A    between atoms: C17_21  and  N3_22
REMARK    9  A    between atoms: N3_22  and  C18_23
REMARK   10  A    between atoms: N3_22  and  C19_24
REMARK   11  A    between atoms: N4_27  and  C22_28
REMARK                            x       y       z     vdW  Elec       q    Type
REMARK                         _______ _______ _______ _____ _____    ______ ____
ROOT
ATOM      1  C9  UNL     1       8.335  10.315  28.099  0.00  0.00    +0.226 C 
ATOM      2  O1  UNL     1       7.402  10.491  28.931  0.00  0.00    -0.275 OA
ATOM      3  N1  UNL     1       9.343  11.343  27.973  0.00  0.00    -0.301 N 
ATOM      4  C10 UNL     1       8.932  12.743  28.130  0.00  0.00    +0.110 C 
ATOM      5  C11 UNL     1      10.105  13.711  27.897  0.00  0.00    +0.051 C 
ATOM      6  C12 UNL     1      11.406  13.376  28.723  0.00  0.00    +0.101 C 
ATOM      7  C13 UNL     1      11.604  11.813  28.787  0.00  0.00    +0.051 C 
ATOM      8  C14 UNL     1      10.764  11.036  27.772  0.00  0.00    +0.110 C 
ATOM      9  C15 UNL     1      11.234  13.897  30.157  0.00  0.00    +0.236 C 
ATOM     10  O2  UNL     1      10.162  13.635  30.770  0.00  0.00    -0.274 OA
ATOM     11  N2  UNL     1      12.306  14.564  30.866  0.00  0.00    -0.298 N 
ATOM     12  C20 UNL     1      13.557  14.913  30.180  0.00  0.00    +0.123 C 
ATOM     13  C21 UNL     1      13.796  14.009  28.974  0.00  0.00    +0.104 C 
ATOM     14  N4  UNL     1      12.619  13.981  28.074  0.00  0.00    -0.290 NA
ATOM     15  C22 UNL     1      12.411  15.312  27.454  0.00  0.00    +0.106 C 
ENDROOT
BRANCH   1  16
ATOM     16  C8  UNL     1       8.383   8.993  27.315  0.00  0.00    +0.072 C 
ATOM     17  C23 UNL     1       7.136   8.128  27.615  0.00  0.00    +0.021 C 
ATOM     18  C24 UNL     1       7.581   6.675  27.729  0.00  0.00    +0.001 C 
ATOM     19  C25 UNL     1       9.088   6.683  27.955  0.00  0.00    +0.001 C 
ATOM     20  C26 UNL     1       9.559   8.131  27.848  0.00  0.00    +0.021 C 
BRANCH  16  24
ATOM     21  C4  UNL     1       8.863   9.664  22.996  0.00  0.00    -0.045 A 
ATOM     22  C5  UNL     1       9.903   9.114  23.762  0.00  0.00    +0.004 A 
ATOM     23  C6  UNL     1       9.743   8.904  25.133  0.00  0.00    +0.005 A 
ATOM     24  C7  UNL     1       8.541   9.244  25.794  0.00  0.00    -0.032 A 
ATOM     25  C27 UNL     1       7.512   9.823  25.012  0.00  0.00    +0.005 A 
ATOM     26  C28 UNL     1       7.671  10.024  23.640  0.00  0.00    +0.004 A 
BRANCH  21  28
ATOM     27  C1  UNL     1      10.500  10.041  21.116  0.00  0.00    +0.012 C 
ATOM     28  C2  UNL     1       9.023   9.896  21.505  0.00  0.00    +0.013 C 
ATOM     29  C3  UNL     1       8.210  11.114  21.053  0.00  0.00    +0.012 C 
ENDBRANCH  21  28
ENDBRANCH  16  24
ENDBRANCH   1  16
BRANCH  11  30
ATOM     30  C16 UNL     1      12.243  14.714  32.333  0.00  0.00    +0.123 C 
BRANCH  30  31
ATOM     31  C17 UNL     1      12.892  13.545  33.120  0.00  0.00    +0.102 C 
BRANCH  31  32
ATOM     32  N3  UNL     1      12.026  12.858  34.106  0.00  0.00    -0.307 NA
ATOM     33  C18 UNL     1      11.447  11.601  33.606  0.00  0.00    +0.104 C 
ATOM     34  C19 UNL     1      11.013  13.727  34.721  0.00  0.00    +0.104 C 
ENDBRANCH  31  32
ENDBRANCH  30  31
ENDBRANCH  11  30
TORSDOF 6
ENDMDL
MODEL 4
REMARK VINA RESULT:    -6.742     10.640     14.250
REMARK INTER + INTRA:         -10.195
REMARK INTER:                  -9.132
REMARK INTRA:                  -1.063
REMARK UNBOUND:                -1.088
REMARK  Name = /home/qwerty/github/datacon2025hack/step_04_hit_selection/docking/ligands/lig_271.pdb
REMARK  11 active torsions:
REMARK  status: ('A' for Active; 'I' for Inactive)
REMARK    1  A    between atoms: C1_1  and  C2_2
REMARK    2  A    between atoms: C2_2  and  C3_3
REMARK    3  A    between atoms: C2_2  and  C4_4
REMARK    4  A    between atoms: C7_7  and  C8_8
REMARK    5  A    between atoms: C8_8  and  C9_9
REMARK    6  A    between atoms: N2_19  and  C16_20
REMARK    7  A    between atoms: C16_20  and  C17_21
REMARK    8  A    between atoms: C17_21  and  N3_22
REMARK    9  A    between atoms: N3_22  and  C18_23
REMARK   10  A    between atoms: N3_22  and  C19_24
REMARK   11  A    between atoms: N4_27  and  C22_28
REMARK                            x       y       z     vdW  Elec       q    Type
REMARK                         _______ _______ _______ _____ _____    ______ ____
ROOT
ATOM      1  C9  UNL     1      10.166  13.353  28.823  0.00  0.00    +0.226 C 
ATOM      2  O1  UNL     1      10.765  14.369  28.371  0.00  0.00    -0.275 OA
ATOM      3  N1  UNL     1      10.920  12.412  29.620  0.00  0.00    -0.301 N 
ATOM      4  C10 UNL     1      12.327  12.178  29.275  0.00  0.00    +0.110 C 
ATOM      5  C11 UNL     1      12.963  11.101  30.172  0.00  0.00    +0.051 C 
ATOM      6  C12 UNL     1      12.759  11.334  31.719  0.00  0.00    +0.101 C 
ATOM      7  C13 UNL     1      11.314  11.904  31.983  0.00  0.00    +0.051 C 
ATOM      8  C14 UNL     1      10.356  11.747  30.801  0.00  0.00    +0.110 C 
ATOM      9  C15 UNL     1      13.781  12.371  32.205  0.00  0.00    +0.236 C 
ATOM     10  O2  UNL     1      13.918  13.439  31.546  0.00  0.00    -0.274 OA
ATOM     11  N2  UNL     1      14.493  12.221  33.457  0.00  0.00    -0.298 N 
ATOM     12  C20 UNL     1      14.384  10.982  34.239  0.00  0.00    +0.123 C 
ATOM     13  C21 UNL     1      13.082  10.248  33.931  0.00  0.00    +0.104 C 
ATOM     14  N4  UNL     1      12.905  10.042  32.474  0.00  0.00    -0.290 NA
ATOM     15  C22 UNL     1      13.939   9.115  31.954  0.00  0.00    +0.106 C 
ENDROOT
BRANCH   1  16
ATOM     16  C8  UNL     1       8.660  13.208  28.555  0.00  0.00    +0.072 C 
ATOM     17  C23 UNL     1       8.204  14.165  27.429  0.00  0.00    +0.021 C 
ATOM     18  C24 UNL     1       6.850  14.745  27.817  0.00  0.00    +0.001 C 
ATOM     19  C25 UNL     1       6.681  14.530  29.315  0.00  0.00    +0.001 C 
ATOM     20  C26 UNL     1       7.874  13.709  29.797  0.00  0.00    +0.021 C 
BRANCH  16  24
ATOM     21  C4  UNL     1       7.547   9.046  27.671  0.00  0.00    -0.045 A 
ATOM     22  C5  UNL     1       7.192   9.646  28.889  0.00  0.00    +0.004 A 
ATOM     23  C6  UNL     1       7.549  10.967  29.163  0.00  0.00    +0.005 A 
ATOM     24  C7  UNL     1       8.282  11.738  28.234  0.00  0.00    -0.032 A 
ATOM     25  C27 UNL     1       8.657  11.111  27.020  0.00  0.00    +0.005 A 
ATOM     26  C28 UNL     1       8.291   9.792  26.745  0.00  0.00    +0.004 A 
BRANCH  21  28
ATOM     27  C1  UNL     1       7.210   6.735  28.617  0.00  0.00    +0.012 C 
ATOM     28  C2  UNL     1       7.164   7.611  27.359  0.00  0.00    +0.013 C 
ATOM     29  C3  UNL     1       8.056   7.038  26.252  0.00  0.00    +0.012 C 
ENDBRANCH  21  28
ENDBRANCH  16  24
ENDBRANCH   1  16
BRANCH  11  30
ATOM     30  C16 UNL     1      15.169  13.381  34.070  0.00  0.00    +0.123 C 
BRANCH  30  31
ATOM     31  C17 UNL     1      14.284  14.182  35.061  0.00  0.00    +0.102 C 
BRANCH  31  32
ATOM     32  N3  UNL     1      14.832  14.372  36.424  0.00  0.00    -0.307 NA
ATOM     33  C18 UNL     1      15.103  15.778  36.760  0.00  0.00    +0.104 C 
ATOM     34  C19 UNL     1      15.972  13.499  36.736  0.00  0.00    +0.104 C 
ENDBRANCH  31  32
ENDBRANCH  30  31
ENDBRANCH  11  30
TORSDOF 6
ENDMDL
MODEL 5
REMARK VINA RESULT:    -6.603     12.097     15.754
REMARK INTER + INTRA:         -10.007
REMARK INTER:                  -8.732
REMARK INTRA:                  -1.275
REMARK UNBOUND:                -1.088
REMARK  Name = /home/qwerty/github/datacon2025hack/step_04_hit_selection/docking/ligands/lig_271.pdb
REMARK  11 active torsions:
REMARK  status: ('A' for Active; 'I' for Inactive)
REMARK    1  A    between atoms: C1_1  and  C2_2
REMARK    2  A    between atoms: C2_2  and  C3_3
REMARK    3  A    between atoms: C2_2  and  C4_4
REMARK    4  A    between atoms: C7_7  and  C8_8
REMARK    5  A    between atoms: C8_8  and  C9_9
REMARK    6  A    between atoms: N2_19  and  C16_20
REMARK    7  A    between atoms: C16_20  and  C17_21
REMARK    8  A    between atoms: C17_21  and  N3_22
REMARK    9  A    between atoms: N3_22  and  C18_23
REMARK   10  A    between atoms: N3_22  and  C19_24
REMARK   11  A    between atoms: N4_27  and  C22_28
REMARK                            x       y       z     vdW  Elec       q    Type
REMARK                         _______ _______ _______ _____ _____    ______ ____
ROOT
ATOM      1  C9  UNL     1       9.788   8.553  27.448  0.00  0.00    +0.226 C 
ATOM      2  O1  UNL     1       9.913   7.337  27.764  0.00  0.00    -0.275 OA
ATOM      3  N1  UNL     1      10.246   8.973  26.144  0.00  0.00    -0.301 N 
ATOM      4  C10 UNL     1      11.437   8.324  25.582  0.00  0.00    +0.110 C 
ATOM      5  C11 UNL     1      11.831   8.932  24.224  0.00  0.00    +0.051 C 
ATOM      6  C12 UNL     1      10.653   9.021  23.180  0.00  0.00    +0.101 C 
ATOM      7  C13 UNL     1       9.316   9.409  23.920  0.00  0.00    +0.051 C 
ATOM      8  C14 UNL     1       9.523   9.960  25.333  0.00  0.00    +0.110 C 
ATOM      9  C15 UNL     1      10.458   7.644  22.530  0.00  0.00    +0.236 C 
ATOM     10  O2  UNL     1      10.398   6.627  23.276  0.00  0.00    -0.274 OA
ATOM     11  N2  UNL     1      10.214   7.491  21.111  0.00  0.00    -0.298 N 
ATOM     12  C20 UNL     1      10.303   8.644  20.205  0.00  0.00    +0.123 C 
ATOM     13  C21 UNL     1      10.064   9.952  20.952  0.00  0.00    +0.104 C 
ATOM     14  N4  UNL     1      10.940  10.069  22.141  0.00  0.00    -0.290 NA
ATOM     15  C22 UNL     1      12.360  10.179  21.727  0.00  0.00    +0.106 C 
ENDROOT
BRANCH   1  16
ATOM     16  C8  UNL     1       9.099   9.504  28.441  0.00  0.00    +0.072 C 
ATOM     17  C23 UNL     1       9.053   8.884  29.858  0.00  0.00    +0.021 C 
ATOM     18  C24 UNL     1       7.698   9.207  30.474  0.00  0.00    +0.001 C 
ATOM     19  C25 UNL     1       6.768   9.603  29.334  0.00  0.00    +0.001 C 
ATOM     20  C26 UNL     1       7.602   9.640  28.055  0.00  0.00    +0.021 C 
BRANCH  16  24
ATOM     21  C4  UNL     1      11.082  13.429  28.473  0.00  0.00    -0.045 A 
ATOM     22  C5  UNL     1      11.783  12.262  28.813  0.00  0.00    +0.004 A 
ATOM     23  C6  UNL     1      11.148  11.019  28.801  0.00  0.00    +0.005 A 
ATOM     24  C7  UNL     1       9.783  10.896  28.457  0.00  0.00    -0.032 A 
ATOM     25  C27 UNL     1       9.082  12.085  28.143  0.00  0.00    +0.005 A 
ATOM     26  C28 UNL     1       9.722  13.325  28.147  0.00  0.00    +0.004 A 
BRANCH  21  28
ATOM     27  C1  UNL     1      12.467  15.064  27.146  0.00  0.00    +0.012 C 
ATOM     28  C2  UNL     1      11.761  14.786  28.479  0.00  0.00    +0.013 C 
ATOM     29  C3  UNL     1      12.738  14.900  29.655  0.00  0.00    +0.012 C 
ENDBRANCH  21  28
ENDBRANCH  16  24
ENDBRANCH   1  16
BRANCH  11  30
ATOM     30  C16 UNL     1       9.669   6.224  20.584  0.00  0.00    +0.123 C 
BRANCH  30  31
ATOM     31  C17 UNL     1      10.745   5.243  20.049  0.00  0.00    +0.102 C 
BRANCH  31  32
ATOM     32  N3  UNL     1      10.988   4.029  20.863  0.00  0.00    -0.307 NA
ATOM     33  C18 UNL     1       9.812   3.586  21.626  0.00  0.00    +0.104 C 
ATOM     34  C19 UNL     1      12.195   4.102  21.698  0.00  0.00    +0.104 C 
ENDBRANCH  31  32
ENDBRANCH  30  31
ENDBRANCH  11  30
TORSDOF 6
ENDMDL
MODEL 6
REMARK VINA RESULT:    -6.601     12.796     16.141
REMARK INTER + INTRA:         -10.005
REMARK INTER:                  -8.891
REMARK INTRA:                  -1.114
REMARK UNBOUND:                -1.088
REMARK  Name = /home/qwerty/github/datacon2025hack/step_04_hit_selection/docking/ligands/lig_271.pdb
REMARK  11 active torsions:
REMARK  status: ('A' for Active; 'I' for Inactive)
REMARK    1  A    between atoms: C1_1  and  C2_2
REMARK    2  A    between atoms: C2_2  and  C3_3
REMARK    3  A    between atoms: C2_2  and  C4_4
REMARK    4  A    between atoms: C7_7  and  C8_8
REMARK    5  A    between atoms: C8_8  and  C9_9
REMARK    6  A    between atoms: N2_19  and  C16_20
REMARK    7  A    between atoms: C16_20  and  C17_21
REMARK    8  A    between atoms: C17_21  and  N3_22
REMARK    9  A    between atoms: N3_22  and  C18_23
REMARK   10  A    between atoms: N3_22  and  C19_24
REMARK   11  A    between atoms: N4_27  and  C22_28
REMARK                            x       y       z     vdW  Elec       q    Type
REMARK                         _______ _______ _______ _____ _____    ______ ____
ROOT
ATOM      1  C9  UNL     1      11.394  13.712  29.339  0.00  0.00    +0.226 C 
ATOM      2  O1  UNL     1      11.197  14.628  28.492  0.00  0.00    -0.275 OA
ATOM      3  N1  UNL     1      10.441  12.628  29.410  0.00  0.00    -0.301 N 
ATOM      4  C10 UNL     1       9.025  12.929  29.166  0.00  0.00    +0.110 C 
ATOM      5  C11 UNL     1       8.138  11.686  29.348  0.00  0.00    +0.051 C 
ATOM      6  C12 UNL     1       8.622  10.414  28.551  0.00  0.00    +0.101 C 
ATOM      7  C13 UNL     1      10.196  10.337  28.581  0.00  0.00    +0.051 C 
ATOM      8  C14 UNL     1      10.844  11.235  29.636  0.00  0.00    +0.110 C 
ATOM      9  C15 UNL     1       8.175  10.543  27.088  0.00  0.00    +0.236 C 
ATOM     10  O2  UNL     1       8.391  11.631  26.484  0.00  0.00    -0.274 OA
ATOM     11  N2  UNL     1       7.637   9.422  26.346  0.00  0.00    -0.298 N 
ATOM     12  C20 UNL     1       7.345   8.149  27.017  0.00  0.00    +0.123 C 
ATOM     13  C21 UNL     1       8.190   7.981  28.276  0.00  0.00    +0.104 C 
ATOM     14  N4  UNL     1       8.074   9.158  29.170  0.00  0.00    -0.290 NA
ATOM     15  C22 UNL     1       6.696   9.264  29.707  0.00  0.00    +0.106 C 
ENDROOT
BRANCH   1  16
ATOM     16  C8  UNL     1      12.666  13.768  30.200  0.00  0.00    +0.072 C 
ATOM     17  C23 UNL     1      13.438  15.087  29.962  0.00  0.00    +0.021 C 
ATOM     18  C24 UNL     1      14.927  14.768  29.933  0.00  0.00    +0.001 C 
ATOM     19  C25 UNL     1      15.062  13.269  29.696  0.00  0.00    +0.001 C 
ATOM     20  C26 UNL     1      13.656  12.675  29.712  0.00  0.00    +0.021 C 
BRANCH  16  24
ATOM     21  C4  UNL     1      11.694  13.227  34.455  0.00  0.00    -0.045 A 
ATOM     22  C5  UNL     1      11.181  14.312  33.729  0.00  0.00    +0.004 A 
ATOM     23  C6  UNL     1      11.494  14.478  32.378  0.00  0.00    +0.005 A 
ATOM     24  C7  UNL     1      12.340  13.570  31.703  0.00  0.00    -0.032 A 
ATOM     25  C27 UNL     1      12.871  12.495  32.457  0.00  0.00    +0.005 A 
ATOM     26  C28 UNL     1      12.549  12.327  33.805  0.00  0.00    +0.004 A 
BRANCH  21  28
ATOM     27  C1  UNL     1      11.266  11.546  36.283  0.00  0.00    +0.012 C 
ATOM     28  C2  UNL     1      11.360  13.034  35.922  0.00  0.00    +0.013 C 
ATOM     29  C3  UNL     1      10.069  13.774  36.289  0.00  0.00    +0.012 C 
ENDBRANCH  21  28
ENDBRANCH  16  24
ENDBRANCH   1  16
BRANCH  11  30
ATOM     30  C16 UNL     1       7.571   9.472  24.872  0.00  0.00    +0.123 C 
BRANCH  30  31
ATOM     31  C17 UNL     1       8.915   9.158  24.164  0.00  0.00    +0.102 C 
BRANCH  31  32
ATOM     32  N3  UNL     1       8.888   8.075  23.155  0.00  0.00    -0.307 NA
ATOM     33  C18 UNL     1       7.987   8.346  22.024  0.00  0.00    +0.104 C 
ATOM     34  C19 UNL     1       8.678   6.735  23.721  0.00  0.00    +0.104 C 
ENDBRANCH  31  32
ENDBRANCH  30  31
ENDBRANCH  11  30
TORSDOF 6
ENDMDL
MODEL 7
REMARK VINA RESULT:    -6.522      2.724      8.358
REMARK INTER + INTRA:          -9.898
REMARK INTER:                  -8.617
REMARK INTRA:                  -1.281
REMARK UNBOUND:                -1.088
REMARK  Name = /home/qwerty/github/datacon2025hack/step_04_hit_selection/docking/ligands/lig_271.pdb
REMARK  11 active torsions:
REMARK  status: ('A' for Active; 'I' for Inactive)
REMARK    1  A    between atoms: C1_1  and  C2_2
REMARK    2  A    between atoms: C2_2  and  C3_3
REMARK    3  A    between atoms: C2_2  and  C4_4
REMARK    4  A    between atoms: C7_7  and  C8_8
REMARK    5  A    between atoms: C8_8  and  C9_9
REMARK    6  A    between atoms: N2_19  and  C16_20
REMARK    7  A    between atoms: C16_20  and  C17_21
REMARK    8  A    between atoms: C17_21  and  N3_22
REMARK    9  A    between atoms: N3_22  and  C18_23
REMARK   10  A    between atoms: N3_22  and  C19_24
REMARK   11  A    between atoms: N4_27  and  C22_28
REMARK                            x       y       z     vdW  Elec       q    Type
REMARK                         _______ _______ _______ _____ _____    ______ ____
ROOT
ATOM      1  C9  UNL     1      20.979   1.991  31.255  0.00  0.00    +0.226 C 
ATOM      2  O1  UNL     1      21.022   0.744  31.444  0.00  0.00    -0.275 OA
ATOM      3  N1  UNL     1      21.271   2.494  29.932  0.00  0.00    -0.301 N 
ATOM      4  C10 UNL     1      22.285   1.799  29.131  0.00  0.00    +0.110 C 
ATOM      5  C11 UNL     1      22.526   2.499  27.782  0.00  0.00    +0.051 C 
ATOM      6  C12 UNL     1      21.216   2.799  26.957  0.00  0.00    +0.101 C 
ATOM      7  C13 UNL     1      20.060   3.232  27.936  0.00  0.00    +0.051 C 
ATOM      8  C14 UNL     1      20.540   3.619  29.336  0.00  0.00    +0.110 C 
ATOM      9  C15 UNL     1      20.779   1.516  26.235  0.00  0.00    +0.236 C 
ATOM     10  O2  UNL     1      20.728   0.440  26.893  0.00  0.00    -0.274 OA
ATOM     11  N2  UNL     1      20.303   1.528  24.867  0.00  0.00    -0.298 N 
ATOM     12  C20 UNL     1      20.372   2.752  24.058  0.00  0.00    +0.123 C 
ATOM     13  C21 UNL     1      20.391   3.996  24.941  0.00  0.00    +0.104 C 
ATOM     14  N4  UNL     1      21.449   3.914  25.975  0.00  0.00    -0.290 NA
ATOM     15  C22 UNL     1      22.791   3.934  25.344  0.00  0.00    +0.106 C 
ENDROOT
BRANCH   1  16
ATOM     16  C8  UNL     1      20.558   2.898  32.423  0.00  0.00    +0.072 C 
ATOM     17  C23 UNL     1      20.673   2.150  33.772  0.00  0.00    +0.021 C 
ATOM     18  C24 UNL     1      19.472   2.530  34.630  0.00  0.00    +0.001 C 
ATOM     19  C25 UNL     1      18.419   3.114  33.698  0.00  0.00    +0.001 C 
ATOM     20  C26 UNL     1      19.040   3.202  32.305  0.00  0.00    +0.021 C 
BRANCH  16  24
ATOM     21  C4  UNL     1      22.914   6.611  32.448  0.00  0.00    -0.045 A 
ATOM     22  C5  UNL     1      23.521   5.368  32.683  0.00  0.00    +0.004 A 
ATOM     23  C6  UNL     1      22.767   4.193  32.673  0.00  0.00    +0.005 A 
ATOM     24  C7  UNL     1      21.374   4.216  32.438  0.00  0.00    -0.032 A 
ATOM     25  C27 UNL     1      20.771   5.480  32.230  0.00  0.00    +0.005 A 
ATOM     26  C28 UNL     1      21.530   6.653  32.231  0.00  0.00    +0.004 A 
BRANCH  21  28
ATOM     27  C1  UNL     1      25.101   7.685  33.090  0.00  0.00    +0.012 C 
ATOM     28  C2  UNL     1      23.722   7.895  32.453  0.00  0.00    +0.013 C 
ATOM     29  C3  UNL     1      22.954   9.019  33.156  0.00  0.00    +0.012 C 
ENDBRANCH  21  28
ENDBRANCH  16  24
ENDBRANCH   1  16
BRANCH  11  30
ATOM     30  C16 UNL     1      19.551   0.374  24.334  0.00  0.00    +0.123 C 
BRANCH  30  31
ATOM     31  C17 UNL     1      18.013   0.485  24.503  0.00  0.00    +0.102 C 
BRANCH  31  32
ATOM     32  N3  UNL     1      17.474   0.143  25.840  0.00  0.00    -0.307 NA
ATOM     33  C18 UNL     1      16.601  -1.040  25.839  0.00  0.00    +0.104 C 
ATOM     34  C19 UNL     1      16.865   1.279  26.547  0.00  0.00    +0.104 C 
ENDBRANCH  31  32
ENDBRANCH  30  31
ENDBRANCH  11  30
TORSDOF 6
ENDMDL
MODEL 8
REMARK VINA RESULT:    -6.521     11.331     13.294
REMARK INTER + INTRA:          -9.897
REMARK INTER:                  -9.065
REMARK INTRA:                  -0.832
REMARK UNBOUND:                -1.088
REMARK  Name = /home/qwerty/github/datacon2025hack/step_04_hit_selection/docking/ligands/lig_271.pdb
REMARK  11 active torsions:
REMARK  status: ('A' for Active; 'I' for Inactive)
REMARK    1  A    between atoms: C1_1  and  C2_2
REMARK    2  A    between atoms: C2_2  and  C3_3
REMARK    3  A    between atoms: C2_2  and  C4_4
REMARK    4  A    between atoms: C7_7  and  C8_8
REMARK    5  A    between atoms: C8_8  and  C9_9
REMARK    6  A    between atoms: N2_19  and  C16_20
REMARK    7  A    between atoms: C16_20  and  C17_21
REMARK    8  A    between atoms: C17_21  and  N3_22
REMARK    9  A    between atoms: N3_22  and  C18_23
REMARK   10  A    between atoms: N3_22  and  C19_24
REMARK   11  A    between atoms: N4_27  and  C22_28
REMARK                            x       y       z     vdW  Elec       q    Type
REMARK                         _______ _______ _______ _____ _____    ______ ____
ROOT
ATOM      1  C9  UNL     1      19.930  16.102  25.284  0.00  0.00    +0.226 C 
ATOM      2  O1  UNL     1      19.431  17.163  24.814  0.00  0.00    -0.275 OA
ATOM      3  N1  UNL     1      19.296  15.498  26.433  0.00  0.00    -0.301 N 
ATOM      4  C10 UNL     1      18.697  16.380  27.442  0.00  0.00    +0.110 C 
ATOM      5  C11 UNL     1      18.129  15.584  28.630  0.00  0.00    +0.051 C 
ATOM      6  C12 UNL     1      17.167  14.402  28.227  0.00  0.00    +0.101 C 
ATOM      7  C13 UNL     1      17.710  13.698  26.925  0.00  0.00    +0.051 C 
ATOM      8  C14 UNL     1      19.162  14.045  26.588  0.00  0.00    +0.110 C 
ATOM      9  C15 UNL     1      15.776  14.974  27.918  0.00  0.00    +0.236 C 
ATOM     10  O2  UNL     1      15.691  15.978  27.158  0.00  0.00    -0.274 OA
ATOM     11  N2  UNL     1      14.561  14.324  28.365  0.00  0.00    -0.298 N 
ATOM     12  C20 UNL     1      14.616  13.172  29.274  0.00  0.00    +0.123 C 
ATOM     13  C21 UNL     1      15.953  12.445  29.163  0.00  0.00    +0.104 C 
ATOM     14  N4  UNL     1      17.094  13.377  29.324  0.00  0.00    -0.290 NA
ATOM     15  C22 UNL     1      17.126  13.920  30.704  0.00  0.00    +0.106 C 
ENDROOT
BRANCH   1  16
ATOM     16  C8  UNL     1      21.141  15.480  24.571  0.00  0.00    +0.072 C 
ATOM     17  C23 UNL     1      21.845  14.445  25.479  0.00  0.00    +0.021 C 
ATOM     18  C24 UNL     1      23.350  14.603  25.302  0.00  0.00    +0.001 C 
ATOM     19  C25 UNL     1      23.589  15.971  24.677  0.00  0.00    +0.001 C 
ATOM     20  C26 UNL     1      22.222  16.575  24.363  0.00  0.00    +0.021 C 
BRANCH  16  24
ATOM     21  C4  UNL     1      19.965  13.672  20.739  0.00  0.00    -0.045 A 
ATOM     22  C5  UNL     1      20.080  12.893  21.900  0.00  0.00    +0.004 A 
ATOM     23  C6  UNL     1      20.454  13.474  23.113  0.00  0.00    +0.005 A 
ATOM     24  C7  UNL     1      20.737  14.855  23.211  0.00  0.00    -0.032 A 
ATOM     25  C27 UNL     1      20.643  15.622  22.024  0.00  0.00    +0.005 A 
ATOM     26  C28 UNL     1      20.260  15.040  20.814  0.00  0.00    +0.004 A 
BRANCH  21  28
ATOM     27  C1  UNL     1      18.419  12.042  19.597  0.00  0.00    +0.012 C 
ATOM     28  C2  UNL     1      19.557  13.053  19.414  0.00  0.00    +0.013 C 
ATOM     29  C3  UNL     1      20.762  12.409  18.720  0.00  0.00    +0.012 C 
ENDBRANCH  21  28
ENDBRANCH  16  24
ENDBRANCH   1  16
BRANCH  11  30
ATOM     30  C16 UNL     1      13.265  14.675  27.752  0.00  0.00    +0.123 C 
BRANCH  30  31
ATOM     31  C17 UNL     1      12.114  14.877  28.772  0.00  0.00    +0.102 C 
BRANCH  31  32
ATOM     32  N3  UNL     1      10.875  14.103  28.526  0.00  0.00    -0.307 NA
ATOM     33  C18 UNL     1      10.271  13.552  29.748  0.00  0.00    +0.104 C 
ATOM     34  C19 UNL     1      11.004  13.091  27.468  0.00  0.00    +0.104 C 
ENDBRANCH  31  32
ENDBRANCH  30  31
ENDBRANCH  11  30
TORSDOF 6
ENDMDL
MODEL 9
REMARK VINA RESULT:    -6.459      4.089      6.575
REMARK INTER + INTRA:          -9.812
REMARK INTER:                  -8.975
REMARK INTRA:                  -0.837
REMARK UNBOUND:                -1.088
REMARK  Name = /home/qwerty/github/datacon2025hack/step_04_hit_selection/docking/ligands/lig_271.pdb
REMARK  11 active torsions:
REMARK  status: ('A' for Active; 'I' for Inactive)
REMARK    1  A    between atoms: C1_1  and  C2_2
REMARK    2  A    between atoms: C2_2  and  C3_3
REMARK    3  A    between atoms: C2_2  and  C4_4
REMARK    4  A    between atoms: C7_7  and  C8_8
REMARK    5  A    between atoms: C8_8  and  C9_9
REMARK    6  A    between atoms: N2_19  and  C16_20
REMARK    7  A    between atoms: C16_20  and  C17_21
REMARK    8  A    between atoms: C17_21  and  N3_22
REMARK    9  A    between atoms: N3_22  and  C18_23
REMARK   10  A    between atoms: N3_22  and  C19_24
REMARK   11  A    between atoms: N4_27  and  C22_28
REMARK                            x       y       z     vdW  Elec       q    Type
REMARK                         _______ _______ _______ _____ _____    ______ ____
ROOT
ATOM      1  C9  UNL     1      20.615   6.521  32.600  0.00  0.00    +0.226 C 
ATOM      2  O1  UNL     1      19.570   5.814  32.580  0.00  0.00    -0.275 OA
ATOM      3  N1  UNL     1      20.486   7.925  32.920  0.00  0.00    -0.301 N 
ATOM      4  C10 UNL     1      19.286   8.636  32.463  0.00  0.00    +0.110 C 
ATOM      5  C11 UNL     1      19.336  10.131  32.822  0.00  0.00    +0.051 C 
ATOM      6  C12 UNL     1      19.665  10.430  34.335  0.00  0.00    +0.101 C 
ATOM      7  C13 UNL     1      20.740   9.401  34.857  0.00  0.00    +0.051 C 
ATOM      8  C14 UNL     1      21.466   8.640  33.746  0.00  0.00    +0.110 C 
ATOM      9  C15 UNL     1      18.387  10.252  35.167  0.00  0.00    +0.236 C 
ATOM     10  O2  UNL     1      17.695   9.210  34.996  0.00  0.00    -0.274 OA
ATOM     11  N2  UNL     1      18.024  11.171  36.225  0.00  0.00    -0.298 N 
ATOM     12  C20 UNL     1      18.786  12.409  36.439  0.00  0.00    +0.123 C 
ATOM     13  C21 UNL     1      20.209  12.280  35.903  0.00  0.00    +0.104 C 
ATOM     14  N4  UNL     1      20.221  11.818  34.495  0.00  0.00    -0.290 NA
ATOM     15  C22 UNL     1      19.625  12.846  33.609  0.00  0.00    +0.106 C 
ENDROOT
BRANCH   1  16
ATOM     16  C8  UNL     1      21.970   5.840  32.346  0.00  0.00    +0.072 C 
ATOM     17  C23 UNL     1      22.692   5.533  33.679  0.00  0.00    +0.021 C 
ATOM     18  C24 UNL     1      24.175   5.832  33.497  0.00  0.00    +0.001 C 
ATOM     19  C25 UNL     1      24.307   6.722  32.268  0.00  0.00    +0.001 C 
ATOM     20  C26 UNL     1      22.919   6.849  31.643  0.00  0.00    +0.021 C 
BRANCH  16  24
ATOM     21  C4  UNL     1      21.525   2.237  29.866  0.00  0.00    -0.045 A 
ATOM     22  C5  UNL     1      21.357   3.517  29.317  0.00  0.00    +0.004 A 
ATOM     23  C6  UNL     1      21.500   4.657  30.110  0.00  0.00    +0.005 A 
ATOM     24  C7  UNL     1      21.807   4.561  31.486  0.00  0.00    -0.032 A 
ATOM     25  C27 UNL     1      21.946   3.261  32.031  0.00  0.00    +0.005 A 
ATOM     26  C28 UNL     1      21.812   2.123  31.233  0.00  0.00    +0.004 A 
BRANCH  21  28
ATOM     27  C1  UNL     1      22.642   0.126  29.061  0.00  0.00    +0.012 C 
ATOM     28  C2  UNL     1      21.375   0.990  29.014  0.00  0.00    +0.013 C 
ATOM     29  C3  UNL     1      21.010   1.356  27.571  0.00  0.00    +0.012 C 
ENDBRANCH  21  28
ENDBRANCH  16  24
ENDBRANCH   1  16
BRANCH  11  30
ATOM     30  C16 UNL     1      17.019  10.782  37.234  0.00  0.00    +0.123 C 
BRANCH  30  31
ATOM     31  C17 UNL     1      16.045  11.921  37.633  0.00  0.00    +0.102 C 
BRANCH  31  32
ATOM     32  N3  UNL     1      14.921  12.178  36.703  0.00  0.00    -0.307 NA
ATOM     33  C18 UNL     1      14.463  13.575  36.703  0.00  0.00    +0.104 C 
ATOM     34  C19 UNL     1      13.806  11.230  36.836  0.00  0.00    +0.104 C 
ENDBRANCH  31  32
ENDBRANCH  30  31
ENDBRANCH  11  30
TORSDOF 6
ENDMDL
