REMARK  Name = /home/qwerty/github/datacon2025hack/step_04_hit_selection/docking/ligands/lig_40.pdb
REMARK  3 active torsions:
REMARK  status: ('A' for Active; 'I' for Inactive)
REMARK    1  A    between atoms: C1_2  and  C2_3
REMARK    2  A    between atoms: C8_9  and  O2_10
REMARK    3  A    between atoms: N4_23  and  C17_24
REMARK                            x       y       z     vdW  Elec       q    Type
REMARK                         _______ _______ _______ _____ _____    ______ ____
ROOT
ATOM      1  O1  UNL     1      -2.693  -2.725   1.365  0.00  0.00    -0.268 OA
ATOM      2  C1  UNL     1      -2.120  -1.811   0.712  0.00  0.00    +0.263 C 
ATOM      3  N2  UNL     1      -0.745  -1.967   0.327  0.00  0.00    -0.296 N 
ATOM      4  C10 UNL     1      -0.376  -1.927  -1.090  0.00  0.00    +0.110 C 
ATOM      5  C11 UNL     1       0.963  -1.205  -1.276  0.00  0.00    +0.054 C 
ATOM      6  C12 UNL     1       2.058  -1.686  -0.280  0.00  0.00    +0.115 C 
ATOM      7  C13 UNL     1       1.558  -1.888   1.181  0.00  0.00    +0.054 C 
ATOM      8  C14 UNL     1       0.199  -2.591   1.256  0.00  0.00    +0.110 C 
ATOM      9  C15 UNL     1       2.638  -2.973  -0.777  0.00  0.00    +0.238 C 
ATOM     10  O3  UNL     1       2.000  -4.049  -0.927  0.00  0.00    -0.273 OA
ATOM     11  N3  UNL     1       4.009  -2.860  -1.073  0.00  0.00    -0.298 N 
ATOM     12  C16 UNL     1       4.430  -1.504  -0.800  0.00  0.00    +0.214 C 
ATOM     13  N4  UNL     1       3.238  -0.786  -0.315  0.00  0.00    -0.300 N 
ATOM     14  H15 UNL     1       4.620  -3.626  -1.435  0.00  0.00    +0.150 HD
ENDROOT
BRANCH   2  15
ATOM     15  C2  UNL     1      -2.869  -0.586   0.377  0.00  0.00    +0.103 A 
ATOM     16  C3  UNL     1      -2.306   0.609  -0.069  0.00  0.00    +0.041 A 
ATOM     17  C4  UNL     1      -3.370   1.471  -0.213  0.00  0.00    +0.004 A 
ATOM     18  C5  UNL     1      -3.407   2.802  -0.622  0.00  0.00    +0.010 A 
ATOM     19  C6  UNL     1      -4.659   3.442  -0.664  0.00  0.00    +0.004 A 
ATOM     20  C7  UNL     1      -5.832   2.745  -0.298  0.00  0.00    +0.047 A 
ATOM     21  C8  UNL     1      -5.762   1.398   0.116  0.00  0.00    +0.141 A 
ATOM     22  C9  UNL     1      -4.505   0.791   0.145  0.00  0.00    +0.089 A 
ATOM     23  N1  UNL     1      -4.212  -0.468   0.512  0.00  0.00    -0.348 N 
ATOM     24  H6  UNL     1      -4.881  -1.201   0.837  0.00  0.00    +0.166 HD
BRANCH  21  25
ATOM     25  O2  UNL     1      -6.904   0.692   0.485  0.00  0.00    -0.505 OA
ATOM     26  H5  UNL     1      -7.819   1.125   0.470  0.00  0.00    +0.292 HD
ENDBRANCH  21  25
ENDBRANCH   2  15
BRANCH  13  27
ATOM     27  C17 UNL     1       3.299   0.627   0.055  0.00  0.00    +0.032 A 
ATOM     28  C18 UNL     1       4.520   1.335  -0.052  0.00  0.00    +0.026 A 
ATOM     29  C19 UNL     1       4.605   2.687   0.291  0.00  0.00    +0.040 A 
ATOM     30  C20 UNL     1       3.479   3.367   0.749  0.00  0.00    +0.124 A 
ATOM     31  F1  UNL     1       3.565   4.678   1.080  0.00  0.00    -0.205 F 
ATOM     32  C21 UNL     1       2.264   2.694   0.865  0.00  0.00    +0.040 A 
ATOM     33  C22 UNL     1       2.170   1.342   0.525  0.00  0.00    +0.026 A 
ENDBRANCH  13  27
TORSDOF 3
