MODEL 1
REMARK VINA RESULT:    -6.076      0.000      0.000
REMARK INTER + INTRA:          -7.179
REMARK INTER:                  -7.141
REMARK INTRA:                  -0.038
REMARK UNBOUND:                -0.038
REMARK  Name = /home/qwerty/github/datacon2025hack/step_04_hit_selection/docking/ligands/lig_760.pdb
REMARK  4 active torsions:
REMARK  status: ('A' for Active; 'I' for Inactive)
REMARK    1  A    between atoms: C1_1  and  N1_2
REMARK    2  A    between atoms: C3_4  and  C4_5
REMARK    3  A    between atoms: C10_13  and  N3_14
REMARK    4  A    between atoms: C11_15  and  C12_17
REMARK                            x       y       z     vdW  Elec       q    Type
REMARK                         _______ _______ _______ _____ _____    ______ ____
ROOT
ATOM      1  C4  UNL     1      15.854  13.986  35.649  0.00  0.00    +0.250 C 
ATOM      2  O1  UNL     1      15.929  14.354  36.852  0.00  0.00    -0.270 OA
ATOM      3  N2  UNL     1      14.567  13.944  35.004  0.00  0.00    -0.295 N 
ATOM      4  C5  UNL     1      13.373  14.494  35.628  0.00  0.00    +0.113 C 
ATOM      5  C6  UNL     1      12.211  14.133  34.692  0.00  0.00    +0.031 C 
ATOM      6  C7  UNL     1      10.960  13.636  35.425  0.00  0.00    +0.007 C 
ATOM      7  C8  UNL     1      10.936  12.116  35.281  0.00  0.00    +0.003 C 
ATOM      8  C9  UNL     1      12.248  11.716  34.619  0.00  0.00    +0.027 C 
ATOM      9  C10 UNL     1      12.725  12.960  33.853  0.00  0.00    +0.055 C 
ATOM     10  C16 UNL     1      14.254  13.116  33.848  0.00  0.00    +0.134 C 
ENDROOT
BRANCH   1  14
ATOM     11  C1  UNL     1      20.077  11.588  34.495  0.00  0.00    +0.172 C 
ATOM     12  N1  UNL     1      18.979  12.544  34.481  0.00  0.00    -0.274 N 
ATOM     13  C2  UNL     1      17.924  12.541  35.314  0.00  0.00    +0.121 A 
ATOM     14  C3  UNL     1      17.097  13.587  34.960  0.00  0.00    +0.074 A 
ATOM     15  C17 UNL     1      17.735  14.204  33.895  0.00  0.00    +0.147 A 
ATOM     16  N6  UNL     1      18.877  13.543  33.618  0.00  0.00    -0.179 NA
ENDBRANCH   1  14
BRANCH   9  17
ATOM     17  N3  UNL     1      12.165  12.982  32.489  0.00  0.00    -0.303 N 
ATOM     18  C11 UNL     1      12.028  14.186  31.713  0.00  0.00    +0.264 C 
ATOM     19  O2  UNL     1      12.358  15.297  32.212  0.00  0.00    -0.268 OA
ATOM     20  H14 UNL     1      11.866  12.079  32.056  0.00  0.00    +0.150 HD
BRANCH  18  21
ATOM     21  C12 UNL     1      11.499  14.134  30.332  0.00  0.00    +0.143 A 
ATOM     22  C13 UNL     1      10.276  13.506  30.043  0.00  0.00    +0.143 A 
ATOM     23  N4  UNL     1       9.820  13.480  28.763  0.00  0.00    -0.259 NA
ATOM     24  C14 UNL     1      10.525  14.051  27.752  0.00  0.00    +0.130 A 
ATOM     25  C15 UNL     1      11.740  14.676  28.032  0.00  0.00    +0.131 A 
ATOM     26  N5  UNL     1      12.198  14.703  29.312  0.00  0.00    -0.247 NA
ENDBRANCH  18  21
ENDBRANCH   9  17
TORSDOF 3
ENDMDL
MODEL 2
REMARK VINA RESULT:    -6.008      8.460     12.636
REMARK INTER + INTRA:          -7.100
REMARK INTER:                  -6.958
REMARK INTRA:                  -0.142
REMARK UNBOUND:                -0.038
REMARK  Name = /home/qwerty/github/datacon2025hack/step_04_hit_selection/docking/ligands/lig_760.pdb
REMARK  4 active torsions:
REMARK  status: ('A' for Active; 'I' for Inactive)
REMARK    1  A    between atoms: C1_1  and  N1_2
REMARK    2  A    between atoms: C3_4  and  C4_5
REMARK    3  A    between atoms: C10_13  and  N3_14
REMARK    4  A    between atoms: C11_15  and  C12_17
REMARK                            x       y       z     vdW  Elec       q    Type
REMARK                         _______ _______ _______ _____ _____    ______ ____
ROOT
ATOM      1  C4  UNL     1      21.095   7.119  36.720  0.00  0.00    +0.250 C 
ATOM      2  O1  UNL     1      21.756   7.813  37.538  0.00  0.00    -0.270 OA
ATOM      3  N2  UNL     1      21.783   6.458  35.640  0.00  0.00    -0.295 N 
ATOM      4  C5  UNL     1      23.235   6.405  35.568  0.00  0.00    +0.113 C 
ATOM      5  C6  UNL     1      23.561   5.744  34.222  0.00  0.00    +0.031 C 
ATOM      6  C7  UNL     1      24.704   6.424  33.461  0.00  0.00    +0.007 C 
ATOM      7  C8  UNL     1      24.064   7.271  32.362  0.00  0.00    +0.003 C 
ATOM      8  C9  UNL     1      22.559   7.220  32.588  0.00  0.00    +0.027 C 
ATOM      9  C10 UNL     1      22.299   5.925  33.374  0.00  0.00    +0.055 C 
ATOM     10  C16 UNL     1      21.154   6.055  34.390  0.00  0.00    +0.134 C 
ENDROOT
BRANCH   1  14
ATOM     11  C1  UNL     1      16.244   8.292  36.705  0.00  0.00    +0.172 C 
ATOM     12  N1  UNL     1      17.495   7.579  36.915  0.00  0.00    -0.274 N 
ATOM     13  C2  UNL     1      18.714   8.004  36.540  0.00  0.00    +0.121 A 
ATOM     14  C3  UNL     1      19.632   7.036  36.893  0.00  0.00    +0.074 A 
ATOM     15  C17 UNL     1      18.886   6.042  37.507  0.00  0.00    +0.147 A 
ATOM     16  N6  UNL     1      17.585   6.394  37.500  0.00  0.00    -0.179 NA
ENDBRANCH   1  14
BRANCH   9  17
ATOM     17  N3  UNL     1      22.094   4.789  32.457  0.00  0.00    -0.303 N 
ATOM     18  C11 UNL     1      21.820   3.450  32.910  0.00  0.00    +0.264 C 
ATOM     19  O2  UNL     1      21.786   3.198  34.145  0.00  0.00    -0.268 OA
ATOM     20  H14 UNL     1      22.133   4.962  31.427  0.00  0.00    +0.150 HD
BRANCH  18  21
ATOM     21  C12 UNL     1      21.579   2.362  31.936  0.00  0.00    +0.143 A 
ATOM     22  C13 UNL     1      20.644   1.345  32.195  0.00  0.00    +0.143 A 
ATOM     23  N4  UNL     1      20.447   0.364  31.275  0.00  0.00    -0.259 NA
ATOM     24  C14 UNL     1      21.137   0.345  30.106  0.00  0.00    +0.130 A 
ATOM     25  C15 UNL     1      22.068   1.351  29.843  0.00  0.00    +0.131 A 
ATOM     26  N5  UNL     1      22.266   2.333  30.760  0.00  0.00    -0.247 NA
ENDBRANCH  18  21
ENDBRANCH   9  17
TORSDOF 3
ENDMDL
MODEL 3
REMARK VINA RESULT:    -6.000     11.740     14.491
REMARK INTER + INTRA:          -7.090
REMARK INTER:                  -6.934
REMARK INTRA:                  -0.155
REMARK UNBOUND:                -0.038
REMARK  Name = /home/qwerty/github/datacon2025hack/step_04_hit_selection/docking/ligands/lig_760.pdb
REMARK  4 active torsions:
REMARK  status: ('A' for Active; 'I' for Inactive)
REMARK    1  A    between atoms: C1_1  and  N1_2
REMARK    2  A    between atoms: C3_4  and  C4_5
REMARK    3  A    between atoms: C10_13  and  N3_14
REMARK    4  A    between atoms: C11_15  and  C12_17
REMARK                            x       y       z     vdW  Elec       q    Type
REMARK                         _______ _______ _______ _____ _____    ______ ____
ROOT
ATOM      1  C4  UNL     1      20.772   1.878  32.453  0.00  0.00    +0.250 C 
ATOM      2  O1  UNL     1      20.496   0.905  33.204  0.00  0.00    -0.270 OA
ATOM      3  N2  UNL     1      21.145   1.627  31.084  0.00  0.00    -0.295 N 
ATOM      4  C5  UNL     1      21.030   0.308  30.482  0.00  0.00    +0.113 C 
ATOM      5  C6  UNL     1      21.646   0.435  29.082  0.00  0.00    +0.031 C 
ATOM      6  C7  UNL     1      22.552  -0.740  28.697  0.00  0.00    +0.007 C 
ATOM      7  C8  UNL     1      23.993  -0.263  28.867  0.00  0.00    +0.003 C 
ATOM      8  C9  UNL     1      23.927   1.117  29.505  0.00  0.00    +0.027 C 
ATOM      9  C10 UNL     1      22.540   1.675  29.151  0.00  0.00    +0.055 C 
ATOM     10  C16 UNL     1      21.933   2.539  30.267  0.00  0.00    +0.134 C 
ENDROOT
BRANCH   1  14
ATOM     11  C1  UNL     1      22.009   6.025  34.941  0.00  0.00    +0.172 C 
ATOM     12  N1  UNL     1      21.264   5.052  34.155  0.00  0.00    -0.274 N 
ATOM     13  C2  UNL     1      21.712   3.843  33.772  0.00  0.00    +0.121 A 
ATOM     14  C3  UNL     1      20.723   3.239  33.023  0.00  0.00    +0.074 A 
ATOM     15  C17 UNL     1      19.678   4.149  33.008  0.00  0.00    +0.147 A 
ATOM     16  N6  UNL     1      20.037   5.249  33.699  0.00  0.00    -0.179 NA
ENDBRANCH   1  14
BRANCH   9  17
ATOM     17  N3  UNL     1      22.577   2.390  27.861  0.00  0.00    -0.303 N 
ATOM     18  C11 UNL     1      21.395   2.857  27.185  0.00  0.00    +0.264 C 
ATOM     19  O2  UNL     1      20.257   2.626  27.676  0.00  0.00    -0.268 OA
ATOM     20  H14 UNL     1      23.505   2.581  27.421  0.00  0.00    +0.150 HD
BRANCH  18  21
ATOM     21  C12 UNL     1      21.504   3.608  25.915  0.00  0.00    +0.143 A 
ATOM     22  C13 UNL     1      22.458   4.627  25.749  0.00  0.00    +0.143 A 
ATOM     23  N4  UNL     1      22.531   5.292  24.566  0.00  0.00    -0.259 NA
ATOM     24  C14 UNL     1      21.699   4.993  23.536  0.00  0.00    +0.130 A 
ATOM     25  C15 UNL     1      20.750   3.982  23.694  0.00  0.00    +0.131 A 
ATOM     26  N5  UNL     1      20.675   3.315  24.875  0.00  0.00    -0.247 NA
ENDBRANCH  18  21
ENDBRANCH   9  17
TORSDOF 3
ENDMDL
MODEL 4
REMARK VINA RESULT:    -5.980     11.348     14.444
REMARK INTER + INTRA:          -7.067
REMARK INTER:                  -6.901
REMARK INTRA:                  -0.166
REMARK UNBOUND:                -0.038
REMARK  Name = /home/qwerty/github/datacon2025hack/step_04_hit_selection/docking/ligands/lig_760.pdb
REMARK  4 active torsions:
REMARK  status: ('A' for Active; 'I' for Inactive)
REMARK    1  A    between atoms: C1_1  and  N1_2
REMARK    2  A    between atoms: C3_4  and  C4_5
REMARK    3  A    between atoms: C10_13  and  N3_14
REMARK    4  A    between atoms: C11_15  and  C12_17
REMARK                            x       y       z     vdW  Elec       q    Type
REMARK                         _______ _______ _______ _____ _____    ______ ____
ROOT
ATOM      1  C4  UNL     1      21.301   1.262  28.010  0.00  0.00    +0.250 C 
ATOM      2  O1  UNL     1      21.424   0.104  27.530  0.00  0.00    -0.270 OA
ATOM      3  N2  UNL     1      21.047   1.416  29.420  0.00  0.00    -0.295 N 
ATOM      4  C5  UNL     1      21.117   0.295  30.344  0.00  0.00    +0.113 C 
ATOM      5  C6  UNL     1      20.655   0.845  31.701  0.00  0.00    +0.031 C 
ATOM      6  C7  UNL     1      19.703  -0.091  32.454  0.00  0.00    +0.007 C 
ATOM      7  C8  UNL     1      18.294   0.470  32.271  0.00  0.00    +0.003 C 
ATOM      8  C9  UNL     1      18.404   1.621  31.281  0.00  0.00    +0.027 C 
ATOM      9  C10 UNL     1      19.858   2.109  31.368  0.00  0.00    +0.055 C 
ATOM     10  C16 UNL     1      20.417   2.585  30.018  0.00  0.00    +0.134 C 
ENDROOT
BRANCH   1  14
ATOM     11  C1  UNL     1      23.103   5.162  25.470  0.00  0.00    +0.172 C 
ATOM     12  N1  UNL     1      22.196   4.157  26.004  0.00  0.00    -0.274 N 
ATOM     13  C2  UNL     1      22.529   3.165  26.847  0.00  0.00    +0.121 A 
ATOM     14  C3  UNL     1      21.399   2.414  27.093  0.00  0.00    +0.074 A 
ATOM     15  C17 UNL     1      20.393   3.032  26.366  0.00  0.00    +0.147 A 
ATOM     16  N6  UNL     1      20.908   4.087  25.705  0.00  0.00    -0.179 NA
ENDBRANCH   1  14
BRANCH   9  17
ATOM     17  N3  UNL     1      20.005   3.135  32.416  0.00  0.00    -0.303 N 
ATOM     18  C11 UNL     1      21.277   3.679  32.814  0.00  0.00    +0.264 C 
ATOM     19  O2  UNL     1      22.339   3.249  32.285  0.00  0.00    -0.268 OA
ATOM     20  H14 UNL     1      19.145   3.498  32.886  0.00  0.00    +0.150 HD
BRANCH  18  21
ATOM     21  C12 UNL     1      21.352   4.739  33.843  0.00  0.00    +0.143 A 
ATOM     22  C13 UNL     1      20.189   5.283  34.415  0.00  0.00    +0.143 A 
ATOM     23  N4  UNL     1      20.297   6.254  35.360  0.00  0.00    -0.259 NA
ATOM     24  C14 UNL     1      21.509   6.713  35.766  0.00  0.00    +0.130 A 
ATOM     25  C15 UNL     1      22.668   6.178  35.201  0.00  0.00    +0.131 A 
ATOM     26  N5  UNL     1      22.563   5.206  34.256  0.00  0.00    -0.247 NA
ENDBRANCH  18  21
ENDBRANCH   9  17
TORSDOF 3
ENDMDL
MODEL 5
REMARK VINA RESULT:    -5.799     13.489     15.402
REMARK INTER + INTRA:          -6.854
REMARK INTER:                  -6.707
REMARK INTRA:                  -0.146
REMARK UNBOUND:                -0.038
REMARK  Name = /home/qwerty/github/datacon2025hack/step_04_hit_selection/docking/ligands/lig_760.pdb
REMARK  4 active torsions:
REMARK  status: ('A' for Active; 'I' for Inactive)
REMARK    1  A    between atoms: C1_1  and  N1_2
REMARK    2  A    between atoms: C3_4  and  C4_5
REMARK    3  A    between atoms: C10_13  and  N3_14
REMARK    4  A    between atoms: C11_15  and  C12_17
REMARK                            x       y       z     vdW  Elec       q    Type
REMARK                         _______ _______ _______ _____ _____    ______ ____
ROOT
ATOM      1  C4  UNL     1      21.246   1.791  30.800  0.00  0.00    +0.250 C 
ATOM      2  O1  UNL     1      22.189   2.407  31.366  0.00  0.00    -0.270 OA
ATOM      3  N2  UNL     1      21.268   1.632  29.368  0.00  0.00    -0.295 N 
ATOM      4  C5  UNL     1      22.432   1.985  28.571  0.00  0.00    +0.113 C 
ATOM      5  C6  UNL     1      22.006   1.796  27.108  0.00  0.00    +0.031 C 
ATOM      6  C7  UNL     1      22.468   2.924  26.179  0.00  0.00    +0.007 C 
ATOM      7  C8  UNL     1      21.255   3.818  25.931  0.00  0.00    +0.003 C 
ATOM      8  C9  UNL     1      20.143   3.314  26.840  0.00  0.00    +0.027 C 
ATOM      9  C10 UNL     1      20.476   1.842  27.130  0.00  0.00    +0.055 C 
ATOM     10  C16 UNL     1      20.086   1.403  28.550  0.00  0.00    +0.134 C 
ENDROOT
BRANCH   1  14
ATOM     11  C1  UNL     1      17.239   1.613  33.771  0.00  0.00    +0.172 C 
ATOM     12  N1  UNL     1      18.393   1.217  32.977  0.00  0.00    -0.274 N 
ATOM     13  C2  UNL     1      19.179   2.044  32.266  0.00  0.00    +0.121 A 
ATOM     14  C3  UNL     1      20.142   1.282  31.636  0.00  0.00    +0.074 A 
ATOM     15  C17 UNL     1      19.883  -0.021  32.032  0.00  0.00    +0.147 A 
ATOM     16  N6  UNL     1      18.807  -0.033  32.843  0.00  0.00    -0.179 NA
ENDBRANCH   1  14
BRANCH   9  17
ATOM     17  N3  UNL     1      19.892   0.961  26.102  0.00  0.00    -0.303 N 
ATOM     18  C11 UNL     1      18.484   0.673  26.019  0.00  0.00    +0.264 C 
ATOM     19  O2  UNL     1      17.692   1.152  26.876  0.00  0.00    -0.268 OA
ATOM     20  H14 UNL     1      20.525   0.535  25.388  0.00  0.00    +0.150 HD
BRANCH  18  21
ATOM     21  C12 UNL     1      17.955  -0.185  24.935  0.00  0.00    +0.143 A 
ATOM     22  C13 UNL     1      17.677   0.339  23.660  0.00  0.00    +0.143 A 
ATOM     23  N4  UNL     1      17.196  -0.480  22.688  0.00  0.00    -0.259 NA
ATOM     24  C14 UNL     1      16.977  -1.800  22.922  0.00  0.00    +0.130 A 
ATOM     25  C15 UNL     1      17.251  -2.326  24.185  0.00  0.00    +0.131 A 
ATOM     26  N5  UNL     1      17.733  -1.509  25.159  0.00  0.00    -0.247 NA
ENDBRANCH  18  21
ENDBRANCH   9  17
TORSDOF 3
ENDMDL
MODEL 6
REMARK VINA RESULT:    -5.786      5.771      8.593
REMARK INTER + INTRA:          -6.839
REMARK INTER:                  -6.669
REMARK INTRA:                  -0.170
REMARK UNBOUND:                -0.038
REMARK  Name = /home/qwerty/github/datacon2025hack/step_04_hit_selection/docking/ligands/lig_760.pdb
REMARK  4 active torsions:
REMARK  status: ('A' for Active; 'I' for Inactive)
REMARK    1  A    between atoms: C1_1  and  N1_2
REMARK    2  A    between atoms: C3_4  and  C4_5
REMARK    3  A    between atoms: C10_13  and  N3_14
REMARK    4  A    between atoms: C11_15  and  C12_17
REMARK                            x       y       z     vdW  Elec       q    Type
REMARK                         _______ _______ _______ _____ _____    ______ ____
ROOT
ATOM      1  C4  UNL     1       9.869  13.117  29.408  0.00  0.00    +0.250 C 
ATOM      2  O1  UNL     1       9.363  13.773  30.358  0.00  0.00    -0.270 OA
ATOM      3  N2  UNL     1       9.192  11.940  28.926  0.00  0.00    -0.295 N 
ATOM      4  C5  UNL     1       7.851  11.588  29.364  0.00  0.00    +0.113 C 
ATOM      5  C6  UNL     1       7.553  10.220  28.733  0.00  0.00    +0.031 C 
ATOM      6  C7  UNL     1       6.874   9.234  29.690  0.00  0.00    +0.007 C 
ATOM      7  C8  UNL     1       7.952   8.261  30.163  0.00  0.00    +0.003 C 
ATOM      8  C9  UNL     1       9.279   8.778  29.623  0.00  0.00    +0.027 C 
ATOM      9  C10 UNL     1       8.925   9.631  28.395  0.00  0.00    +0.055 C 
ATOM     10  C16 UNL     1       9.847  10.848  28.220  0.00  0.00    +0.134 C 
ENDROOT
BRANCH   1  14
ATOM     11  C1  UNL     1      13.274  15.053  26.315  0.00  0.00    +0.172 C 
ATOM     12  N1  UNL     1      12.655  14.400  27.459  0.00  0.00    -0.274 N 
ATOM     13  C2  UNL     1      11.338  14.198  27.631  0.00  0.00    +0.121 A 
ATOM     14  C3  UNL     1      11.155  13.575  28.848  0.00  0.00    +0.074 A 
ATOM     15  C17 UNL     1      12.433  13.412  29.362  0.00  0.00    +0.147 A 
ATOM     16  N6  UNL     1      13.328  13.930  28.498  0.00  0.00    -0.179 NA
ENDBRANCH   1  14
BRANCH   9  17
ATOM     17  N3  UNL     1       8.874   8.800  27.178  0.00  0.00    -0.303 N 
ATOM     18  C11 UNL     1       8.427   9.297  25.903  0.00  0.00    +0.264 C 
ATOM     19  O2  UNL     1       8.018  10.486  25.799  0.00  0.00    -0.268 OA
ATOM     20  H14 UNL     1       9.190   7.806  27.236  0.00  0.00    +0.150 HD
BRANCH  18  21
ATOM     21  C12 UNL     1       8.442   8.423  24.709  0.00  0.00    +0.143 A 
ATOM     22  C13 UNL     1       8.725   7.050  24.814  0.00  0.00    +0.143 A 
ATOM     23  N4  UNL     1       8.726   6.278  23.696  0.00  0.00    -0.259 NA
ATOM     24  C14 UNL     1       8.459   6.806  22.473  0.00  0.00    +0.130 A 
ATOM     25  C15 UNL     1       8.179   8.168  22.362  0.00  0.00    +0.131 A 
ATOM     26  N5  UNL     1       8.176   8.942  23.479  0.00  0.00    -0.247 NA
ENDBRANCH  18  21
ENDBRANCH   9  17
TORSDOF 3
ENDMDL
MODEL 7
REMARK VINA RESULT:    -5.595      3.801      8.850
REMARK INTER + INTRA:          -6.614
REMARK INTER:                  -6.426
REMARK INTRA:                  -0.188
REMARK UNBOUND:                -0.038
REMARK  Name = /home/qwerty/github/datacon2025hack/step_04_hit_selection/docking/ligands/lig_760.pdb
REMARK  4 active torsions:
REMARK  status: ('A' for Active; 'I' for Inactive)
REMARK    1  A    between atoms: C1_1  and  N1_2
REMARK    2  A    between atoms: C3_4  and  C4_5
REMARK    3  A    between atoms: C10_13  and  N3_14
REMARK    4  A    between atoms: C11_15  and  C12_17
REMARK                            x       y       z     vdW  Elec       q    Type
REMARK                         _______ _______ _______ _____ _____    ______ ____
ROOT
ATOM      1  C4  UNL     1       8.277  10.671  28.121  0.00  0.00    +0.250 C 
ATOM      2  O1  UNL     1       7.890  10.754  26.925  0.00  0.00    -0.270 OA
ATOM      3  N2  UNL     1       9.050  11.747  28.688  0.00  0.00    -0.295 N 
ATOM      4  C5  UNL     1       9.238  13.011  27.992  0.00  0.00    +0.113 C 
ATOM      5  C6  UNL     1      10.216  13.819  28.857  0.00  0.00    +0.031 C 
ATOM      6  C7  UNL     1      11.301  14.541  28.051  0.00  0.00    +0.007 C 
ATOM      7  C8  UNL     1      12.581  13.720  28.194  0.00  0.00    +0.003 C 
ATOM      8  C9  UNL     1      12.203  12.443  28.934  0.00  0.00    +0.027 C 
ATOM      9  C10 UNL     1      10.931  12.781  29.726  0.00  0.00    +0.055 C 
ATOM     10  C16 UNL     1       9.949  11.602  29.823  0.00  0.00    +0.134 C 
ENDROOT
BRANCH   1  14
ATOM     11  C1  UNL     1       8.216   5.947  29.731  0.00  0.00    +0.172 C 
ATOM     12  N1  UNL     1       7.894   7.357  29.562  0.00  0.00    -0.274 N 
ATOM     13  C2  UNL     1       8.517   8.211  28.732  0.00  0.00    +0.121 A 
ATOM     14  C3  UNL     1       7.938   9.454  28.883  0.00  0.00    +0.074 A 
ATOM     15  C17 UNL     1       6.939   9.270  29.827  0.00  0.00    +0.147 A 
ATOM     16  N6  UNL     1       6.939   7.985  30.230  0.00  0.00    -0.179 NA
ENDBRANCH   1  14
BRANCH   9  17
ATOM     17  N3  UNL     1      11.269  13.325  31.054  0.00  0.00    -0.303 N 
ATOM     18  C11 UNL     1      11.966  12.568  32.061  0.00  0.00    +0.264 C 
ATOM     19  O2  UNL     1      12.281  11.367  31.840  0.00  0.00    -0.268 OA
ATOM     20  H14 UNL     1      11.006  14.312  31.273  0.00  0.00    +0.150 HD
BRANCH  18  21
ATOM     21  C12 UNL     1      12.316  13.188  33.358  0.00  0.00    +0.143 A 
ATOM     22  C13 UNL     1      13.609  13.678  33.608  0.00  0.00    +0.143 A 
ATOM     23  N4  UNL     1      13.893  14.244  34.810  0.00  0.00    -0.259 NA
ATOM     24  C14 UNL     1      12.949  14.348  35.781  0.00  0.00    +0.130 A 
ATOM     25  C15 UNL     1      11.663  13.864  35.540  0.00  0.00    +0.131 A 
ATOM     26  N5  UNL     1      11.376  13.297  34.338  0.00  0.00    -0.247 NA
ENDBRANCH  18  21
ENDBRANCH   9  17
TORSDOF 3
ENDMDL
MODEL 8
REMARK VINA RESULT:    -5.506      9.502     11.916
REMARK INTER + INTRA:          -6.510
REMARK INTER:                  -6.315
REMARK INTRA:                  -0.195
REMARK UNBOUND:                -0.038
REMARK  Name = /home/qwerty/github/datacon2025hack/step_04_hit_selection/docking/ligands/lig_760.pdb
REMARK  4 active torsions:
REMARK  status: ('A' for Active; 'I' for Inactive)
REMARK    1  A    between atoms: C1_1  and  N1_2
REMARK    2  A    between atoms: C3_4  and  C4_5
REMARK    3  A    between atoms: C10_13  and  N3_14
REMARK    4  A    between atoms: C11_15  and  C12_17
REMARK                            x       y       z     vdW  Elec       q    Type
REMARK                         _______ _______ _______ _____ _____    ______ ____
ROOT
ATOM      1  C4  UNL     1      19.362  15.086  27.967  0.00  0.00    +0.250 C 
ATOM      2  O1  UNL     1      19.799  15.059  29.149  0.00  0.00    -0.270 OA
ATOM      3  N2  UNL     1      20.233  14.704  26.885  0.00  0.00    -0.295 N 
ATOM      4  C5  UNL     1      21.537  14.104  27.119  0.00  0.00    +0.113 C 
ATOM      5  C6  UNL     1      22.190  13.975  25.736  0.00  0.00    +0.031 C 
ATOM      6  C7  UNL     1      23.667  14.381  25.710  0.00  0.00    +0.007 C 
ATOM      7  C8  UNL     1      23.733  15.779  25.097  0.00  0.00    +0.003 C 
ATOM      8  C9  UNL     1      22.296  16.251  24.925  0.00  0.00    +0.027 C 
ATOM      9  C10 UNL     1      21.443  14.975  24.849  0.00  0.00    +0.055 C 
ATOM     10  C16 UNL     1      20.062  15.131  25.504  0.00  0.00    +0.134 C 
ENDROOT
BRANCH   1  14
ATOM     11  C1  UNL     1      14.440  15.054  27.138  0.00  0.00    +0.172 C 
ATOM     12  N1  UNL     1      15.807  15.511  27.342  0.00  0.00    -0.274 N 
ATOM     13  C2  UNL     1      16.871  14.726  27.582  0.00  0.00    +0.121 A 
ATOM     14  C3  UNL     1      17.974  15.537  27.744  0.00  0.00    +0.074 A 
ATOM     15  C17 UNL     1      17.498  16.827  27.569  0.00  0.00    +0.147 A 
ATOM     16  N6  UNL     1      16.173  16.784  27.333  0.00  0.00    -0.179 NA
ENDBRANCH   1  14
BRANCH   9  17
ATOM     17  N3  UNL     1      21.341  14.496  23.458  0.00  0.00    -0.303 N 
ATOM     18  C11 UNL     1      20.732  15.263  22.403  0.00  0.00    +0.264 C 
ATOM     19  O2  UNL     1      20.218  16.386  22.658  0.00  0.00    -0.268 OA
ATOM     20  H14 UNL     1      21.743  13.561  23.219  0.00  0.00    +0.150 HD
BRANCH  18  21
ATOM     21  C12 UNL     1      20.702  14.743  21.018  0.00  0.00    +0.143 A 
ATOM     22  C13 UNL     1      19.891  13.650  20.666  0.00  0.00    +0.143 A 
ATOM     23  N4  UNL     1      19.887  13.202  19.383  0.00  0.00    -0.259 NA
ATOM     24  C14 UNL     1      20.652  13.790  18.428  0.00  0.00    +0.130 A 
ATOM     25  C15 UNL     1      21.460  14.876  18.771  0.00  0.00    +0.131 A 
ATOM     26  N5  UNL     1      21.466  15.326  20.053  0.00  0.00    -0.247 NA
ENDBRANCH  18  21
ENDBRANCH   9  17
TORSDOF 3
ENDMDL
MODEL 9
REMARK VINA RESULT:    -5.464      5.874      9.380
REMARK INTER + INTRA:          -6.461
REMARK INTER:                  -6.326
REMARK INTRA:                  -0.135
REMARK UNBOUND:                -0.038
REMARK  Name = /home/qwerty/github/datacon2025hack/step_04_hit_selection/docking/ligands/lig_760.pdb
REMARK  4 active torsions:
REMARK  status: ('A' for Active; 'I' for Inactive)
REMARK    1  A    between atoms: C1_1  and  N1_2
REMARK    2  A    between atoms: C3_4  and  C4_5
REMARK    3  A    between atoms: C10_13  and  N3_14
REMARK    4  A    between atoms: C11_15  and  C12_17
REMARK                            x       y       z     vdW  Elec       q    Type
REMARK                         _______ _______ _______ _____ _____    ______ ____
ROOT
ATOM      1  C4  UNL     1      23.148   7.178  34.407  0.00  0.00    +0.250 C 
ATOM      2  O1  UNL     1      24.007   6.376  34.861  0.00  0.00    -0.270 OA
ATOM      3  N2  UNL     1      22.030   7.555  35.233  0.00  0.00    -0.295 N 
ATOM      4  C5  UNL     1      21.956   7.198  36.641  0.00  0.00    +0.113 C 
ATOM      5  C6  UNL     1      20.572   7.662  37.116  0.00  0.00    +0.031 C 
ATOM      6  C7  UNL     1      19.854   6.646  38.012  0.00  0.00    +0.007 C 
ATOM      7  C8  UNL     1      18.809   5.949  37.143  0.00  0.00    +0.003 C 
ATOM      8  C9  UNL     1      19.031   6.431  35.716  0.00  0.00    +0.027 C 
ATOM      9  C10 UNL     1      19.736   7.791  35.840  0.00  0.00    +0.055 C 
ATOM     10  C16 UNL     1      20.758   8.045  34.721  0.00  0.00    +0.134 C 
ENDROOT
BRANCH   1  14
ATOM     11  C1  UNL     1      24.030  10.191  30.526  0.00  0.00    +0.172 C 
ATOM     12  N1  UNL     1      23.673   9.025  31.321  0.00  0.00    -0.274 N 
ATOM     13  C2  UNL     1      23.695   8.951  32.663  0.00  0.00    +0.121 A 
ATOM     14  C3  UNL     1      23.316   7.675  33.028  0.00  0.00    +0.074 A 
ATOM     15  C17 UNL     1      23.057   7.023  31.832  0.00  0.00    +0.147 A 
ATOM     16  N6  UNL     1      23.290   7.866  30.807  0.00  0.00    -0.179 NA
ENDBRANCH   1  14
BRANCH   9  17
ATOM     17  N3  UNL     1      18.752   8.883  35.944  0.00  0.00    -0.303 N 
ATOM     18  C11 UNL     1      19.121  10.274  36.000  0.00  0.00    +0.264 C 
ATOM     19  O2  UNL     1      20.339  10.602  36.001  0.00  0.00    -0.268 OA
ATOM     20  H14 UNL     1      17.735   8.642  35.964  0.00  0.00    +0.150 HD
BRANCH  18  21
ATOM     21  C12 UNL     1      18.081  11.325  36.060  0.00  0.00    +0.143 A 
ATOM     22  C13 UNL     1      17.000  11.232  36.952  0.00  0.00    +0.143 A 
ATOM     23  N4  UNL     1      16.065  12.218  36.980  0.00  0.00    -0.259 NA
ATOM     24  C14 UNL     1      16.155  13.298  36.162  0.00  0.00    +0.130 A 
ATOM     25  C15 UNL     1      17.226  13.397  35.273  0.00  0.00    +0.131 A 
ATOM     26  N5  UNL     1      18.162  12.412  35.243  0.00  0.00    -0.247 NA
ENDBRANCH  18  21
ENDBRANCH   9  17
TORSDOF 3
ENDMDL
