MODEL 1
REMARK VINA RESULT:    -6.676      0.000      0.000
REMARK INTER + INTRA:         -11.928
REMARK INTER:                 -10.579
REMARK INTRA:                  -1.350
REMARK UNBOUND:                -1.350
REMARK  Name = /home/qwerty/github/datacon2025hack/step_04_hit_selection/docking/ligands/lig_25.pdb
REMARK  12 active torsions:
REMARK  status: ('A' for Active; 'I' for Inactive)
REMARK    1  A    between atoms: C1_1  and  O1_2
REMARK    2  A    between atoms: O1_2  and  C2_3
REMARK    3  A    between atoms: C5_6  and  C6_7
REMARK    4  A    between atoms: C6_7  and  C7_8
REMARK    5  A    between atoms: C7_8  and  C8_9
REMARK    6  A    between atoms: C7_8  and  C9_11
REMARK    7  A    between atoms: C8_9  and  O2_10
REMARK    8  A    between atoms: C9_11  and  N1_12
REMARK    9  A    between atoms: N2_15  and  C11_16
REMARK   10  A    between atoms: C14_19  and  O4_20
REMARK   11  A    between atoms: O4_20  and  C15_21
REMARK   12  A    between atoms: C23_29  and  O5_30
REMARK                            x       y       z     vdW  Elec       q    Type
REMARK                         _______ _______ _______ _____ _____    ______ ____
ROOT
ATOM      1  N1  UNL     1      19.618   3.790  21.968  0.00  0.00    -0.299 N 
ATOM      2  C10 UNL     1      19.892   3.667  23.371  0.00  0.00    +0.304 C 
ATOM      3  O3  UNL     1      19.110   4.186  24.214  0.00  0.00    -0.253 OA
ATOM      4  N2  UNL     1      21.076   2.981  23.803  0.00  0.00    -0.269 N 
ATOM      5  H14 UNL     1      20.226   3.273  21.294  0.00  0.00    +0.150 HD
ATOM      6  H15 UNL     1      21.823   2.813  23.093  0.00  0.00    +0.156 HD
ENDROOT
BRANCH   4   7
ATOM      7  C11 UNL     1      21.349   2.623  25.169  0.00  0.00    +0.035 A 
ATOM      8  C12 UNL     1      22.339   3.282  25.917  0.00  0.00    +0.027 A 
ATOM      9  C13 UNL     1      22.571   2.931  27.251  0.00  0.00    +0.047 A 
ATOM     10  C14 UNL     1      21.805   1.920  27.863  0.00  0.00    +0.121 A 
ATOM     11  C20 UNL     1      20.803   1.284  27.122  0.00  0.00    +0.047 A 
ATOM     12  C21 UNL     1      20.571   1.635  25.790  0.00  0.00    +0.027 A 
BRANCH  10  13
ATOM     13  O4  UNL     1      21.994   1.526  29.197  0.00  0.00    -0.489 OA
BRANCH  13  14
ATOM     14  C15 UNL     1      22.880   0.493  29.636  0.00  0.00    +0.173 C 
ATOM     15  C16 UNL     1      22.569  -0.804  28.912  0.00  0.00    +0.044 C 
ATOM     16  C17 UNL     1      23.877  -1.575  28.894  0.00  0.00    +0.004 C 
ATOM     17  C18 UNL     1      24.987  -0.529  28.934  0.00  0.00    +0.004 C 
ATOM     18  C19 UNL     1      24.331   0.806  29.280  0.00  0.00    +0.044 C 
ENDBRANCH  13  14
ENDBRANCH  10  13
ENDBRANCH   4   7
BRANCH   1  19
ATOM     19  C9  UNL     1      18.467   4.527  21.447  0.00  0.00    +0.111 C 
BRANCH  19  20
ATOM     20  C7  UNL     1      17.306   3.573  21.084  0.00  0.00    +0.036 C 
BRANCH  20  21
ATOM     21  C6  UNL     1      16.372   3.259  22.282  0.00  0.00    +0.042 C 
BRANCH  21  25
ATOM     22  C2  UNL     1      16.554  -0.838  23.681  0.00  0.00    +0.161 A 
ATOM     23  C3  UNL     1      16.908   0.225  24.532  0.00  0.00    +0.049 A 
ATOM     24  C4  UNL     1      16.844   1.546  24.080  0.00  0.00    +0.007 A 
ATOM     25  C5  UNL     1      16.434   1.829  22.769  0.00  0.00    -0.043 A 
ATOM     26  C22 UNL     1      16.068   0.772  21.923  0.00  0.00    +0.052 A 
ATOM     27  C23 UNL     1      16.129  -0.553  22.369  0.00  0.00    +0.159 A 
BRANCH  22  29
ATOM     28  C1  UNL     1      17.744  -2.788  24.703  0.00  0.00    +0.277 C 
ATOM     29  O1  UNL     1      16.607  -2.177  24.101  0.00  0.00    -0.491 OA
ENDBRANCH  22  29
BRANCH  27  30
ATOM     30  O5  UNL     1      15.762  -1.576  21.494  0.00  0.00    -0.503 OA
ATOM     31  H30 UNL     1      15.145  -1.418  20.707  0.00  0.00    +0.292 HD
ENDBRANCH  27  30
ENDBRANCH  21  25
ENDBRANCH  20  21
BRANCH  20  32
ATOM     32  C8  UNL     1      16.541   4.069  19.841  0.00  0.00    +0.161 C 
BRANCH  32  33
ATOM     33  O2  UNL     1      15.870   3.015  19.206  0.00  0.00    -0.395 OA
ATOM     34  H11 UNL     1      16.554   2.532  18.674  0.00  0.00    +0.209 HD
ENDBRANCH  32  33
ENDBRANCH  20  32
ENDBRANCH  19  20
ENDBRANCH   1  19
TORSDOF 11
ENDMDL
MODEL 2
REMARK VINA RESULT:    -6.586      7.747     12.220
REMARK INTER + INTRA:         -11.786
REMARK INTER:                 -10.634
REMARK INTRA:                  -1.151
REMARK UNBOUND:                -1.350
REMARK  Name = /home/qwerty/github/datacon2025hack/step_04_hit_selection/docking/ligands/lig_25.pdb
REMARK  12 active torsions:
REMARK  status: ('A' for Active; 'I' for Inactive)
REMARK    1  A    between atoms: C1_1  and  O1_2
REMARK    2  A    between atoms: O1_2  and  C2_3
REMARK    3  A    between atoms: C5_6  and  C6_7
REMARK    4  A    between atoms: C6_7  and  C7_8
REMARK    5  A    between atoms: C7_8  and  C8_9
REMARK    6  A    between atoms: C7_8  and  C9_11
REMARK    7  A    between atoms: C8_9  and  O2_10
REMARK    8  A    between atoms: C9_11  and  N1_12
REMARK    9  A    between atoms: N2_15  and  C11_16
REMARK   10  A    between atoms: C14_19  and  O4_20
REMARK   11  A    between atoms: O4_20  and  C15_21
REMARK   12  A    between atoms: C23_29  and  O5_30
REMARK                            x       y       z     vdW  Elec       q    Type
REMARK                         _______ _______ _______ _____ _____    ______ ____
ROOT
ATOM      1  N1  UNL     1      18.444   2.559  36.007  0.00  0.00    -0.299 N 
ATOM      2  C10 UNL     1      18.752   2.316  34.627  0.00  0.00    +0.304 C 
ATOM      3  O3  UNL     1      17.900   2.581  33.735  0.00  0.00    -0.253 OA
ATOM      4  N2  UNL     1      20.017   1.737  34.275  0.00  0.00    -0.269 N 
ATOM      5  H14 UNL     1      19.197   2.421  36.718  0.00  0.00    +0.150 HD
ATOM      6  H15 UNL     1      20.569   1.284  35.038  0.00  0.00    +0.156 HD
ENDROOT
BRANCH   4   7
ATOM      7  C11 UNL     1      20.513   1.636  32.929  0.00  0.00    +0.035 A 
ATOM      8  C12 UNL     1      20.246   0.510  32.132  0.00  0.00    +0.027 A 
ATOM      9  C13 UNL     1      20.719   0.443  30.818  0.00  0.00    +0.047 A 
ATOM     10  C14 UNL     1      21.459   1.512  30.274  0.00  0.00    +0.121 A 
ATOM     11  C20 UNL     1      21.701   2.641  31.063  0.00  0.00    +0.047 A 
ATOM     12  C21 UNL     1      21.228   2.708  32.376  0.00  0.00    +0.027 A 
BRANCH  10  13
ATOM     13  O4  UNL     1      21.960   1.500  28.963  0.00  0.00    -0.489 OA
BRANCH  13  14
ATOM     14  C15 UNL     1      22.993   0.637  28.480  0.00  0.00    +0.173 C 
ATOM     15  C16 UNL     1      24.241   0.790  29.329  0.00  0.00    +0.044 C 
ATOM     16  C17 UNL     1      24.963  -0.541  29.222  0.00  0.00    +0.004 C 
ATOM     17  C18 UNL     1      23.886  -1.589  28.956  0.00  0.00    +0.004 C 
ATOM     18  C19 UNL     1      22.604  -0.834  28.611  0.00  0.00    +0.044 C 
ENDBRANCH  13  14
ENDBRANCH  10  13
ENDBRANCH   4   7
BRANCH   1  19
ATOM     19  C9  UNL     1      17.154   3.087  36.450  0.00  0.00    +0.111 C 
BRANCH  19  20
ATOM     20  C7  UNL     1      17.336   4.282  37.413  0.00  0.00    +0.036 C 
BRANCH  20  21
ATOM     21  C6  UNL     1      17.514   5.638  36.682  0.00  0.00    +0.042 C 
BRANCH  21  25
ATOM     22  C2  UNL     1      21.634   6.860  36.130  0.00  0.00    +0.161 A 
ATOM     23  C3  UNL     1      20.898   6.318  35.059  0.00  0.00    +0.049 A 
ATOM     24  C4  UNL     1      19.569   5.929  35.239  0.00  0.00    +0.007 A 
ATOM     25  C5  UNL     1      18.951   6.066  36.491  0.00  0.00    -0.043 A 
ATOM     26  C22 UNL     1      19.678   6.617  37.556  0.00  0.00    +0.052 A 
ATOM     27  C23 UNL     1      21.010   7.010  37.383  0.00  0.00    +0.159 A 
BRANCH  22  29
ATOM     28  C1  UNL     1      23.974   6.499  35.318  0.00  0.00    +0.277 C 
ATOM     29  O1  UNL     1      22.973   7.260  35.986  0.00  0.00    -0.491 OA
ENDBRANCH  22  29
BRANCH  27  30
ATOM     30  O5  UNL     1      21.699   7.548  38.470  0.00  0.00    -0.503 OA
ATOM     31  H30 UNL     1      21.344   8.335  38.999  0.00  0.00    +0.292 HD
ENDBRANCH  27  30
ENDBRANCH  21  25
ENDBRANCH  20  21
BRANCH  20  32
ATOM     32  C8  UNL     1      16.224   4.317  38.480  0.00  0.00    +0.161 C 
BRANCH  32  33
ATOM     33  O2  UNL     1      15.669   5.600  38.591  0.00  0.00    -0.395 OA
ATOM     34  H11 UNL     1      15.280   5.655  39.502  0.00  0.00    +0.209 HD
ENDBRANCH  32  33
ENDBRANCH  20  32
ENDBRANCH  19  20
ENDBRANCH   1  19
TORSDOF 11
ENDMDL
MODEL 3
REMARK VINA RESULT:    -6.224     12.606     16.138
REMARK INTER + INTRA:         -11.213
REMARK INTER:                 -10.292
REMARK INTRA:                  -0.921
REMARK UNBOUND:                -1.350
REMARK  Name = /home/qwerty/github/datacon2025hack/step_04_hit_selection/docking/ligands/lig_25.pdb
REMARK  12 active torsions:
REMARK  status: ('A' for Active; 'I' for Inactive)
REMARK    1  A    between atoms: C1_1  and  O1_2
REMARK    2  A    between atoms: O1_2  and  C2_3
REMARK    3  A    between atoms: C5_6  and  C6_7
REMARK    4  A    between atoms: C6_7  and  C7_8
REMARK    5  A    between atoms: C7_8  and  C8_9
REMARK    6  A    between atoms: C7_8  and  C9_11
REMARK    7  A    between atoms: C8_9  and  O2_10
REMARK    8  A    between atoms: C9_11  and  N1_12
REMARK    9  A    between atoms: N2_15  and  C11_16
REMARK   10  A    between atoms: C14_19  and  O4_20
REMARK   11  A    between atoms: O4_20  and  C15_21
REMARK   12  A    between atoms: C23_29  and  O5_30
REMARK                            x       y       z     vdW  Elec       q    Type
REMARK                         _______ _______ _______ _____ _____    ______ ____
ROOT
ATOM      1  N1  UNL     1       7.994  11.155  28.288  0.00  0.00    -0.299 N 
ATOM      2  C10 UNL     1       8.481  10.838  26.978  0.00  0.00    +0.304 C 
ATOM      3  O3  UNL     1       9.698  11.016  26.696  0.00  0.00    -0.253 OA
ATOM      4  N2  UNL     1       7.569  10.351  25.982  0.00  0.00    -0.269 N 
ATOM      5  H14 UNL     1       7.006  10.910  28.527  0.00  0.00    +0.150 HD
ATOM      6  H15 UNL     1       6.547  10.478  26.160  0.00  0.00    +0.156 HD
ENDROOT
BRANCH   4   7
ATOM      7  C11 UNL     1       7.972   9.815  24.710  0.00  0.00    +0.035 A 
ATOM      8  C12 UNL     1       7.620  10.444  23.503  0.00  0.00    +0.027 A 
ATOM      9  C13 UNL     1       8.043   9.917  22.279  0.00  0.00    +0.047 A 
ATOM     10  C14 UNL     1       8.838   8.754  22.243  0.00  0.00    +0.121 A 
ATOM     11  C20 UNL     1       9.207   8.146  23.447  0.00  0.00    +0.047 A 
ATOM     12  C21 UNL     1       8.785   8.673  24.670  0.00  0.00    +0.027 A 
BRANCH  10  13
ATOM     13  O4  UNL     1       9.290   8.180  21.044  0.00  0.00    -0.489 OA
BRANCH  13  14
ATOM     14  C15 UNL     1       8.801   6.963  20.475  0.00  0.00    +0.173 C 
ATOM     15  C16 UNL     1       9.677   5.799  20.900  0.00  0.00    +0.044 C 
ATOM     16  C17 UNL     1       8.771   4.582  20.861  0.00  0.00    +0.004 C 
ATOM     17  C18 UNL     1       7.357   5.096  21.114  0.00  0.00    +0.004 C 
ATOM     18  C19 UNL     1       7.407   6.618  20.993  0.00  0.00    +0.044 C 
ENDBRANCH  13  14
ENDBRANCH  10  13
ENDBRANCH   4   7
BRANCH   1  19
ATOM     19  C9  UNL     1       8.847  11.714  29.338  0.00  0.00    +0.111 C 
BRANCH  19  20
ATOM     20  C7  UNL     1       8.739  13.255  29.387  0.00  0.00    +0.036 C 
BRANCH  20  21
ATOM     21  C6  UNL     1       9.542  13.964  28.266  0.00  0.00    +0.042 C 
BRANCH  21  25
ATOM     22  C2  UNL     1      13.806  14.218  28.992  0.00  0.00    +0.161 A 
ATOM     23  C3  UNL     1      12.893  14.289  30.061  0.00  0.00    +0.049 A 
ATOM     24  C4  UNL     1      11.519  14.202  29.824  0.00  0.00    +0.007 A 
ATOM     25  C5  UNL     1      11.030  14.051  28.518  0.00  0.00    -0.043 A 
ATOM     26  C22 UNL     1      11.939  13.967  27.454  0.00  0.00    +0.052 A 
ATOM     27  C23 UNL     1      13.317  14.052  27.683  0.00  0.00    +0.159 A 
BRANCH  22  29
ATOM     28  C1  UNL     1      15.903  15.518  29.411  0.00  0.00    +0.277 C 
ATOM     29  O1  UNL     1      15.194  14.303  29.193  0.00  0.00    -0.491 OA
ENDBRANCH  22  29
BRANCH  27  30
ATOM     30  O5  UNL     1      14.186  13.970  26.595  0.00  0.00    -0.503 OA
ATOM     31  H30 UNL     1      14.233  13.152  26.000  0.00  0.00    +0.292 HD
ENDBRANCH  27  30
ENDBRANCH  21  25
ENDBRANCH  20  21
BRANCH  20  32
ATOM     32  C8  UNL     1       7.267  13.711  29.451  0.00  0.00    +0.161 C 
BRANCH  32  33
ATOM     33  O2  UNL     1       7.036  14.521  30.572  0.00  0.00    -0.395 OA
ATOM     34  H11 UNL     1       7.914  14.916  30.812  0.00  0.00    +0.209 HD
ENDBRANCH  32  33
ENDBRANCH  20  32
ENDBRANCH  19  20
ENDBRANCH   1  19
TORSDOF 11
ENDMDL
MODEL 4
REMARK VINA RESULT:    -6.059      5.946     11.072
REMARK INTER + INTRA:         -10.952
REMARK INTER:                  -9.792
REMARK INTRA:                  -1.160
REMARK UNBOUND:                -1.350
REMARK  Name = /home/qwerty/github/datacon2025hack/step_04_hit_selection/docking/ligands/lig_25.pdb
REMARK  12 active torsions:
REMARK  status: ('A' for Active; 'I' for Inactive)
REMARK    1  A    between atoms: C1_1  and  O1_2
REMARK    2  A    between atoms: O1_2  and  C2_3
REMARK    3  A    between atoms: C5_6  and  C6_7
REMARK    4  A    between atoms: C6_7  and  C7_8
REMARK    5  A    between atoms: C7_8  and  C8_9
REMARK    6  A    between atoms: C7_8  and  C9_11
REMARK    7  A    between atoms: C8_9  and  O2_10
REMARK    8  A    between atoms: C9_11  and  N1_12
REMARK    9  A    between atoms: N2_15  and  C11_16
REMARK   10  A    between atoms: C14_19  and  O4_20
REMARK   11  A    between atoms: O4_20  and  C15_21
REMARK   12  A    between atoms: C23_29  and  O5_30
REMARK                            x       y       z     vdW  Elec       q    Type
REMARK                         _______ _______ _______ _____ _____    ______ ____
ROOT
ATOM      1  N1  UNL     1      12.645   1.482  21.047  0.00  0.00    -0.299 N 
ATOM      2  C10 UNL     1      11.847   2.622  21.395  0.00  0.00    +0.304 C 
ATOM      3  O3  UNL     1      11.939   3.128  22.546  0.00  0.00    -0.253 OA
ATOM      4  N2  UNL     1      10.922   3.156  20.437  0.00  0.00    -0.269 N 
ATOM      5  H14 UNL     1      12.623   1.139  20.061  0.00  0.00    +0.150 HD
ATOM      6  H15 UNL     1      10.677   2.558  19.616  0.00  0.00    +0.156 HD
ENDROOT
BRANCH   4   7
ATOM      7  C11 UNL     1      10.224   4.404  20.596  0.00  0.00    +0.035 A 
ATOM      8  C12 UNL     1       8.938   4.458  21.161  0.00  0.00    +0.027 A 
ATOM      9  C13 UNL     1       8.288   5.684  21.327  0.00  0.00    +0.047 A 
ATOM     10  C14 UNL     1       8.922   6.882  20.941  0.00  0.00    +0.121 A 
ATOM     11  C20 UNL     1      10.212   6.826  20.404  0.00  0.00    +0.047 A 
ATOM     12  C21 UNL     1      10.861   5.600  20.238  0.00  0.00    +0.027 A 
BRANCH  10  13
ATOM     13  O4  UNL     1       8.318   8.141  21.084  0.00  0.00    -0.489 OA
BRANCH  13  14
ATOM     14  C15 UNL     1       8.655   9.113  22.077  0.00  0.00    +0.173 C 
ATOM     15  C16 UNL     1       9.252   8.431  23.294  0.00  0.00    +0.044 C 
ATOM     16  C17 UNL     1      10.159   9.469  23.929  0.00  0.00    +0.004 C 
ATOM     17  C18 UNL     1      10.615  10.385  22.798  0.00  0.00    +0.004 C 
ATOM     18  C19 UNL     1       9.742  10.066  21.586  0.00  0.00    +0.044 C 
ENDBRANCH  13  14
ENDBRANCH  10  13
ENDBRANCH   4   7
BRANCH   1  19
ATOM     19  C9  UNL     1      13.564   0.841  21.989  0.00  0.00    +0.111 C 
BRANCH  19  20
ATOM     20  C7  UNL     1      15.025   0.920  21.490  0.00  0.00    +0.036 C 
BRANCH  20  21
ATOM     21  C6  UNL     1      15.968  -0.093  22.189  0.00  0.00    +0.042 C 
BRANCH  21  25
ATOM     22  C2  UNL     1      19.227   1.715  24.400  0.00  0.00    +0.161 A 
ATOM     23  C3  UNL     1      18.345   2.511  23.646  0.00  0.00    +0.049 A 
ATOM     24  C4  UNL     1      17.292   1.926  22.938  0.00  0.00    +0.007 A 
ATOM     25  C5  UNL     1      17.105   0.536  22.962  0.00  0.00    -0.043 A 
ATOM     26  C22 UNL     1      17.975  -0.258  23.722  0.00  0.00    +0.052 A 
ATOM     27  C23 UNL     1      19.031   0.321  24.435  0.00  0.00    +0.159 A 
BRANCH  22  29
ATOM     28  C1  UNL     1      21.164   3.283  24.627  0.00  0.00    +0.277 C 
ATOM     29  O1  UNL     1      20.297   2.268  25.122  0.00  0.00    -0.491 OA
ENDBRANCH  22  29
BRANCH  27  30
ATOM     30  O5  UNL     1      19.877  -0.506  25.174  0.00  0.00    -0.503 OA
ATOM     31  H30 UNL     1      20.739  -0.169  25.585  0.00  0.00    +0.292 HD
ENDBRANCH  27  30
ENDBRANCH  21  25
ENDBRANCH  20  21
BRANCH  20  32
ATOM     32  C8  UNL     1      15.097   0.843  19.952  0.00  0.00    +0.161 C 
BRANCH  32  33
ATOM     33  O2  UNL     1      15.261   2.117  19.389  0.00  0.00    -0.395 OA
ATOM     34  H11 UNL     1      15.306   1.981  18.407  0.00  0.00    +0.209 HD
ENDBRANCH  32  33
ENDBRANCH  20  32
ENDBRANCH  19  20
ENDBRANCH   1  19
TORSDOF 11
ENDMDL
MODEL 5
REMARK VINA RESULT:    -6.045      7.163     10.415
REMARK INTER + INTRA:         -10.929
REMARK INTER:                  -9.974
REMARK INTRA:                  -0.955
REMARK UNBOUND:                -1.350
REMARK  Name = /home/qwerty/github/datacon2025hack/step_04_hit_selection/docking/ligands/lig_25.pdb
REMARK  12 active torsions:
REMARK  status: ('A' for Active; 'I' for Inactive)
REMARK    1  A    between atoms: C1_1  and  O1_2
REMARK    2  A    between atoms: O1_2  and  C2_3
REMARK    3  A    between atoms: C5_6  and  C6_7
REMARK    4  A    between atoms: C6_7  and  C7_8
REMARK    5  A    between atoms: C7_8  and  C8_9
REMARK    6  A    between atoms: C7_8  and  C9_11
REMARK    7  A    between atoms: C8_9  and  O2_10
REMARK    8  A    between atoms: C9_11  and  N1_12
REMARK    9  A    between atoms: N2_15  and  C11_16
REMARK   10  A    between atoms: C14_19  and  O4_20
REMARK   11  A    between atoms: O4_20  and  C15_21
REMARK   12  A    between atoms: C23_29  and  O5_30
REMARK                            x       y       z     vdW  Elec       q    Type
REMARK                         _______ _______ _______ _____ _____    ______ ____
ROOT
ATOM      1  N1  UNL     1      16.352   5.740  20.004  0.00  0.00    -0.299 N 
ATOM      2  C10 UNL     1      16.886   7.057  20.197  0.00  0.00    +0.304 C 
ATOM      3  O3  UNL     1      17.335   7.397  21.326  0.00  0.00    -0.253 OA
ATOM      4  N2  UNL     1      16.873   7.993  19.109  0.00  0.00    -0.269 N 
ATOM      5  H14 UNL     1      16.075   5.451  19.039  0.00  0.00    +0.150 HD
ATOM      6  H15 UNL     1      16.257   7.777  18.293  0.00  0.00    +0.156 HD
ENDROOT
BRANCH   4   7
ATOM      7  C11 UNL     1      17.556   9.259  19.124  0.00  0.00    +0.035 A 
ATOM      8  C12 UNL     1      18.943   9.347  18.912  0.00  0.00    +0.027 A 
ATOM      9  C13 UNL     1      19.581  10.591  18.907  0.00  0.00    +0.047 A 
ATOM     10  C14 UNL     1      18.837  11.772  19.102  0.00  0.00    +0.121 A 
ATOM     11  C20 UNL     1      17.454  11.681  19.287  0.00  0.00    +0.047 A 
ATOM     12  C21 UNL     1      16.816  10.438  19.292  0.00  0.00    +0.027 A 
BRANCH  10  13
ATOM     13  O4  UNL     1      19.424  13.047  19.109  0.00  0.00    -0.489 OA
BRANCH  13  14
ATOM     14  C15 UNL     1      20.280  13.559  20.134  0.00  0.00    +0.173 C 
ATOM     15  C16 UNL     1      19.977  15.025  20.383  0.00  0.00    +0.044 C 
ATOM     16  C17 UNL     1      20.371  15.275  21.827  0.00  0.00    +0.004 C 
ATOM     17  C18 UNL     1      20.213  13.940  22.549  0.00  0.00    +0.004 C 
ATOM     18  C19 UNL     1      20.027  12.871  21.473  0.00  0.00    +0.044 C 
ENDBRANCH  13  14
ENDBRANCH  10  13
ENDBRANCH   4   7
BRANCH   1  19
ATOM     19  C9  UNL     1      16.272   4.752  21.079  0.00  0.00    +0.111 C 
BRANCH  19  20
ATOM     20  C7  UNL     1      15.242   3.647  20.751  0.00  0.00    +0.036 C 
BRANCH  20  21
ATOM     21  C6  UNL     1      14.202   4.075  19.683  0.00  0.00    +0.042 C 
BRANCH  21  25
ATOM     22  C2  UNL     1      10.091   4.020  21.049  0.00  0.00    +0.161 A 
ATOM     23  C3  UNL     1      10.646   5.191  20.499  0.00  0.00    +0.049 A 
ATOM     24  C4  UNL     1      11.971   5.204  20.055  0.00  0.00    +0.007 A 
ATOM     25  C5  UNL     1      12.768   4.054  20.159  0.00  0.00    -0.043 A 
ATOM     26  C22 UNL     1      12.211   2.883  20.695  0.00  0.00    +0.052 A 
ATOM     27  C23 UNL     1      10.885   2.862  21.141  0.00  0.00    +0.159 A 
BRANCH  22  29
ATOM     28  C1  UNL     1       8.338   4.405  22.794  0.00  0.00    +0.277 C 
ATOM     29  O1  UNL     1       8.763   3.971  21.507  0.00  0.00    -0.491 OA
ENDBRANCH  22  29
BRANCH  27  30
ATOM     30  O5  UNL     1      10.373   1.679  21.673  0.00  0.00    -0.503 OA
ATOM     31  H30 UNL     1      10.110   0.893  21.090  0.00  0.00    +0.292 HD
ENDBRANCH  27  30
ENDBRANCH  21  25
ENDBRANCH  20  21
BRANCH  20  32
ATOM     32  C8  UNL     1      15.939   2.315  20.410  0.00  0.00    +0.161 C 
BRANCH  32  33
ATOM     33  O2  UNL     1      15.444   1.777  19.213  0.00  0.00    -0.395 OA
ATOM     34  H11 UNL     1      15.946   0.935  19.060  0.00  0.00    +0.209 HD
ENDBRANCH  32  33
ENDBRANCH  20  32
ENDBRANCH  19  20
ENDBRANCH   1  19
TORSDOF 11
ENDMDL
MODEL 6
REMARK VINA RESULT:    -6.027     14.445     15.361
REMARK INTER + INTRA:         -10.901
REMARK INTER:                  -9.599
REMARK INTRA:                  -1.302
REMARK UNBOUND:                -1.350
REMARK  Name = /home/qwerty/github/datacon2025hack/step_04_hit_selection/docking/ligands/lig_25.pdb
REMARK  12 active torsions:
REMARK  status: ('A' for Active; 'I' for Inactive)
REMARK    1  A    between atoms: C1_1  and  O1_2
REMARK    2  A    between atoms: O1_2  and  C2_3
REMARK    3  A    between atoms: C5_6  and  C6_7
REMARK    4  A    between atoms: C6_7  and  C7_8
REMARK    5  A    between atoms: C7_8  and  C8_9
REMARK    6  A    between atoms: C7_8  and  C9_11
REMARK    7  A    between atoms: C8_9  and  O2_10
REMARK    8  A    between atoms: C9_11  and  N1_12
REMARK    9  A    between atoms: N2_15  and  C11_16
REMARK   10  A    between atoms: C14_19  and  O4_20
REMARK   11  A    between atoms: O4_20  and  C15_21
REMARK   12  A    between atoms: C23_29  and  O5_30
REMARK                            x       y       z     vdW  Elec       q    Type
REMARK                         _______ _______ _______ _____ _____    ______ ____
ROOT
ATOM      1  N1  UNL     1      10.250  13.753  29.802  0.00  0.00    -0.299 N 
ATOM      2  C10 UNL     1      10.785  13.407  31.086  0.00  0.00    +0.304 C 
ATOM      3  O3  UNL     1      11.094  12.210  31.339  0.00  0.00    -0.253 OA
ATOM      4  N2  UNL     1      10.931  14.422  32.089  0.00  0.00    -0.269 N 
ATOM      5  H14 UNL     1      10.090  14.762  29.583  0.00  0.00    +0.150 HD
ATOM      6  H15 UNL     1      10.418  15.321  31.945  0.00  0.00    +0.156 HD
ENDROOT
BRANCH   4   7
ATOM      7  C11 UNL     1      11.635  14.238  33.330  0.00  0.00    +0.035 A 
ATOM      8  C12 UNL     1      10.960  13.890  34.512  0.00  0.00    +0.027 A 
ATOM      9  C13 UNL     1      11.668  13.693  35.701  0.00  0.00    +0.047 A 
ATOM     10  C14 UNL     1      13.070  13.830  35.724  0.00  0.00    +0.121 A 
ATOM     11  C20 UNL     1      13.740  14.152  34.539  0.00  0.00    +0.047 A 
ATOM     12  C21 UNL     1      13.032  14.348  33.351  0.00  0.00    +0.027 A 
BRANCH  10  13
ATOM     13  O4  UNL     1      13.833  13.646  36.888  0.00  0.00    -0.489 OA
BRANCH  13  14
ATOM     14  C15 UNL     1      14.565  12.463  37.219  0.00  0.00    +0.173 C 
ATOM     15  C16 UNL     1      13.889  11.245  36.617  0.00  0.00    +0.044 C 
ATOM     16  C17 UNL     1      15.000  10.231  36.414  0.00  0.00    +0.004 C 
ATOM     17  C18 UNL     1      16.281  11.036  36.219  0.00  0.00    +0.004 C 
ATOM     18  C19 UNL     1      15.965  12.479  36.610  0.00  0.00    +0.044 C 
ENDBRANCH  13  14
ENDBRANCH  10  13
ENDBRANCH   4   7
BRANCH   1  19
ATOM     19  C9  UNL     1      10.011  12.765  28.749  0.00  0.00    +0.111 C 
BRANCH  19  20
ATOM     20  C7  UNL     1       8.501  12.498  28.560  0.00  0.00    +0.036 C 
BRANCH  20  21
ATOM     21  C6  UNL     1       7.915  11.513  29.604  0.00  0.00    +0.042 C 
BRANCH  21  25
ATOM     22  C2  UNL     1       8.042   7.347  28.419  0.00  0.00    +0.161 A 
ATOM     23  C3  UNL     1       7.574   8.331  27.528  0.00  0.00    +0.049 A 
ATOM     24  C4  UNL     1       7.538   9.674  27.911  0.00  0.00    +0.007 A 
ATOM     25  C5  UNL     1       7.961  10.059  29.192  0.00  0.00    -0.043 A 
ATOM     26  C22 UNL     1       8.440   9.082  30.076  0.00  0.00    +0.052 A 
ATOM     27  C23 UNL     1       8.480   7.735  29.699  0.00  0.00    +0.159 A 
BRANCH  22  29
ATOM     28  C1  UNL     1       6.983   5.096  28.144  0.00  0.00    +0.277 C 
ATOM     29  O1  UNL     1       8.090   5.988  28.068  0.00  0.00    -0.491 OA
ENDBRANCH  22  29
BRANCH  27  30
ATOM     30  O5  UNL     1       8.958   6.795  30.612  0.00  0.00    -0.503 OA
ATOM     31  H30 UNL     1       8.747   5.807  30.531  0.00  0.00    +0.292 HD
ENDBRANCH  27  30
ENDBRANCH  21  25
ENDBRANCH  20  21
BRANCH  20  32
ATOM     32  C8  UNL     1       7.707  13.817  28.470  0.00  0.00    +0.161 C 
BRANCH  32  33
ATOM     33  O2  UNL     1       7.159  14.164  29.713  0.00  0.00    -0.395 OA
ATOM     34  H11 UNL     1       6.572  14.947  29.547  0.00  0.00    +0.209 HD
ENDBRANCH  32  33
ENDBRANCH  20  32
ENDBRANCH  19  20
ENDBRANCH   1  19
TORSDOF 11
ENDMDL
MODEL 7
REMARK VINA RESULT:    -5.980     11.822     13.622
REMARK INTER + INTRA:         -10.826
REMARK INTER:                  -9.445
REMARK INTRA:                  -1.381
REMARK UNBOUND:                -1.350
REMARK  Name = /home/qwerty/github/datacon2025hack/step_04_hit_selection/docking/ligands/lig_25.pdb
REMARK  12 active torsions:
REMARK  status: ('A' for Active; 'I' for Inactive)
REMARK    1  A    between atoms: C1_1  and  O1_2
REMARK    2  A    between atoms: O1_2  and  C2_3
REMARK    3  A    between atoms: C5_6  and  C6_7
REMARK    4  A    between atoms: C6_7  and  C7_8
REMARK    5  A    between atoms: C7_8  and  C8_9
REMARK    6  A    between atoms: C7_8  and  C9_11
REMARK    7  A    between atoms: C8_9  and  O2_10
REMARK    8  A    between atoms: C9_11  and  N1_12
REMARK    9  A    between atoms: N2_15  and  C11_16
REMARK   10  A    between atoms: C14_19  and  O4_20
REMARK   11  A    between atoms: O4_20  and  C15_21
REMARK   12  A    between atoms: C23_29  and  O5_30
REMARK                            x       y       z     vdW  Elec       q    Type
REMARK                         _______ _______ _______ _____ _____    ______ ____
ROOT
ATOM      1  N1  UNL     1      24.356  14.012  23.100  0.00  0.00    -0.299 N 
ATOM      2  C10 UNL     1      23.521  14.110  24.261  0.00  0.00    +0.304 C 
ATOM      3  O3  UNL     1      22.329  13.699  24.219  0.00  0.00    -0.253 OA
ATOM      4  N2  UNL     1      24.039  14.710  25.457  0.00  0.00    -0.269 N 
ATOM      5  H14 UNL     1      25.364  14.271  23.186  0.00  0.00    +0.150 HD
ATOM      6  H15 UNL     1      24.913  15.278  25.373  0.00  0.00    +0.156 HD
ENDROOT
BRANCH   4   7
ATOM      7  C11 UNL     1      23.372  14.682  26.731  0.00  0.00    +0.035 A 
ATOM      8  C12 UNL     1      23.662  13.695  27.690  0.00  0.00    +0.027 A 
ATOM      9  C13 UNL     1      23.018  13.702  28.930  0.00  0.00    +0.047 A 
ATOM     10  C14 UNL     1      22.079  14.706  29.238  0.00  0.00    +0.121 A 
ATOM     11  C20 UNL     1      21.812  15.700  28.291  0.00  0.00    +0.047 A 
ATOM     12  C21 UNL     1      22.456  15.694  27.051  0.00  0.00    +0.027 A 
BRANCH  10  13
ATOM     13  O4  UNL     1      21.401  14.761  30.466  0.00  0.00    -0.489 OA
BRANCH  13  14
ATOM     14  C15 UNL     1      20.034  14.397  30.673  0.00  0.00    +0.173 C 
ATOM     15  C16 UNL     1      19.173  15.642  30.782  0.00  0.00    +0.044 C 
ATOM     16  C17 UNL     1      17.792  15.216  30.316  0.00  0.00    +0.004 C 
ATOM     17  C18 UNL     1      18.010  14.061  29.343  0.00  0.00    +0.004 C 
ATOM     18  C19 UNL     1      19.468  13.629  29.481  0.00  0.00    +0.044 C 
ENDBRANCH  13  14
ENDBRANCH  10  13
ENDBRANCH   4   7
BRANCH   1  19
ATOM     19  C9  UNL     1      23.881  13.472  21.826  0.00  0.00    +0.111 C 
BRANCH  19  20
ATOM     20  C7  UNL     1      23.500  14.602  20.843  0.00  0.00    +0.036 C 
BRANCH  20  21
ATOM     21  C6  UNL     1      22.033  15.080  20.995  0.00  0.00    +0.042 C 
BRANCH  21  25
ATOM     22  C2  UNL     1      19.059  12.238  19.634  0.00  0.00    +0.161 A 
ATOM     23  C3  UNL     1      19.880  12.913  18.711  0.00  0.00    +0.049 A 
ATOM     24  C4  UNL     1      20.841  13.826  19.152  0.00  0.00    +0.007 A 
ATOM     25  C5  UNL     1      20.996  14.088  20.522  0.00  0.00    -0.043 A 
ATOM     26  C22 UNL     1      20.188  13.407  21.444  0.00  0.00    +0.052 A 
ATOM     27  C23 UNL     1      19.224  12.491  21.009  0.00  0.00    +0.159 A 
BRANCH  22  29
ATOM     28  C1  UNL     1      16.706  11.631  19.034  0.00  0.00    +0.277 C 
ATOM     29  O1  UNL     1      18.081  11.316  19.226  0.00  0.00    -0.491 OA
ENDBRANCH  22  29
BRANCH  27  30
ATOM     30  O5  UNL     1      18.437  11.840  21.959  0.00  0.00    -0.503 OA
ATOM     31  H30 UNL     1      17.910  11.003  21.744  0.00  0.00    +0.292 HD
ENDBRANCH  27  30
ENDBRANCH  21  25
ENDBRANCH  20  21
BRANCH  20  32
ATOM     32  C8  UNL     1      24.517  15.760  20.900  0.00  0.00    +0.161 C 
BRANCH  32  33
ATOM     33  O2  UNL     1      24.131  16.726  21.840  0.00  0.00    -0.395 OA
ATOM     34  H11 UNL     1      24.908  16.850  22.444  0.00  0.00    +0.209 HD
ENDBRANCH  32  33
ENDBRANCH  20  32
ENDBRANCH  19  20
ENDBRANCH   1  19
TORSDOF 11
ENDMDL
MODEL 8
REMARK VINA RESULT:    -5.935      6.064     11.630
REMARK INTER + INTRA:         -10.755
REMARK INTER:                  -9.523
REMARK INTRA:                  -1.233
REMARK UNBOUND:                -1.350
REMARK  Name = /home/qwerty/github/datacon2025hack/step_04_hit_selection/docking/ligands/lig_25.pdb
REMARK  12 active torsions:
REMARK  status: ('A' for Active; 'I' for Inactive)
REMARK    1  A    between atoms: C1_1  and  O1_2
REMARK    2  A    between atoms: O1_2  and  C2_3
REMARK    3  A    between atoms: C5_6  and  C6_7
REMARK    4  A    between atoms: C6_7  and  C7_8
REMARK    5  A    between atoms: C7_8  and  C8_9
REMARK    6  A    between atoms: C7_8  and  C9_11
REMARK    7  A    between atoms: C8_9  and  O2_10
REMARK    8  A    between atoms: C9_11  and  N1_12
REMARK    9  A    between atoms: N2_15  and  C11_16
REMARK   10  A    between atoms: C14_19  and  O4_20
REMARK   11  A    between atoms: O4_20  and  C15_21
REMARK   12  A    between atoms: C23_29  and  O5_30
REMARK                            x       y       z     vdW  Elec       q    Type
REMARK                         _______ _______ _______ _____ _____    ______ ____
ROOT
ATOM      1  N1  UNL     1      12.994   0.962  21.239  0.00  0.00    -0.299 N 
ATOM      2  C10 UNL     1      12.374   2.235  21.468  0.00  0.00    +0.304 C 
ATOM      3  O3  UNL     1      12.766   2.966  22.418  0.00  0.00    -0.253 OA
ATOM      4  N2  UNL     1      11.285   2.652  20.632  0.00  0.00    -0.269 N 
ATOM      5  H14 UNL     1      12.719   0.417  20.391  0.00  0.00    +0.150 HD
ATOM      6  H15 UNL     1      10.816   1.921  20.049  0.00  0.00    +0.156 HD
ENDROOT
BRANCH   4   7
ATOM      7  C11 UNL     1      10.724   3.976  20.635  0.00  0.00    +0.035 A 
ATOM      8  C12 UNL     1       9.415   4.217  21.087  0.00  0.00    +0.027 A 
ATOM      9  C13 UNL     1       8.899   5.516  21.103  0.00  0.00    +0.047 A 
ATOM     10  C14 UNL     1       9.691   6.601  20.677  0.00  0.00    +0.121 A 
ATOM     11  C20 UNL     1      11.002   6.359  20.253  0.00  0.00    +0.047 A 
ATOM     12  C21 UNL     1      11.517   5.061  20.237  0.00  0.00    +0.027 A 
BRANCH  10  13
ATOM     13  O4  UNL     1       9.225   7.925  20.670  0.00  0.00    -0.489 OA
BRANCH  13  14
ATOM     14  C15 UNL     1       8.337   8.494  21.636  0.00  0.00    +0.173 C 
ATOM     15  C16 UNL     1       8.980   8.479  23.010  0.00  0.00    +0.044 C 
ATOM     16  C17 UNL     1       8.346   9.636  23.761  0.00  0.00    +0.004 C 
ATOM     17  C18 UNL     1       7.942  10.659  22.703  0.00  0.00    +0.004 C 
ATOM     18  C19 UNL     1       8.060   9.968  21.346  0.00  0.00    +0.044 C 
ENDBRANCH  13  14
ENDBRANCH  10  13
ENDBRANCH   4   7
BRANCH   1  19
ATOM     19  C9  UNL     1      14.067   0.439  22.086  0.00  0.00    +0.111 C 
BRANCH  19  20
ATOM     20  C7  UNL     1      15.458   0.780  21.505  0.00  0.00    +0.036 C 
BRANCH  20  21
ATOM     21  C6  UNL     1      16.227   1.842  22.333  0.00  0.00    +0.042 C 
BRANCH  21  25
ATOM     22  C2  UNL     1      17.180   5.475  20.173  0.00  0.00    +0.161 A 
ATOM     23  C3  UNL     1      18.124   4.886  21.036  0.00  0.00    +0.049 A 
ATOM     24  C4  UNL     1      17.815   3.712  21.727  0.00  0.00    +0.007 A 
ATOM     25  C5  UNL     1      16.558   3.109  21.578  0.00  0.00    -0.043 A 
ATOM     26  C22 UNL     1      15.621   3.687  20.710  0.00  0.00    +0.052 A 
ATOM     27  C23 UNL     1      15.922   4.862  20.013  0.00  0.00    +0.159 A 
BRANCH  22  29
ATOM     28  C1  UNL     1      17.798   7.898  20.069  0.00  0.00    +0.277 C 
ATOM     29  O1  UNL     1      17.454   6.656  19.464  0.00  0.00    -0.491 OA
ENDBRANCH  22  29
BRANCH  27  30
ATOM     30  O5  UNL     1      14.960   5.407  19.164  0.00  0.00    -0.503 OA
ATOM     31  H30 UNL     1      15.074   6.314  18.728  0.00  0.00    +0.292 HD
ENDBRANCH  27  30
ENDBRANCH  21  25
ENDBRANCH  20  21
BRANCH  20  32
ATOM     32  C8  UNL     1      16.286  -0.496  21.251  0.00  0.00    +0.161 C 
BRANCH  32  33
ATOM     33  O2  UNL     1      15.684  -1.616  21.843  0.00  0.00    -0.395 OA
ATOM     34  H11 UNL     1      16.116  -1.725  22.729  0.00  0.00    +0.209 HD
ENDBRANCH  32  33
ENDBRANCH  20  32
ENDBRANCH  19  20
ENDBRANCH   1  19
TORSDOF 11
ENDMDL
MODEL 9
REMARK VINA RESULT:    -5.914     12.364     14.231
REMARK INTER + INTRA:         -10.721
REMARK INTER:                  -9.472
REMARK INTRA:                  -1.250
REMARK UNBOUND:                -1.350
REMARK  Name = /home/qwerty/github/datacon2025hack/step_04_hit_selection/docking/ligands/lig_25.pdb
REMARK  12 active torsions:
REMARK  status: ('A' for Active; 'I' for Inactive)
REMARK    1  A    between atoms: C1_1  and  O1_2
REMARK    2  A    between atoms: O1_2  and  C2_3
REMARK    3  A    between atoms: C5_6  and  C6_7
REMARK    4  A    between atoms: C6_7  and  C7_8
REMARK    5  A    between atoms: C7_8  and  C8_9
REMARK    6  A    between atoms: C7_8  and  C9_11
REMARK    7  A    between atoms: C8_9  and  O2_10
REMARK    8  A    between atoms: C9_11  and  N1_12
REMARK    9  A    between atoms: N2_15  and  C11_16
REMARK   10  A    between atoms: C14_19  and  O4_20
REMARK   11  A    between atoms: O4_20  and  C15_21
REMARK   12  A    between atoms: C23_29  and  O5_30
REMARK                            x       y       z     vdW  Elec       q    Type
REMARK                         _______ _______ _______ _____ _____    ______ ____
ROOT
ATOM      1  N1  UNL     1       6.432   6.191  28.170  0.00  0.00    -0.299 N 
ATOM      2  C10 UNL     1       7.233   7.337  28.488  0.00  0.00    +0.304 C 
ATOM      3  O3  UNL     1       8.328   7.193  29.098  0.00  0.00    -0.253 OA
ATOM      4  N2  UNL     1       6.763   8.648  28.141  0.00  0.00    -0.269 N 
ATOM      5  H14 UNL     1       5.578   6.326  27.584  0.00  0.00    +0.150 HD
ATOM      6  H15 UNL     1       5.752   8.749  27.895  0.00  0.00    +0.156 HD
ENDROOT
BRANCH   4   7
ATOM      7  C11 UNL     1       7.560   9.842  28.225  0.00  0.00    +0.035 A 
ATOM      8  C12 UNL     1       7.616  10.605  29.404  0.00  0.00    +0.027 A 
ATOM      9  C13 UNL     1       8.416  11.750  29.470  0.00  0.00    +0.047 A 
ATOM     10  C14 UNL     1       9.187  12.143  28.358  0.00  0.00    +0.121 A 
ATOM     11  C20 UNL     1       9.148  11.366  27.195  0.00  0.00    +0.047 A 
ATOM     12  C21 UNL     1       8.348  10.223  27.130  0.00  0.00    +0.027 A 
BRANCH  10  13
ATOM     13  O4  UNL     1      10.006  13.282  28.366  0.00  0.00    -0.489 OA
BRANCH  13  14
ATOM     14  C15 UNL     1      11.097  13.523  27.474  0.00  0.00    +0.173 C 
ATOM     15  C16 UNL     1      11.638  14.927  27.676  0.00  0.00    +0.044 C 
ATOM     16  C17 UNL     1      13.096  14.858  27.259  0.00  0.00    +0.004 C 
ATOM     17  C18 UNL     1      13.540  13.419  27.503  0.00  0.00    +0.004 C 
ATOM     18  C19 UNL     1      12.278  12.600  27.765  0.00  0.00    +0.044 C 
ENDBRANCH  13  14
ENDBRANCH  10  13
ENDBRANCH   4   7
BRANCH   1  19
ATOM     19  C9  UNL     1       6.812   4.829  28.547  0.00  0.00    +0.111 C 
BRANCH  19  20
ATOM     20  C7  UNL     1       7.173   3.983  27.305  0.00  0.00    +0.036 C 
BRANCH  20  21
ATOM     21  C6  UNL     1       8.526   4.382  26.662  0.00  0.00    +0.042 C 
BRANCH  21  25
ATOM     22  C2  UNL     1       8.193   6.149  22.720  0.00  0.00    +0.161 A 
ATOM     23  C3  UNL     1       8.673   6.906  23.805  0.00  0.00    +0.049 A 
ATOM     24  C4  UNL     1       8.784   6.332  25.074  0.00  0.00    +0.007 A 
ATOM     25  C5  UNL     1       8.411   4.997  25.286  0.00  0.00    -0.043 A 
ATOM     26  C22 UNL     1       7.944   4.238  24.203  0.00  0.00    +0.052 A 
ATOM     27  C23 UNL     1       7.831   4.805  22.929  0.00  0.00    +0.159 A 
BRANCH  22  29
ATOM     28  C1  UNL     1       9.154   7.183  20.653  0.00  0.00    +0.277 C 
ATOM     29  O1  UNL     1       8.067   6.694  21.431  0.00  0.00    -0.491 OA
ENDBRANCH  22  29
BRANCH  27  30
ATOM     30  O5  UNL     1       7.357   4.017  21.880  0.00  0.00    -0.503 OA
ATOM     31  H30 UNL     1       6.915   3.119  22.036  0.00  0.00    +0.292 HD
ENDBRANCH  27  30
ENDBRANCH  21  25
ENDBRANCH  20  21
BRANCH  20  32
ATOM     32  C8  UNL     1       7.075   2.474  27.609  0.00  0.00    +0.161 C 
BRANCH  32  33
ATOM     33  O2  UNL     1       6.419   1.792  26.575  0.00  0.00    -0.395 OA
ATOM     34  H11 UNL     1       6.274   0.867  26.903  0.00  0.00    +0.209 HD
ENDBRANCH  32  33
ENDBRANCH  20  32
ENDBRANCH  19  20
ENDBRANCH   1  19
TORSDOF 11
ENDMDL
