REMARK  Name = /home/qwerty/github/datacon2025hack/step_04_hit_selection/docking/ligands/lig_722.pdb
REMARK  10 active torsions:
REMARK  status: ('A' for Active; 'I' for Inactive)
REMARK    1  A    between atoms: C1_1  and  C2_2
REMARK    2  A    between atoms: C5_5  and  C6_6
REMARK    3  A    between atoms: C6_6  and  N1_7
REMARK    4  A    between atoms: N1_7  and  C7_8
REMARK    5  A    between atoms: C9_12  and  C10_13
REMARK    6  A    between atoms: N5_16  and  C12_17
REMARK    7  A    between atoms: N6_19  and  C14_20
REMARK    8  A    between atoms: C14_20  and  C15_21
REMARK    9  A    between atoms: N7_24  and  S1_25
REMARK   10  A    between atoms: S1_25  and  C18_26
REMARK                            x       y       z     vdW  Elec       q    Type
REMARK                         _______ _______ _______ _____ _____    ______ ____
ROOT
ATOM      1  N1  UNL     1       2.914  -1.031   1.198  0.00  0.00    -0.298 N 
ATOM      2  C7  UNL     1       2.868  -1.124   2.658  0.00  0.00    +0.132 C 
ATOM      3  C8  UNL     1       2.074  -1.883   0.397  0.00  0.00    +0.220 A 
ATOM      4  N2  UNL     1       2.559  -2.694  -0.561  0.00  0.00    -0.113 NA
ATOM      5  N3  UNL     1       1.527  -3.353  -1.062  0.00  0.00    -0.127 NA
ATOM      6  C9  UNL     1       0.427  -2.941  -0.400  0.00  0.00    +0.168 A 
ATOM      7  N6  UNL     1       0.730  -1.996   0.525  0.00  0.00    -0.295 N 
ENDROOT
BRANCH   6   8
ATOM      8  C10 UNL     1      -0.916  -3.467  -0.710  0.00  0.00    +0.057 A 
ATOM      9  C11 UNL     1      -1.326  -3.986  -1.924  0.00  0.00    +0.146 A 
ATOM     10  N4  UNL     1      -2.593  -4.430  -1.814  0.00  0.00    -0.179 NA
ATOM     11  N5  UNL     1      -2.988  -4.205  -0.571  0.00  0.00    -0.274 N 
ATOM     12  C12 UNL     1      -4.275  -4.631  -0.040  0.00  0.00    +0.172 C 
ATOM     13  C13 UNL     1      -1.992  -3.643   0.138  0.00  0.00    +0.119 A 
ENDBRANCH   6   8
BRANCH   1  14
ATOM     14  C6  UNL     1       4.044  -0.334   0.573  0.00  0.00    +0.150 C 
BRANCH  14  19
ATOM     15  C1  UNL     1       2.177   4.315  -1.457  0.00  0.00    +0.051 C 
ATOM     16  C2  UNL     1       2.636   2.920  -1.198  0.00  0.00    -0.013 A 
ATOM     17  C3  UNL     1       2.692   1.898  -2.138  0.00  0.00    +0.011 A 
ATOM     18  C4  UNL     1       3.193   0.700  -1.619  0.00  0.00    +0.013 A 
ATOM     19  C5  UNL     1       3.554   0.793  -0.279  0.00  0.00    +0.007 A 
ATOM     20  S2  UNL     1       3.238   2.353   0.267  0.00  0.00    -0.097 S 
ENDBRANCH  14  19
ENDBRANCH   1  14
BRANCH   7  21
ATOM     21  C14 UNL     1      -0.179  -1.117   1.277  0.00  0.00    +0.131 C 
BRANCH  21  22
ATOM     22  C15 UNL     1      -1.040  -0.252   0.332  0.00  0.00    +0.026 C 
ATOM     23  C16 UNL     1      -0.216   0.671  -0.542  0.00  0.00    +0.023 C 
ATOM     24  C17 UNL     1      -1.100   1.890  -0.771  0.00  0.00    +0.109 C 
ATOM     25  N7  UNL     1      -2.239   1.806   0.156  0.00  0.00    -0.181 NA
ATOM     26  C19 UNL     1      -1.957   0.702   1.079  0.00  0.00    +0.114 C 
BRANCH  25  27
ATOM     27  S1  UNL     1      -2.478   3.302   1.024  0.00  0.00    +0.029 S 
ATOM     28  C18 UNL     1      -2.937   4.589  -0.117  0.00  0.00    +0.215 C 
ATOM     29  O1  UNL     1      -3.583   3.128   2.028  0.00  0.00    -0.158 OA
ATOM     30  O2  UNL     1      -1.216   3.699   1.740  0.00  0.00    -0.158 OA
ENDBRANCH  25  27
ENDBRANCH  21  22
ENDBRANCH   7  21
TORSDOF 6
