MODEL 1
REMARK VINA RESULT:    -6.530      0.000      0.000
REMARK INTER + INTRA:          -8.978
REMARK INTER:                  -8.439
REMARK INTRA:                  -0.539
REMARK UNBOUND:                -0.539
REMARK  Name = /home/qwerty/github/datacon2025hack/step_04_hit_selection/docking/ligands/lig_281.pdb
REMARK  7 active torsions:
REMARK  status: ('A' for Active; 'I' for Inactive)
REMARK    1  A    between atoms: C1_1  and  C2_2
REMARK    2  A    between atoms: C2_2  and  C3_3
REMARK    3  A    between atoms: C2_2  and  N1_4
REMARK    4  A    between atoms: C4_5  and  C5_7
REMARK    5  A    between atoms: C9_14  and  N5_15
REMARK    6  A    between atoms: N6_22  and  C16_23
REMARK    7  A    between atoms: C16_23  and  C17_24
REMARK                            x       y       z     vdW  Elec       q    Type
REMARK                         _______ _______ _______ _____ _____    ______ ____
ROOT
ATOM      1  C5  UNL     1      21.263   3.385  27.655  0.00  0.00    +0.221 A 
ATOM      2  N2  UNL     1      21.065   4.716  27.635  0.00  0.00    -0.123 NA
ATOM      3  N3  UNL     1      21.162   5.147  28.882  0.00  0.00    -0.113 NA
ATOM      4  C6  UNL     1      21.424   4.074  29.650  0.00  0.00    +0.220 A 
ATOM      5  N4  UNL     1      21.516   4.162  31.085  0.00  0.00    -0.298 N 
ATOM      6  C7  UNL     1      22.378   3.338  31.914  0.00  0.00    +0.109 C 
ATOM      7  C8  UNL     1      22.556   4.112  33.212  0.00  0.00    +0.039 C 
ATOM      8  C9  UNL     1      21.362   5.077  33.286  0.00  0.00    +0.075 C 
ATOM      9  C15 UNL     1      21.017   5.320  31.808  0.00  0.00    +0.126 C 
ATOM     10  N6  UNL     1      21.497   2.934  28.915  0.00  0.00    -0.291 N 
ENDROOT
BRANCH   8  11
ATOM     11  N5  UNL     1      21.687   6.335  34.014  0.00  0.00    -0.298 NA
ATOM     12  C10 UNL     1      23.151   6.624  34.017  0.00  0.00    +0.085 C 
ATOM     13  C11 UNL     1      23.848   6.173  35.310  0.00  0.00    +0.015 C 
ATOM     14  C12 UNL     1      23.268   6.903  36.532  0.00  0.00    +0.002 C 
ATOM     15  C13 UNL     1      21.801   7.313  36.329  0.00  0.00    +0.015 C 
ATOM     16  C14 UNL     1      21.089   6.341  35.379  0.00  0.00    +0.085 C 
ENDBRANCH   8  11
BRANCH   1  18
ATOM     17  N1  UNL     1      20.013   1.796  26.148  0.00  0.00    -0.306 N 
ATOM     18  C4  UNL     1      21.193   2.567  26.425  0.00  0.00    +0.282 C 
ATOM     19  O1  UNL     1      22.146   2.572  25.602  0.00  0.00    -0.267 OA
ATOM     20  H8  UNL     1      19.260   1.760  26.873  0.00  0.00    +0.149 HD
BRANCH  17  22
ATOM     21  C1  UNL     1      19.005   1.778  23.907  0.00  0.00    +0.027 C 
ATOM     22  C2  UNL     1      19.862   1.012  24.918  0.00  0.00    +0.067 C 
ATOM     23  C3  UNL     1      19.232  -0.351  25.229  0.00  0.00    +0.027 C 
ENDBRANCH  17  22
ENDBRANCH   1  18
BRANCH  10  24
ATOM     24  C16 UNL     1      21.497   1.545  29.396  0.00  0.00    +0.132 C 
BRANCH  24  25
ATOM     25  C17 UNL     1      22.631   0.738  28.737  0.00  0.00    +0.037 C 
ATOM     26  C18 UNL     1      22.480  -0.745  28.924  0.00  0.00    +0.035 C 
ATOM     27  C19 UNL     1      23.918  -1.232  28.922  0.00  0.00    +0.160 C 
ATOM     28  O2  UNL     1      24.787  -0.154  29.199  0.00  0.00    -0.379 OA
ATOM     29  C20 UNL     1      23.996   1.001  29.351  0.00  0.00    +0.165 C 
ENDBRANCH  24  25
ENDBRANCH  10  24
TORSDOF 5
ENDMDL
MODEL 2
REMARK VINA RESULT:    -6.524      2.442      8.767
REMARK INTER + INTRA:          -8.969
REMARK INTER:                  -7.990
REMARK INTRA:                  -0.979
REMARK UNBOUND:                -0.539
REMARK  Name = /home/qwerty/github/datacon2025hack/step_04_hit_selection/docking/ligands/lig_281.pdb
REMARK  7 active torsions:
REMARK  status: ('A' for Active; 'I' for Inactive)
REMARK    1  A    between atoms: C1_1  and  C2_2
REMARK    2  A    between atoms: C2_2  and  C3_3
REMARK    3  A    between atoms: C2_2  and  N1_4
REMARK    4  A    between atoms: C4_5  and  C5_7
REMARK    5  A    between atoms: C9_14  and  N5_15
REMARK    6  A    between atoms: N6_22  and  C16_23
REMARK    7  A    between atoms: C16_23  and  C17_24
REMARK                            x       y       z     vdW  Elec       q    Type
REMARK                         _______ _______ _______ _____ _____    ______ ____
ROOT
ATOM      1  C5  UNL     1      19.792   1.823  30.540  0.00  0.00    +0.221 A 
ATOM      2  N2  UNL     1      18.448   1.754  30.521  0.00  0.00    -0.123 NA
ATOM      3  N3  UNL     1      18.084   1.514  29.272  0.00  0.00    -0.113 NA
ATOM      4  C6  UNL     1      19.211   1.435  28.542  0.00  0.00    +0.220 A 
ATOM      5  N4  UNL     1      19.188   1.260  27.112  0.00  0.00    -0.298 N 
ATOM      6  C7  UNL     1      20.192   0.540  26.347  0.00  0.00    +0.109 C 
ATOM      7  C8  UNL     1      19.509   0.152  25.044  0.00  0.00    +0.039 C 
ATOM      8  C9  UNL     1      18.331   1.125  24.887  0.00  0.00    +0.075 C 
ATOM      9  C15 UNL     1      17.978   1.485  26.339  0.00  0.00    +0.126 C 
ATOM     10  N6  UNL     1      20.319   1.624  29.305  0.00  0.00    -0.291 N 
ENDROOT
BRANCH   8  11
ATOM     11  N5  UNL     1      17.186   0.523  24.150  0.00  0.00    -0.298 NA
ATOM     12  C10 UNL     1      16.113   0.042  25.068  0.00  0.00    +0.085 C 
ATOM     13  C11 UNL     1      16.198  -1.466  25.351  0.00  0.00    +0.015 C 
ATOM     14  C12 UNL     1      16.045  -2.279  24.056  0.00  0.00    +0.002 C 
ATOM     15  C13 UNL     1      16.532  -1.509  22.819  0.00  0.00    +0.015 C 
ATOM     16  C14 UNL     1      17.645  -0.523  23.192  0.00  0.00    +0.085 C 
ENDBRANCH   8  11
BRANCH   1  18
ATOM     17  N1  UNL     1      20.959   3.456  32.066  0.00  0.00    -0.306 N 
ATOM     18  C4  UNL     1      20.541   2.112  31.782  0.00  0.00    +0.282 C 
ATOM     19  O1  UNL     1      20.780   1.193  32.609  0.00  0.00    -0.267 OA
ATOM     20  H8  UNL     1      20.801   4.191  31.339  0.00  0.00    +0.149 HD
BRANCH  17  22
ATOM     21  C1  UNL     1      20.747   4.680  34.186  0.00  0.00    +0.027 C 
ATOM     22  C2  UNL     1      21.654   3.814  33.307  0.00  0.00    +0.067 C 
ATOM     23  C3  UNL     1      22.959   4.554  32.993  0.00  0.00    +0.027 C 
ENDBRANCH  17  22
ENDBRANCH   1  18
BRANCH  10  24
ATOM     24  C16 UNL     1      21.696   1.877  28.854  0.00  0.00    +0.132 C 
BRANCH  24  25
ATOM     25  C17 UNL     1      22.666   0.843  29.455  0.00  0.00    +0.037 C 
ATOM     26  C18 UNL     1      24.086   1.043  29.007  0.00  0.00    +0.035 C 
ATOM     27  C19 UNL     1      24.650  -0.367  29.042  0.00  0.00    +0.160 C 
ATOM     28  O2  UNL     1      23.595  -1.304  29.023  0.00  0.00    -0.379 OA
ATOM     29  C20 UNL     1      22.386  -0.581  29.007  0.00  0.00    +0.165 C 
ENDBRANCH  24  25
ENDBRANCH  10  24
TORSDOF 5
ENDMDL
MODEL 3
REMARK VINA RESULT:    -6.407      7.591     10.088
REMARK INTER + INTRA:          -8.819
REMARK INTER:                  -7.742
REMARK INTRA:                  -1.077
REMARK UNBOUND:                -0.539
REMARK  Name = /home/qwerty/github/datacon2025hack/step_04_hit_selection/docking/ligands/lig_281.pdb
REMARK  7 active torsions:
REMARK  status: ('A' for Active; 'I' for Inactive)
REMARK    1  A    between atoms: C1_1  and  C2_2
REMARK    2  A    between atoms: C2_2  and  C3_3
REMARK    3  A    between atoms: C2_2  and  N1_4
REMARK    4  A    between atoms: C4_5  and  C5_7
REMARK    5  A    between atoms: C9_14  and  N5_15
REMARK    6  A    between atoms: N6_22  and  C16_23
REMARK    7  A    between atoms: C16_23  and  C17_24
REMARK                            x       y       z     vdW  Elec       q    Type
REMARK                         _______ _______ _______ _____ _____    ______ ____
ROOT
ATOM      1  C5  UNL     1      20.489  10.140  32.991  0.00  0.00    +0.221 A 
ATOM      2  N2  UNL     1      19.922  11.280  32.555  0.00  0.00    -0.123 NA
ATOM      3  N3  UNL     1      18.964  11.595  33.411  0.00  0.00    -0.113 NA
ATOM      4  C6  UNL     1      18.959  10.644  34.364  0.00  0.00    +0.220 A 
ATOM      5  N4  UNL     1      17.983  10.625  35.424  0.00  0.00    -0.298 N 
ATOM      6  C7  UNL     1      18.228  10.135  36.769  0.00  0.00    +0.109 C 
ATOM      7  C8  UNL     1      17.166  10.789  37.640  0.00  0.00    +0.039 C 
ATOM      8  C9  UNL     1      16.034  11.193  36.682  0.00  0.00    +0.075 C 
ATOM      9  C15 UNL     1      16.768  11.418  35.350  0.00  0.00    +0.126 C 
ATOM     10  N6  UNL     1      19.910   9.701  34.138  0.00  0.00    -0.291 N 
ENDROOT
BRANCH   8  11
ATOM     11  N5  UNL     1      15.298  12.401  37.144  0.00  0.00    -0.298 NA
ATOM     12  C10 UNL     1      13.848  12.348  36.793  0.00  0.00    +0.085 C 
ATOM     13  C11 UNL     1      13.513  13.129  35.513  0.00  0.00    +0.015 C 
ATOM     14  C12 UNL     1      13.857  14.619  35.671  0.00  0.00    +0.002 C 
ATOM     15  C13 UNL     1      15.010  14.853  36.660  0.00  0.00    +0.015 C 
ATOM     16  C14 UNL     1      15.963  13.653  36.682  0.00  0.00    +0.085 C 
ENDBRANCH   8  11
BRANCH   1  18
ATOM     17  N1  UNL     1      22.927   9.981  32.366  0.00  0.00    -0.306 N 
ATOM     18  C4  UNL     1      21.586   9.481  32.250  0.00  0.00    +0.282 C 
ATOM     19  O1  UNL     1      21.357   8.460  31.548  0.00  0.00    -0.267 OA
ATOM     20  H8  UNL     1      23.084  10.863  32.906  0.00  0.00    +0.149 HD
BRANCH  17  22
ATOM     21  C1  UNL     1      25.301   9.394  32.602  0.00  0.00    +0.027 C 
ATOM     22  C2  UNL     1      24.064   9.336  31.702  0.00  0.00    +0.067 C 
ATOM     23  C3  UNL     1      24.349  10.013  30.357  0.00  0.00    +0.027 C 
ENDBRANCH  17  22
ENDBRANCH   1  18
BRANCH  10  24
ATOM     24  C16 UNL     1      20.050   8.386  34.781  0.00  0.00    +0.132 C 
BRANCH  24  25
ATOM     25  C17 UNL     1      21.281   8.359  35.707  0.00  0.00    +0.037 C 
ATOM     26  C18 UNL     1      22.429   7.579  35.132  0.00  0.00    +0.035 C 
ATOM     27  C19 UNL     1      23.131   7.052  36.372  0.00  0.00    +0.160 C 
ATOM     28  O2  UNL     1      22.249   7.093  37.473  0.00  0.00    -0.379 OA
ATOM     29  C20 UNL     1      21.032   7.640  37.022  0.00  0.00    +0.165 C 
ENDBRANCH  24  25
ENDBRANCH  10  24
TORSDOF 5
ENDMDL
MODEL 4
REMARK VINA RESULT:    -6.317      3.681      4.535
REMARK INTER + INTRA:          -8.703
REMARK INTER:                  -8.056
REMARK INTRA:                  -0.647
REMARK UNBOUND:                -0.539
REMARK  Name = /home/qwerty/github/datacon2025hack/step_04_hit_selection/docking/ligands/lig_281.pdb
REMARK  7 active torsions:
REMARK  status: ('A' for Active; 'I' for Inactive)
REMARK    1  A    between atoms: C1_1  and  C2_2
REMARK    2  A    between atoms: C2_2  and  C3_3
REMARK    3  A    between atoms: C2_2  and  N1_4
REMARK    4  A    between atoms: C4_5  and  C5_7
REMARK    5  A    between atoms: C9_14  and  N5_15
REMARK    6  A    between atoms: N6_22  and  C16_23
REMARK    7  A    between atoms: C16_23  and  C17_24
REMARK                            x       y       z     vdW  Elec       q    Type
REMARK                         _______ _______ _______ _____ _____    ______ ____
ROOT
ATOM      1  C5  UNL     1      19.985   2.245  27.876  0.00  0.00    +0.221 A 
ATOM      2  N2  UNL     1      18.665   1.988  27.913  0.00  0.00    -0.123 NA
ATOM      3  N3  UNL     1      18.334   1.808  29.181  0.00  0.00    -0.113 NA
ATOM      4  C6  UNL     1      19.457   1.963  29.907  0.00  0.00    +0.220 A 
ATOM      5  N4  UNL     1      19.484   1.757  31.332  0.00  0.00    -0.298 N 
ATOM      6  C7  UNL     1      20.342   2.475  32.259  0.00  0.00    +0.109 C 
ATOM      7  C8  UNL     1      19.671   2.345  33.618  0.00  0.00    +0.039 C 
ATOM      8  C9  UNL     1      18.758   1.114  33.515  0.00  0.00    +0.075 C 
ATOM      9  C15 UNL     1      18.407   1.064  32.019  0.00  0.00    +0.126 C 
ATOM     10  N6  UNL     1      20.529   2.242  29.120  0.00  0.00    -0.291 N 
ENDROOT
BRANCH   8  11
ATOM     11  N5  UNL     1      17.554   1.220  34.384  0.00  0.00    -0.298 NA
ATOM     12  C10 UNL     1      17.752   2.177  35.511  0.00  0.00    +0.085 C 
ATOM     13  C11 UNL     1      18.141   1.483  36.825  0.00  0.00    +0.015 C 
ATOM     14  C12 UNL     1      17.041   0.512  37.282  0.00  0.00    +0.002 C 
ATOM     15  C13 UNL     1      16.232  -0.053  36.104  0.00  0.00    +0.015 C 
ATOM     16  C14 UNL     1      17.090  -0.123  34.835  0.00  0.00    +0.085 C 
ENDBRANCH   8  11
BRANCH   1  18
ATOM     17  N1  UNL     1      21.209   3.775  26.288  0.00  0.00    -0.306 N 
ATOM     18  C4  UNL     1      20.702   2.468  26.602  0.00  0.00    +0.282 C 
ATOM     19  O1  UNL     1      20.904   1.511  25.809  0.00  0.00    -0.267 OA
ATOM     20  H8  UNL     1      20.979   4.566  26.932  0.00  0.00    +0.149 HD
BRANCH  17  22
ATOM     21  C1  UNL     1      23.030   5.123  25.337  0.00  0.00    +0.027 C 
ATOM     22  C2  UNL     1      21.976   4.044  25.068  0.00  0.00    +0.067 C 
ATOM     23  C3  UNL     1      21.041   4.482  23.935  0.00  0.00    +0.027 C 
ENDBRANCH  17  22
ENDBRANCH   1  18
BRANCH  10  24
ATOM     24  C16 UNL     1      21.953   2.215  29.489  0.00  0.00    +0.132 C 
BRANCH  24  25
ATOM     25  C17 UNL     1      22.682   1.067  28.765  0.00  0.00    +0.037 C 
ATOM     26  C18 UNL     1      22.161  -0.290  29.146  0.00  0.00    +0.035 C 
ATOM     27  C19 UNL     1      23.383  -1.177  28.985  0.00  0.00    +0.160 C 
ATOM     28  O2  UNL     1      24.551  -0.385  28.999  0.00  0.00    -0.379 OA
ATOM     29  C20 UNL     1      24.153   0.959  29.132  0.00  0.00    +0.165 C 
ENDBRANCH  24  25
ENDBRANCH  10  24
TORSDOF 5
ENDMDL
MODEL 5
REMARK VINA RESULT:    -6.221     13.177     14.717
REMARK INTER + INTRA:          -8.578
REMARK INTER:                  -7.311
REMARK INTRA:                  -1.267
REMARK UNBOUND:                -0.539
REMARK  Name = /home/qwerty/github/datacon2025hack/step_04_hit_selection/docking/ligands/lig_281.pdb
REMARK  7 active torsions:
REMARK  status: ('A' for Active; 'I' for Inactive)
REMARK    1  A    between atoms: C1_1  and  C2_2
REMARK    2  A    between atoms: C2_2  and  C3_3
REMARK    3  A    between atoms: C2_2  and  N1_4
REMARK    4  A    between atoms: C4_5  and  C5_7
REMARK    5  A    between atoms: C9_14  and  N5_15
REMARK    6  A    between atoms: N6_22  and  C16_23
REMARK    7  A    between atoms: C16_23  and  C17_24
REMARK                            x       y       z     vdW  Elec       q    Type
REMARK                         _______ _______ _______ _____ _____    ______ ____
ROOT
ATOM      1  C5  UNL     1      12.423  13.890  27.582  0.00  0.00    +0.221 A 
ATOM      2  N2  UNL     1      12.830  14.762  26.641  0.00  0.00    -0.123 NA
ATOM      3  N3  UNL     1      14.010  15.225  27.016  0.00  0.00    -0.113 NA
ATOM      4  C6  UNL     1      14.315  14.625  28.182  0.00  0.00    +0.220 A 
ATOM      5  N4  UNL     1      15.504  14.954  28.926  0.00  0.00    -0.298 N 
ATOM      6  C7  UNL     1      16.254  14.021  29.749  0.00  0.00    +0.109 C 
ATOM      7  C8  UNL     1      17.648  14.617  29.874  0.00  0.00    +0.039 C 
ATOM      8  C9  UNL     1      17.487  16.116  29.578  0.00  0.00    +0.075 C 
ATOM      9  C15 UNL     1      16.267  16.159  28.644  0.00  0.00    +0.126 C 
ATOM     10  N6  UNL     1      13.337  13.770  28.579  0.00  0.00    -0.291 N 
ENDROOT
BRANCH   8  11
ATOM     11  N5  UNL     1      18.703  16.712  28.962  0.00  0.00    -0.298 NA
ATOM     12  C10 UNL     1      18.679  16.634  27.472  0.00  0.00    +0.085 C 
ATOM     13  C11 UNL     1      19.478  15.443  26.922  0.00  0.00    +0.015 C 
ATOM     14  C12 UNL     1      20.960  15.543  27.317  0.00  0.00    +0.002 C 
ATOM     15  C13 UNL     1      21.164  16.305  28.636  0.00  0.00    +0.015 C 
ATOM     16  C14 UNL     1      19.947  16.143  29.555  0.00  0.00    +0.085 C 
ENDBRANCH   8  11
BRANCH   1  18
ATOM     17  N1  UNL     1       9.926  13.874  27.931  0.00  0.00    -0.306 N 
ATOM     18  C4  UNL     1      11.118  13.201  27.496  0.00  0.00    +0.282 C 
ATOM     19  O1  UNL     1      11.040  12.042  27.007  0.00  0.00    -0.267 OA
ATOM     20  H8  UNL     1      10.021  14.810  28.387  0.00  0.00    +0.149 HD
BRANCH  17  22
ATOM     21  C1  UNL     1       7.571  14.316  27.386  0.00  0.00    +0.027 C 
ATOM     22  C2  UNL     1       8.597  13.264  27.818  0.00  0.00    +0.067 C 
ATOM     23  C3  UNL     1       8.185  12.632  29.152  0.00  0.00    +0.027 C 
ENDBRANCH  17  22
ENDBRANCH   1  18
BRANCH  10  24
ATOM     24  C16 UNL     1      13.166  13.141  29.897  0.00  0.00    +0.132 C 
BRANCH  24  25
ATOM     25  C17 UNL     1      12.612  14.153  30.918  0.00  0.00    +0.037 C 
ATOM     26  C18 UNL     1      13.368  14.148  32.216  0.00  0.00    +0.035 C 
ATOM     27  C19 UNL     1      12.307  14.552  33.224  0.00  0.00    +0.160 C 
ATOM     28  O2  UNL     1      11.023  14.335  32.679  0.00  0.00    -0.379 OA
ATOM     29  C20 UNL     1      11.195  13.841  31.371  0.00  0.00    +0.165 C 
ENDBRANCH  24  25
ENDBRANCH  10  24
TORSDOF 5
ENDMDL
MODEL 6
REMARK VINA RESULT:    -6.147      8.907     12.840
REMARK INTER + INTRA:          -8.483
REMARK INTER:                  -7.466
REMARK INTRA:                  -1.017
REMARK UNBOUND:                -0.539
REMARK  Name = /home/qwerty/github/datacon2025hack/step_04_hit_selection/docking/ligands/lig_281.pdb
REMARK  7 active torsions:
REMARK  status: ('A' for Active; 'I' for Inactive)
REMARK    1  A    between atoms: C1_1  and  C2_2
REMARK    2  A    between atoms: C2_2  and  C3_3
REMARK    3  A    between atoms: C2_2  and  N1_4
REMARK    4  A    between atoms: C4_5  and  C5_7
REMARK    5  A    between atoms: C9_14  and  N5_15
REMARK    6  A    between atoms: N6_22  and  C16_23
REMARK    7  A    between atoms: C16_23  and  C17_24
REMARK                            x       y       z     vdW  Elec       q    Type
REMARK                         _______ _______ _______ _____ _____    ______ ____
ROOT
ATOM      1  C5  UNL     1      15.368  13.225  35.515  0.00  0.00    +0.221 A 
ATOM      2  N2  UNL     1      16.570  13.585  35.029  0.00  0.00    -0.123 NA
ATOM      3  N3  UNL     1      17.441  12.668  35.416  0.00  0.00    -0.113 NA
ATOM      4  C6  UNL     1      16.760  11.753  36.130  0.00  0.00    +0.220 A 
ATOM      5  N4  UNL     1      17.413  10.645  36.779  0.00  0.00    -0.298 N 
ATOM      6  C7  UNL     1      16.820   9.335  36.981  0.00  0.00    +0.109 C 
ATOM      7  C8  UNL     1      17.991   8.384  37.179  0.00  0.00    +0.039 C 
ATOM      8  C9  UNL     1      19.170   9.264  37.622  0.00  0.00    +0.075 C 
ATOM      9  C15 UNL     1      18.852  10.624  36.979  0.00  0.00    +0.126 C 
ATOM     10  N6  UNL     1      15.441  12.066  36.219  0.00  0.00    -0.291 N 
ENDROOT
BRANCH   8  11
ATOM     11  N5  UNL     1      20.486   8.718  37.191  0.00  0.00    -0.298 NA
ATOM     12  C10 UNL     1      21.014   9.408  35.978  0.00  0.00    +0.085 C 
ATOM     13  C11 UNL     1      20.726   8.641  34.679  0.00  0.00    +0.015 C 
ATOM     14  C12 UNL     1      21.388   7.253  34.700  0.00  0.00    +0.002 C 
ATOM     15  C13 UNL     1      21.541   6.698  36.125  0.00  0.00    +0.015 C 
ATOM     16  C14 UNL     1      20.436   7.235  37.042  0.00  0.00    +0.085 C 
ENDBRANCH   8  11
BRANCH   1  18
ATOM     17  N1  UNL     1      13.239  13.700  34.251  0.00  0.00    -0.306 N 
ATOM     18  C4  UNL     1      14.159  14.048  35.297  0.00  0.00    +0.282 C 
ATOM     19  O1  UNL     1      13.912  15.028  36.049  0.00  0.00    -0.267 OA
ATOM     20  H8  UNL     1      13.493  12.920  33.603  0.00  0.00    +0.149 HD
BRANCH  17  22
ATOM     21  C1  UNL     1      10.836  13.768  34.762  0.00  0.00    +0.027 C 
ATOM     22  C2  UNL     1      11.995  14.444  34.023  0.00  0.00    +0.067 C 
ATOM     23  C3  UNL     1      11.694  14.532  32.523  0.00  0.00    +0.027 C 
ENDBRANCH  17  22
ENDBRANCH   1  18
BRANCH  10  24
ATOM     24  C16 UNL     1      14.432  11.483  37.117  0.00  0.00    +0.132 C 
BRANCH  24  25
ATOM     25  C17 UNL     1      13.221  10.970  36.315  0.00  0.00    +0.037 C 
ATOM     26  C18 UNL     1      11.957  10.926  37.128  0.00  0.00    +0.035 C 
ATOM     27  C19 UNL     1      11.190   9.779  36.494  0.00  0.00    +0.160 C 
ATOM     28  O2  UNL     1      12.076   8.959  35.763  0.00  0.00    -0.379 OA
ATOM     29  C20 UNL     1      13.362   9.525  35.865  0.00  0.00    +0.165 C 
ENDBRANCH  24  25
ENDBRANCH  10  24
TORSDOF 5
ENDMDL
MODEL 7
REMARK VINA RESULT:    -6.002     11.702     14.643
REMARK INTER + INTRA:          -8.295
REMARK INTER:                  -7.139
REMARK INTRA:                  -1.156
REMARK UNBOUND:                -0.539
REMARK  Name = /home/qwerty/github/datacon2025hack/step_04_hit_selection/docking/ligands/lig_281.pdb
REMARK  7 active torsions:
REMARK  status: ('A' for Active; 'I' for Inactive)
REMARK    1  A    between atoms: C1_1  and  C2_2
REMARK    2  A    between atoms: C2_2  and  C3_3
REMARK    3  A    between atoms: C2_2  and  N1_4
REMARK    4  A    between atoms: C4_5  and  C5_7
REMARK    5  A    between atoms: C9_14  and  N5_15
REMARK    6  A    between atoms: N6_22  and  C16_23
REMARK    7  A    between atoms: C16_23  and  C17_24
REMARK                            x       y       z     vdW  Elec       q    Type
REMARK                         _______ _______ _______ _____ _____    ______ ____
ROOT
ATOM      1  C5  UNL     1      10.884   6.014  21.305  0.00  0.00    +0.221 A 
ATOM      2  N2  UNL     1      12.171   6.386  21.175  0.00  0.00    -0.123 NA
ATOM      3  N3  UNL     1      12.917   5.332  21.464  0.00  0.00    -0.113 NA
ATOM      4  C6  UNL     1      12.076   4.325  21.764  0.00  0.00    +0.220 A 
ATOM      5  N4  UNL     1      12.547   3.038  22.208  0.00  0.00    -0.298 N 
ATOM      6  C7  UNL     1      11.887   1.773  21.935  0.00  0.00    +0.109 C 
ATOM      7  C8  UNL     1      12.963   0.710  22.095  0.00  0.00    +0.039 C 
ATOM      8  C9  UNL     1      14.049   1.348  22.975  0.00  0.00    +0.075 C 
ATOM      9  C15 UNL     1      13.911   2.848  22.669  0.00  0.00    +0.126 C 
ATOM     10  N6  UNL     1      10.776   4.712  21.676  0.00  0.00    -0.291 N 
ENDROOT
BRANCH   8  11
ATOM     11  N5  UNL     1      15.410   0.823  22.677  0.00  0.00    -0.298 NA
ATOM     12  C10 UNL     1      16.061   1.549  21.548  0.00  0.00    +0.085 C 
ATOM     13  C11 UNL     1      15.925   0.816  20.206  0.00  0.00    +0.015 C 
ATOM     14  C12 UNL     1      16.594  -0.567  20.263  0.00  0.00    +0.002 C 
ATOM     15  C13 UNL     1      16.596  -1.159  21.681  0.00  0.00    +0.015 C 
ATOM     16  C14 UNL     1      15.391  -0.656  22.485  0.00  0.00    +0.085 C 
ENDBRANCH   8  11
BRANCH   1  18
ATOM     17  N1  UNL     1       9.596   8.075  21.977  0.00  0.00    -0.306 N 
ATOM     18  C4  UNL     1       9.772   6.963  21.085  0.00  0.00    +0.282 C 
ATOM     19  O1  UNL     1       9.002   6.823  20.098  0.00  0.00    -0.267 OA
ATOM     20  H8  UNL     1      10.209   8.138  22.821  0.00  0.00    +0.149 HD
BRANCH  17  22
ATOM     21  C1  UNL     1       9.109  10.281  21.010  0.00  0.00    +0.027 C 
ATOM     22  C2  UNL     1       8.547   9.080  21.777  0.00  0.00    +0.067 C 
ATOM     23  C3  UNL     1       7.973   9.528  23.126  0.00  0.00    +0.027 C 
ENDBRANCH  17  22
ENDBRANCH   1  18
BRANCH  10  24
ATOM     24  C16 UNL     1       9.586   4.006  22.173  0.00  0.00    +0.132 C 
BRANCH  24  25
ATOM     25  C17 UNL     1       9.461   4.155  23.701  0.00  0.00    +0.037 C 
ATOM     26  C18 UNL     1       8.977   2.901  24.374  0.00  0.00    +0.035 C 
ATOM     27  C19 UNL     1       8.236   3.436  25.587  0.00  0.00    +0.160 C 
ATOM     28  O2  UNL     1       7.905   4.793  25.383  0.00  0.00    -0.379 OA
ATOM     29  C20 UNL     1       8.413   5.171  24.125  0.00  0.00    +0.165 C 
ENDBRANCH  24  25
ENDBRANCH  10  24
TORSDOF 5
ENDMDL
MODEL 8
REMARK VINA RESULT:    -5.976      4.743      9.413
REMARK INTER + INTRA:          -8.262
REMARK INTER:                  -7.115
REMARK INTRA:                  -1.147
REMARK UNBOUND:                -0.539
REMARK  Name = /home/qwerty/github/datacon2025hack/step_04_hit_selection/docking/ligands/lig_281.pdb
REMARK  7 active torsions:
REMARK  status: ('A' for Active; 'I' for Inactive)
REMARK    1  A    between atoms: C1_1  and  C2_2
REMARK    2  A    between atoms: C2_2  and  C3_3
REMARK    3  A    between atoms: C2_2  and  N1_4
REMARK    4  A    between atoms: C4_5  and  C5_7
REMARK    5  A    between atoms: C9_14  and  N5_15
REMARK    6  A    between atoms: N6_22  and  C16_23
REMARK    7  A    between atoms: C16_23  and  C17_24
REMARK                            x       y       z     vdW  Elec       q    Type
REMARK                         _______ _______ _______ _____ _____    ______ ____
ROOT
ATOM      1  C5  UNL     1      21.946   3.802  26.432  0.00  0.00    +0.221 A 
ATOM      2  N2  UNL     1      22.996   4.425  25.864  0.00  0.00    -0.123 NA
ATOM      3  N3  UNL     1      22.575   4.945  24.723  0.00  0.00    -0.113 NA
ATOM      4  C6  UNL     1      21.270   4.638  24.608  0.00  0.00    +0.220 A 
ATOM      5  N4  UNL     1      20.502   4.980  23.438  0.00  0.00    -0.298 N 
ATOM      6  C7  UNL     1      19.086   5.306  23.441  0.00  0.00    +0.109 C 
ATOM      7  C8  UNL     1      18.849   6.099  22.163  0.00  0.00    +0.039 C 
ATOM      8  C9  UNL     1      20.008   5.729  21.225  0.00  0.00    +0.075 C 
ATOM      9  C15 UNL     1      21.145   5.373  22.196  0.00  0.00    +0.126 C 
ATOM     10  N6  UNL     1      20.828   3.914  25.669  0.00  0.00    -0.291 N 
ENDROOT
BRANCH   8  11
ATOM     11  N5  UNL     1      20.370   6.837  20.298  0.00  0.00    -0.298 NA
ATOM     12  C10 UNL     1      20.444   6.385  18.878  0.00  0.00    +0.085 C 
ATOM     13  C11 UNL     1      21.878   6.077  18.422  0.00  0.00    +0.015 C 
ATOM     14  C12 UNL     1      22.767   7.327  18.516  0.00  0.00    +0.002 C 
ATOM     15  C13 UNL     1      22.299   8.298  19.612  0.00  0.00    +0.015 C 
ATOM     16  C14 UNL     1      21.603   7.542  20.750  0.00  0.00    +0.085 C 
ENDBRANCH   8  11
BRANCH   1  18
ATOM     17  N1  UNL     1      22.727   1.804  27.756  0.00  0.00    -0.306 N 
ATOM     18  C4  UNL     1      22.068   3.080  27.716  0.00  0.00    +0.282 C 
ATOM     19  O1  UNL     1      21.631   3.593  28.780  0.00  0.00    -0.267 OA
ATOM     20  H8  UNL     1      23.029   1.371  26.854  0.00  0.00    +0.149 HD
BRANCH  17  22
ATOM     21  C1  UNL     1      24.425   0.860  29.260  0.00  0.00    +0.027 C 
ATOM     22  C2  UNL     1      22.929   1.067  29.008  0.00  0.00    +0.067 C 
ATOM     23  C3  UNL     1      22.204  -0.283  28.954  0.00  0.00    +0.027 C 
ENDBRANCH  17  22
ENDBRANCH   1  18
BRANCH  10  24
ATOM     24  C16 UNL     1      19.565   3.170  25.794  0.00  0.00    +0.132 C 
BRANCH  24  25
ATOM     25  C17 UNL     1      19.617   1.866  24.975  0.00  0.00    +0.037 C 
ATOM     26  C18 UNL     1      18.313   1.546  24.301  0.00  0.00    +0.035 C 
ATOM     27  C19 UNL     1      18.328   0.028  24.244  0.00  0.00    +0.160 C 
ATOM     28  O2  UNL     1      19.252  -0.475  25.185  0.00  0.00    -0.379 OA
ATOM     29  C20 UNL     1      19.851   0.628  25.824  0.00  0.00    +0.165 C 
ENDBRANCH  24  25
ENDBRANCH  10  24
TORSDOF 5
ENDMDL
MODEL 9
REMARK VINA RESULT:    -5.870     10.462     14.098
REMARK INTER + INTRA:          -8.125
REMARK INTER:                  -7.066
REMARK INTRA:                  -1.059
REMARK UNBOUND:                -0.539
REMARK  Name = /home/qwerty/github/datacon2025hack/step_04_hit_selection/docking/ligands/lig_281.pdb
REMARK  7 active torsions:
REMARK  status: ('A' for Active; 'I' for Inactive)
REMARK    1  A    between atoms: C1_1  and  C2_2
REMARK    2  A    between atoms: C2_2  and  C3_3
REMARK    3  A    between atoms: C2_2  and  N1_4
REMARK    4  A    between atoms: C4_5  and  C5_7
REMARK    5  A    between atoms: C9_14  and  N5_15
REMARK    6  A    between atoms: N6_22  and  C16_23
REMARK    7  A    between atoms: C16_23  and  C17_24
REMARK                            x       y       z     vdW  Elec       q    Type
REMARK                         _______ _______ _______ _____ _____    ______ ____
ROOT
ATOM      1  C5  UNL     1      13.649   3.007  20.783  0.00  0.00    +0.221 A 
ATOM      2  N2  UNL     1      14.139   4.140  20.246  0.00  0.00    -0.123 NA
ATOM      3  N3  UNL     1      13.164   5.034  20.254  0.00  0.00    -0.113 NA
ATOM      4  C6  UNL     1      12.088   4.438  20.802  0.00  0.00    +0.220 A 
ATOM      5  N4  UNL     1      10.811   5.097  20.897  0.00  0.00    -0.298 N 
ATOM      6  C7  UNL     1       9.845   4.886  21.962  0.00  0.00    +0.109 C 
ATOM      7  C8  UNL     1       8.960   6.123  21.959  0.00  0.00    +0.039 C 
ATOM      8  C9  UNL     1       9.108   6.736  20.558  0.00  0.00    +0.075 C 
ATOM      9  C15 UNL     1      10.517   6.295  20.131  0.00  0.00    +0.126 C 
ATOM     10  N6  UNL     1      12.350   3.152  21.152  0.00  0.00    -0.291 N 
ENDROOT
BRANCH   8  11
ATOM     11  N5  UNL     1       8.944   8.216  20.561  0.00  0.00    -0.298 NA
ATOM     12  C10 UNL     1      10.254   8.929  20.509  0.00  0.00    +0.085 C 
ATOM     13  C11 UNL     1      10.742   9.386  21.892  0.00  0.00    +0.015 C 
ATOM     14  C12 UNL     1       9.748  10.370  22.530  0.00  0.00    +0.002 C 
ATOM     15  C13 UNL     1       8.305  10.137  22.053  0.00  0.00    +0.015 C 
ATOM     16  C14 UNL     1       8.081   8.665  21.690  0.00  0.00    +0.085 C 
ENDBRANCH   8  11
BRANCH   1  18
ATOM     17  N1  UNL     1      15.078   1.451  22.159  0.00  0.00    -0.306 N 
ATOM     18  C4  UNL     1      14.469   1.782  20.902  0.00  0.00    +0.282 C 
ATOM     19  O1  UNL     1      14.603   1.008  19.918  0.00  0.00    -0.267 OA
ATOM     20  H8  UNL     1      15.002   2.137  22.945  0.00  0.00    +0.149 HD
BRANCH  17  22
ATOM     21  C1  UNL     1      14.977  -0.855  23.001  0.00  0.00    +0.027 C 
ATOM     22  C2  UNL     1      15.853   0.222  22.354  0.00  0.00    +0.067 C 
ATOM     23  C3  UNL     1      17.085   0.500  23.223  0.00  0.00    +0.027 C 
ENDBRANCH  17  22
ENDBRANCH   1  18
BRANCH  10  24
ATOM     24  C16 UNL     1      11.390   2.101  21.523  0.00  0.00    +0.132 C 
BRANCH  24  25
ATOM     25  C17 UNL     1      11.601   1.660  22.984  0.00  0.00    +0.037 C 
ATOM     26  C18 UNL     1      10.357   1.096  23.610  0.00  0.00    +0.035 C 
ATOM     27  C19 UNL     1      10.531   1.446  25.077  0.00  0.00    +0.160 C 
ATOM     28  O2  UNL     1      11.473   2.487  25.210  0.00  0.00    -0.379 OA
ATOM     29  C20 UNL     1      11.937   2.809  23.920  0.00  0.00    +0.165 C 
ENDBRANCH  24  25
ENDBRANCH  10  24
TORSDOF 5
ENDMDL
