REMARK  Name = /home/qwerty/github/datacon2025hack/step_04_hit_selection/docking/ligands/lig_75.pdb
REMARK  5 active torsions:
REMARK  status: ('A' for Active; 'I' for Inactive)
REMARK    1  A    between atoms: C1_1  and  C2_2
REMARK    2  A    between atoms: C3_4  and  C4_5
REMARK    3  A    between atoms: C4_5  and  C5_6
REMARK    4  A    between atoms: C8_11  and  N3_12
REMARK    5  A    between atoms: C9_13  and  C10_15
REMARK                            x       y       z     vdW  Elec       q    Type
REMARK                         _______ _______ _______ _____ _____    ______ ____
ROOT
ATOM      1  C5  UNL     1       2.740  -1.596   0.056  0.00  0.00    +0.221 C 
ATOM      2  O1  UNL     1       2.881  -1.876   1.278  0.00  0.00    -0.275 OA
ATOM      3  N2  UNL     1       1.454  -1.780  -0.567  0.00  0.00    -0.299 N 
ATOM      4  C6  UNL     1       1.198  -1.647  -1.992  0.00  0.00    +0.109 C 
ATOM      5  C7  UNL     1      -0.222  -2.156  -2.198  0.00  0.00    +0.043 C 
ATOM      6  C8  UNL     1      -0.888  -2.098  -0.818  0.00  0.00    +0.092 C 
ATOM      7  C15 UNL     1       0.269  -2.164   0.181  0.00  0.00    +0.130 C 
ENDROOT
BRANCH   6   8
ATOM      8  N3  UNL     1      -1.637  -0.846  -0.650  0.00  0.00    -0.308 N 
ATOM      9  C9  UNL     1      -2.564  -0.654   0.430  0.00  0.00    +0.250 C 
ATOM     10  O2  UNL     1      -2.747  -1.576   1.272  0.00  0.00    -0.272 OA
ATOM     11  H11 UNL     1      -1.509  -0.067  -1.336  0.00  0.00    +0.149 HD
BRANCH   9  12
ATOM     12  C10 UNL     1      -3.306   0.658   0.552  0.00  0.00    +0.187 C 
ATOM     13  F1  UNL     1      -2.378   1.687   0.616  0.00  0.00    -0.232 F 
ATOM     14  C11 UNL     1      -4.223   0.746   1.770  0.00  0.00    +0.050 C 
ATOM     15  C12 UNL     1      -5.258   1.800   1.408  0.00  0.00    +0.004 C 
ATOM     16  C13 UNL     1      -5.344   1.813  -0.118  0.00  0.00    +0.004 C 
ATOM     17  C14 UNL     1      -4.237   0.896  -0.633  0.00  0.00    +0.050 C 
ENDBRANCH   9  12
ENDBRANCH   6   8
BRANCH   1  18
ATOM     18  C4  UNL     1       3.939  -1.131  -0.728  0.00  0.00    +0.151 C 
BRANCH  18  22
ATOM     19  C1  UNL     1       4.899   3.425   1.068  0.00  0.00    +0.073 C 
ATOM     20  C2  UNL     1       5.122   1.972   0.819  0.00  0.00    +0.076 A 
ATOM     21  N1  UNL     1       4.316   1.216   0.041  0.00  0.00    -0.249 NA
ATOM     22  C3  UNL     1       4.702  -0.090   0.034  0.00  0.00    +0.057 A 
ATOM     23  C16 UNL     1       5.804  -0.386   0.836  0.00  0.00    +0.070 A 
ATOM     24  S1  UNL     1       6.311   1.044   1.561  0.00  0.00    -0.081 S 
ENDBRANCH  18  22
ENDBRANCH   1  18
TORSDOF 4
