REMARK  Name = /home/qwerty/github/datacon2025hack/step_04_hit_selection/docking/ligands/lig_148.pdb
REMARK  11 active torsions:
REMARK  status: ('A' for Active; 'I' for Inactive)
REMARK    1  A    between atoms: C1_1  and  C2_2
REMARK    2  A    between atoms: C2_2  and  C3_3
REMARK    3  A    between atoms: C2_2  and  N4_19
REMARK    4  A    between atoms: C3_3  and  C4_4
REMARK    5  A    between atoms: N1_6  and  C5_7
REMARK    6  A    between atoms: C9_12  and  C10_13
REMARK    7  A    between atoms: C13_20  and  O3_22
REMARK    8  A    between atoms: O3_22  and  C14_23
REMARK    9  A    between atoms: C14_23  and  C15_24
REMARK   10  A    between atoms: C14_23  and  C16_25
REMARK   11  A    between atoms: C14_23  and  C17_26
REMARK                            x       y       z     vdW  Elec       q    Type
REMARK                         _______ _______ _______ _____ _____    ______ ____
ROOT
ATOM      1  C4  UNL     1       0.891  -0.003  -0.362  0.00  0.00    +0.219 C 
ATOM      2  O1  UNL     1       1.128  -0.487   0.778  0.00  0.00    -0.275 OA
ATOM      3  N1  UNL     1       1.935   0.108  -1.342  0.00  0.00    -0.285 N 
ATOM      4  H7  UNL     1       1.655   0.251  -2.338  0.00  0.00    +0.155 HD
ENDROOT
BRANCH   3   5
ATOM      5  C5  UNL     1       3.331  -0.089  -1.059  0.00  0.00    +0.035 A 
ATOM      6  C6  UNL     1       4.170  -0.637  -2.064  0.00  0.00    +0.025 A 
ATOM      7  C7  UNL     1       5.546  -0.824  -1.834  0.00  0.00    +0.032 A 
ATOM      8  C8  UNL     1       6.052  -0.440  -0.597  0.00  0.00    +0.089 A 
ATOM      9  N2  UNL     1       7.326  -0.515  -0.170  0.00  0.00    -0.227 NA
ATOM     10  C9  UNL     1       7.251   0.006   1.084  0.00  0.00    +0.175 A 
ATOM     11  N3  UNL     1       6.002   0.396   1.440  0.00  0.00    -0.337 N 
ATOM     12  C11 UNL     1       5.258   0.105   0.366  0.00  0.00    +0.068 A 
ATOM     13  C12 UNL     1       3.893   0.307   0.179  0.00  0.00    +0.051 A 
ATOM     14  H11 UNL     1       5.692   0.825   2.341  0.00  0.00    +0.167 HD
BRANCH  10  15
ATOM     15  C10 UNL     1       8.437   0.142   1.982  0.00  0.00    +0.406 C 
ATOM     16  F1  UNL     1       8.221  -0.571   3.146  0.00  0.00    -0.201 F 
ATOM     17  F2  UNL     1       8.634   1.475   2.290  0.00  0.00    -0.201 F 
ENDBRANCH  10  15
ENDBRANCH   3   5
BRANCH   1  18
ATOM     18  C3  UNL     1      -0.516   0.384  -0.714  0.00  0.00    +0.118 C 
BRANCH  18  20
ATOM     19  C1  UNL     1      -0.906  -1.536  -2.336  0.00  0.00    +0.028 C 
ATOM     20  C2  UNL     1      -1.383  -0.845  -1.051  0.00  0.00    +0.082 C 
BRANCH  20  21
ATOM     21  N4  UNL     1      -2.784  -0.435  -1.198  0.00  0.00    -0.278 N 
ATOM     22  C13 UNL     1      -3.629  -0.159  -0.075  0.00  0.00    +0.401 C 
ATOM     23  O2  UNL     1      -3.185  -0.295   1.098  0.00  0.00    -0.226 OA
ATOM     24  H13 UNL     1      -3.201  -0.348  -2.153  0.00  0.00    +0.152 HD
BRANCH  22  25
ATOM     25  O3  UNL     1      -4.948   0.257  -0.305  0.00  0.00    -0.445 OA
BRANCH  25  26
ATOM     26  C14 UNL     1      -5.925   0.581   0.696  0.00  0.00    +0.107 C 
ATOM     27  C15 UNL     1      -5.449   1.769   1.554  0.00  0.00    +0.055 C 
ATOM     28  C16 UNL     1      -6.221  -0.645   1.582  0.00  0.00    +0.055 C 
ATOM     29  C17 UNL     1      -7.212   0.984  -0.039  0.00  0.00    +0.055 C 
ENDBRANCH  25  26
ENDBRANCH  22  25
ENDBRANCH  20  21
ENDBRANCH  18  20
ENDBRANCH   1  18
TORSDOF 7
