MODEL 1
REMARK VINA RESULT:    -8.129      0.000      0.000
REMARK INTER + INTRA:         -10.130
REMARK INTER:                  -9.554
REMARK INTRA:                  -0.576
REMARK UNBOUND:                -0.576
REMARK  Name = /home/qwerty/github/datacon2025hack/step_04_hit_selection/docking/ligands/lig_115.pdb
REMARK  3 active torsions:
REMARK  status: ('A' for Active; 'I' for Inactive)
REMARK    1  A    between atoms: C1_2  and  C14_19
REMARK    2  A    between atoms: N1_3  and  C2_4
REMARK    3  A    between atoms: C6_8  and  C7_9
REMARK                            x       y       z     vdW  Elec       q    Type
REMARK                         _______ _______ _______ _____ _____    ______ ____
ROOT
ATOM      1  O1  UNL     1      13.366   0.126  24.167  0.00  0.00    -0.270 OA
ATOM      2  C1  UNL     1      13.747   0.487  23.020  0.00  0.00    +0.248 C 
ATOM      3  N1  UNL     1      14.948  -0.072  22.460  0.00  0.00    -0.281 N 
ATOM      4  H1  UNL     1      15.009  -0.161  21.421  0.00  0.00    +0.155 HD
ENDROOT
BRANCH   2   5
ATOM      5  C14 UNL     1      12.922   1.447  22.246  0.00  0.00    +0.038 A 
ATOM      6  C15 UNL     1      13.375   1.952  20.996  0.00  0.00    +0.015 A 
ATOM      7  C16 UNL     1      12.599   2.870  20.264  0.00  0.00    +0.027 A 
ATOM      8  C17 UNL     1      11.379   3.268  20.800  0.00  0.00    +0.047 A 
ATOM      9  N5  UNL     1      10.502   4.143  20.270  0.00  0.00    -0.358 N 
ATOM     10  C18 UNL     1       9.493   4.224  21.166  0.00  0.00    +0.020 A 
ATOM     11  C19 UNL     1       9.712   3.379  22.241  0.00  0.00    -0.019 A 
ATOM     12  C20 UNL     1      10.935   2.787  22.008  0.00  0.00    +0.004 A 
ATOM     13  C21 UNL     1      11.679   1.884  22.762  0.00  0.00    +0.023 A 
ATOM     14  C22 UNL     1       8.821   3.289  23.442  0.00  0.00    +0.037 C 
ATOM     15  C23 UNL     1       7.426   3.859  23.116  0.00  0.00    +0.005 C 
ATOM     16  C24 UNL     1       7.520   5.198  22.352  0.00  0.00    +0.006 C 
ATOM     17  C25 UNL     1       8.244   5.035  21.000  0.00  0.00    +0.053 C 
ATOM     18  H12 UNL     1      10.585   4.655  19.363  0.00  0.00    +0.166 HD
ENDBRANCH   2   5
BRANCH   3  19
ATOM     19  C2  UNL     1      15.997  -0.659  23.249  0.00  0.00    +0.034 A 
ATOM     20  C3  UNL     1      15.997  -2.042  23.471  0.00  0.00    +0.023 A 
ATOM     21  C4  UNL     1      17.015  -2.637  24.218  0.00  0.00    +0.002 A 
ATOM     22  C5  UNL     1      18.052  -1.861  24.739  0.00  0.00    +0.010 A 
ATOM     23  C6  UNL     1      18.087  -0.472  24.510  0.00  0.00    +0.004 A 
ATOM     24  C13 UNL     1      17.055   0.119  23.756  0.00  0.00    +0.033 A 
BRANCH  23  25
ATOM     25  C7  UNL     1      19.187   0.370  25.042  0.00  0.00    +0.091 A 
ATOM     26  C8  UNL     1      19.850   1.397  24.369  0.00  0.00    +0.122 A 
ATOM     27  N2  UNL     1      20.766   1.886  25.214  0.00  0.00    -0.290 N 
ATOM     28  C9  UNL     1      21.668   2.885  25.060  0.00  0.00    +0.095 A 
ATOM     29  C10 UNL     1      22.511   3.175  26.141  0.00  0.00    +0.038 A 
ATOM     30  C11 UNL     1      22.380   2.420  27.325  0.00  0.00    +0.116 A 
ATOM     31  N3  UNL     1      21.449   1.426  27.413  0.00  0.00    -0.220 NA
ATOM     32  C12 UNL     1      20.653   1.177  26.344  0.00  0.00    +0.235 A 
ATOM     33  N4  UNL     1      19.697   0.230  26.294  0.00  0.00    -0.210 NA
ENDBRANCH  23  25
ENDBRANCH   3  19
TORSDOF 3
ENDMDL
MODEL 2
REMARK VINA RESULT:    -7.790      5.428     11.494
REMARK INTER + INTRA:          -9.732
REMARK INTER:                  -9.141
REMARK INTRA:                  -0.592
REMARK UNBOUND:                -0.576
REMARK  Name = /home/qwerty/github/datacon2025hack/step_04_hit_selection/docking/ligands/lig_115.pdb
REMARK  3 active torsions:
REMARK  status: ('A' for Active; 'I' for Inactive)
REMARK    1  A    between atoms: C1_2  and  C14_19
REMARK    2  A    between atoms: N1_3  and  C2_4
REMARK    3  A    between atoms: C6_8  and  C7_9
REMARK                            x       y       z     vdW  Elec       q    Type
REMARK                         _______ _______ _______ _____ _____    ______ ____
ROOT
ATOM      1  O1  UNL     1      11.478   7.778  21.389  0.00  0.00    -0.270 OA
ATOM      2  C1  UNL     1      10.650   6.827  21.393  0.00  0.00    +0.248 C 
ATOM      3  N1  UNL     1       9.247   7.105  21.535  0.00  0.00    -0.281 N 
ATOM      4  H1  UNL     1       8.569   6.449  21.084  0.00  0.00    +0.155 HD
ENDROOT
BRANCH   2   5
ATOM      5  C14 UNL     1      11.135   5.438  21.203  0.00  0.00    +0.038 A 
ATOM      6  C15 UNL     1      10.250   4.334  21.341  0.00  0.00    +0.015 A 
ATOM      7  C16 UNL     1      10.708   3.014  21.170  0.00  0.00    +0.027 A 
ATOM      8  C17 UNL     1      12.052   2.824  20.864  0.00  0.00    +0.047 A 
ATOM      9  N5  UNL     1      12.688   1.650  20.678  0.00  0.00    -0.358 N 
ATOM     10  C18 UNL     1      13.977   1.978  20.435  0.00  0.00    +0.020 A 
ATOM     11  C19 UNL     1      14.150   3.352  20.433  0.00  0.00    -0.019 A 
ATOM     12  C20 UNL     1      12.914   3.885  20.730  0.00  0.00    +0.004 A 
ATOM     13  C21 UNL     1      12.497   5.202  20.899  0.00  0.00    +0.023 A 
ATOM     14  C22 UNL     1      15.473   4.037  20.270  0.00  0.00    +0.037 C 
ATOM     15  C23 UNL     1      16.496   3.078  19.631  0.00  0.00    +0.005 C 
ATOM     16  C24 UNL     1      16.454   1.678  20.282  0.00  0.00    +0.006 C 
ATOM     17  C25 UNL     1      15.074   1.011  20.111  0.00  0.00    +0.053 C 
ATOM     18  H12 UNL     1      12.275   0.691  20.717  0.00  0.00    +0.166 HD
ENDBRANCH   2   5
BRANCH   3  19
ATOM     19  C2  UNL     1       8.728   8.312  22.119  0.00  0.00    +0.034 A 
ATOM     20  C3  UNL     1       8.306   9.354  21.283  0.00  0.00    +0.023 A 
ATOM     21  C4  UNL     1       7.782  10.528  21.827  0.00  0.00    +0.002 A 
ATOM     22  C5  UNL     1       7.660  10.669  23.211  0.00  0.00    +0.010 A 
ATOM     23  C6  UNL     1       8.056   9.628  24.071  0.00  0.00    +0.004 A 
ATOM     24  C13 UNL     1       8.584   8.448  23.513  0.00  0.00    +0.033 A 
BRANCH  23  25
ATOM     25  C7  UNL     1       7.921   9.751  25.544  0.00  0.00    +0.091 A 
ATOM     26  C8  UNL     1       8.291  10.844  26.327  0.00  0.00    +0.122 A 
ATOM     27  N2  UNL     1       7.995  10.532  27.595  0.00  0.00    -0.290 N 
ATOM     28  C9  UNL     1       8.153  11.238  28.740  0.00  0.00    +0.095 A 
ATOM     29  C10 UNL     1       7.743  10.638  29.938  0.00  0.00    +0.038 A 
ATOM     30  C11 UNL     1       7.192   9.342  29.892  0.00  0.00    +0.116 A 
ATOM     31  N3  UNL     1       7.061   8.685  28.703  0.00  0.00    -0.220 NA
ATOM     32  C12 UNL     1       7.470   9.301  27.566  0.00  0.00    +0.235 A 
ATOM     33  N4  UNL     1       7.400   8.772  26.331  0.00  0.00    -0.210 NA
ENDBRANCH  23  25
ENDBRANCH   3  19
TORSDOF 3
ENDMDL
MODEL 3
REMARK VINA RESULT:    -7.769      7.857     11.038
REMARK INTER + INTRA:          -9.708
REMARK INTER:                  -9.326
REMARK INTRA:                  -0.382
REMARK UNBOUND:                -0.576
REMARK  Name = /home/qwerty/github/datacon2025hack/step_04_hit_selection/docking/ligands/lig_115.pdb
REMARK  3 active torsions:
REMARK  status: ('A' for Active; 'I' for Inactive)
REMARK    1  A    between atoms: C1_2  and  C14_19
REMARK    2  A    between atoms: N1_3  and  C2_4
REMARK    3  A    between atoms: C6_8  and  C7_9
REMARK                            x       y       z     vdW  Elec       q    Type
REMARK                         _______ _______ _______ _____ _____    ______ ____
ROOT
ATOM      1  O1  UNL     1      23.545   6.273  20.701  0.00  0.00    -0.270 OA
ATOM      2  C1  UNL     1      23.108   7.273  21.333  0.00  0.00    +0.248 C 
ATOM      3  N1  UNL     1      22.349   7.077  22.537  0.00  0.00    -0.281 N 
ATOM      4  H1  UNL     1      22.399   7.816  23.275  0.00  0.00    +0.155 HD
ENDROOT
BRANCH   2   5
ATOM      5  C14 UNL     1      23.428   8.638  20.848  0.00  0.00    +0.038 A 
ATOM      6  C15 UNL     1      24.779   9.062  20.710  0.00  0.00    +0.015 A 
ATOM      7  C16 UNL     1      25.087  10.359  20.259  0.00  0.00    +0.027 A 
ATOM      8  C17 UNL     1      24.031  11.213  19.956  0.00  0.00    +0.047 A 
ATOM      9  N5  UNL     1      24.111  12.488  19.528  0.00  0.00    -0.358 N 
ATOM     10  C18 UNL     1      22.831  12.902  19.402  0.00  0.00    +0.020 A 
ATOM     11  C19 UNL     1      21.944  11.885  19.713  0.00  0.00    -0.019 A 
ATOM     12  C20 UNL     1      22.724  10.812  20.089  0.00  0.00    +0.004 A 
ATOM     13  C21 UNL     1      22.383   9.540  20.537  0.00  0.00    +0.023 A 
ATOM     14  C22 UNL     1      20.454  12.042  19.747  0.00  0.00    +0.037 C 
ATOM     15  C23 UNL     1      20.030  13.283  18.937  0.00  0.00    +0.005 C 
ATOM     16  C24 UNL     1      20.918  14.506  19.255  0.00  0.00    +0.006 C 
ATOM     17  C25 UNL     1      22.396  14.246  18.899  0.00  0.00    +0.053 C 
ATOM     18  H12 UNL     1      24.977  13.042  19.339  0.00  0.00    +0.166 HD
ENDBRANCH   2   5
BRANCH   3  19
ATOM     19  C2  UNL     1      21.655   5.858  22.853  0.00  0.00    +0.034 A 
ATOM     20  C3  UNL     1      20.810   5.280  21.897  0.00  0.00    +0.023 A 
ATOM     21  C4  UNL     1      20.141   4.088  22.174  0.00  0.00    +0.002 A 
ATOM     22  C5  UNL     1      20.318   3.450  23.403  0.00  0.00    +0.010 A 
ATOM     23  C6  UNL     1      21.180   3.998  24.372  0.00  0.00    +0.004 A 
ATOM     24  C13 UNL     1      21.850   5.202  24.083  0.00  0.00    +0.033 A 
BRANCH  23  25
ATOM     25  C7  UNL     1      21.395   3.329  25.679  0.00  0.00    +0.091 A 
ATOM     26  C8  UNL     1      20.423   3.038  26.637  0.00  0.00    +0.122 A 
ATOM     27  N2  UNL     1      21.050   2.435  27.655  0.00  0.00    -0.290 N 
ATOM     28  C9  UNL     1      20.573   1.954  28.828  0.00  0.00    +0.095 A 
ATOM     29  C10 UNL     1      21.488   1.367  29.713  0.00  0.00    +0.038 A 
ATOM     30  C11 UNL     1      22.846   1.306  29.342  0.00  0.00    +0.116 A 
ATOM     31  N3  UNL     1      23.261   1.811  28.143  0.00  0.00    -0.220 NA
ATOM     32  C12 UNL     1      22.344   2.372  27.316  0.00  0.00    +0.235 A 
ATOM     33  N4  UNL     1      22.613   2.906  26.111  0.00  0.00    -0.210 NA
ENDBRANCH  23  25
ENDBRANCH   3  19
TORSDOF 3
ENDMDL
MODEL 4
REMARK VINA RESULT:    -7.704      5.258      9.471
REMARK INTER + INTRA:          -9.631
REMARK INTER:                  -9.053
REMARK INTRA:                  -0.578
REMARK UNBOUND:                -0.576
REMARK  Name = /home/qwerty/github/datacon2025hack/step_04_hit_selection/docking/ligands/lig_115.pdb
REMARK  3 active torsions:
REMARK  status: ('A' for Active; 'I' for Inactive)
REMARK    1  A    between atoms: C1_2  and  C14_19
REMARK    2  A    between atoms: N1_3  and  C2_4
REMARK    3  A    between atoms: C6_8  and  C7_9
REMARK                            x       y       z     vdW  Elec       q    Type
REMARK                         _______ _______ _______ _____ _____    ______ ____
ROOT
ATOM      1  O1  UNL     1      18.465   2.330  29.883  0.00  0.00    -0.270 OA
ATOM      2  C1  UNL     1      19.462   1.799  29.322  0.00  0.00    +0.248 C 
ATOM      3  N1  UNL     1      20.677   1.605  30.066  0.00  0.00    -0.281 N 
ATOM      4  H1  UNL     1      21.287   0.798  29.806  0.00  0.00    +0.155 HD
ENDROOT
BRANCH   2   5
ATOM      5  C14 UNL     1      19.348   1.338  27.917  0.00  0.00    +0.038 A 
ATOM      6  C15 UNL     1      20.431   1.497  27.009  0.00  0.00    +0.015 A 
ATOM      7  C16 UNL     1      20.323   1.069  25.673  0.00  0.00    +0.027 A 
ATOM      8  C17 UNL     1      19.126   0.488  25.268  0.00  0.00    +0.047 A 
ATOM      9  N5  UNL     1      18.817   0.030  24.038  0.00  0.00    -0.358 N 
ATOM     10  C18 UNL     1      17.542  -0.410  24.133  0.00  0.00    +0.020 A 
ATOM     11  C19 UNL     1      17.058  -0.265  25.422  0.00  0.00    -0.019 A 
ATOM     12  C20 UNL     1      18.074   0.332  26.137  0.00  0.00    +0.004 A 
ATOM     13  C21 UNL     1      18.144   0.749  27.463  0.00  0.00    +0.023 A 
ATOM     14  C22 UNL     1      15.656  -0.587  25.841  0.00  0.00    +0.037 C 
ATOM     15  C23 UNL     1      14.996  -1.531  24.816  0.00  0.00    +0.005 C 
ATOM     16  C24 UNL     1      15.258  -1.074  23.364  0.00  0.00    +0.006 C 
ATOM     17  C25 UNL     1      16.763  -1.064  23.032  0.00  0.00    +0.053 C 
ATOM     18  H12 UNL     1      19.429   0.022  23.191  0.00  0.00    +0.166 HD
ENDBRANCH   2   5
BRANCH   3  19
ATOM     19  C2  UNL     1      21.020   2.358  31.242  0.00  0.00    +0.034 A 
ATOM     20  C3  UNL     1      20.751   1.817  32.506  0.00  0.00    +0.023 A 
ATOM     21  C4  UNL     1      21.092   2.520  33.662  0.00  0.00    +0.002 A 
ATOM     22  C5  UNL     1      21.719   3.764  33.570  0.00  0.00    +0.010 A 
ATOM     23  C6  UNL     1      22.022   4.318  32.312  0.00  0.00    +0.004 A 
ATOM     24  C13 UNL     1      21.673   3.601  31.152  0.00  0.00    +0.033 A 
BRANCH  23  25
ATOM     25  C7  UNL     1      22.703   5.632  32.191  0.00  0.00    +0.091 A 
ATOM     26  C8  UNL     1      23.737   6.112  32.995  0.00  0.00    +0.122 A 
ATOM     27  N2  UNL     1      24.049   7.331  32.538  0.00  0.00    -0.290 N 
ATOM     28  C9  UNL     1      24.978   8.222  32.960  0.00  0.00    +0.095 A 
ATOM     29  C10 UNL     1      25.073   9.439  32.272  0.00  0.00    +0.038 A 
ATOM     30  C11 UNL     1      24.207   9.673  31.185  0.00  0.00    +0.116 A 
ATOM     31  N3  UNL     1      23.292   8.731  30.812  0.00  0.00    -0.220 NA
ATOM     32  C12 UNL     1      23.232   7.566  31.505  0.00  0.00    +0.235 A 
ATOM     33  N4  UNL     1      22.383   6.555  31.247  0.00  0.00    -0.210 NA
ENDBRANCH  23  25
ENDBRANCH   3  19
TORSDOF 3
ENDMDL
MODEL 5
REMARK VINA RESULT:    -7.690     11.355     14.686
REMARK INTER + INTRA:          -9.614
REMARK INTER:                  -9.028
REMARK INTRA:                  -0.587
REMARK UNBOUND:                -0.576
REMARK  Name = /home/qwerty/github/datacon2025hack/step_04_hit_selection/docking/ligands/lig_115.pdb
REMARK  3 active torsions:
REMARK  status: ('A' for Active; 'I' for Inactive)
REMARK    1  A    between atoms: C1_2  and  C14_19
REMARK    2  A    between atoms: N1_3  and  C2_4
REMARK    3  A    between atoms: C6_8  and  C7_9
REMARK                            x       y       z     vdW  Elec       q    Type
REMARK                         _______ _______ _______ _____ _____    ______ ____
ROOT
ATOM      1  O1  UNL     1      21.551   9.939  32.834  0.00  0.00    -0.270 OA
ATOM      2  C1  UNL     1      21.409   9.778  34.077  0.00  0.00    +0.248 C 
ATOM      3  N1  UNL     1      22.208   8.799  34.764  0.00  0.00    -0.281 N 
ATOM      4  H1  UNL     1      22.446   8.976  35.766  0.00  0.00    +0.155 HD
ENDROOT
BRANCH   2   5
ATOM      5  C14 UNL     1      20.454  10.637  34.819  0.00  0.00    +0.038 A 
ATOM      6  C15 UNL     1      20.898  11.817  35.478  0.00  0.00    +0.015 A 
ATOM      7  C16 UNL     1      19.996  12.629  36.190  0.00  0.00    +0.027 A 
ATOM      8  C17 UNL     1      18.661  12.243  36.231  0.00  0.00    +0.047 A 
ATOM      9  N5  UNL     1      17.650  12.868  36.867  0.00  0.00    -0.358 N 
ATOM     10  C18 UNL     1      16.559  12.101  36.642  0.00  0.00    +0.020 A 
ATOM     11  C19 UNL     1      16.870  11.016  35.840  0.00  0.00    -0.019 A 
ATOM     12  C20 UNL     1      18.224  11.104  35.600  0.00  0.00    +0.004 A 
ATOM     13  C21 UNL     1      19.088  10.274  34.892  0.00  0.00    +0.023 A 
ATOM     14  C22 UNL     1      15.901   9.934  35.469  0.00  0.00    +0.037 C 
ATOM     15  C23 UNL     1      14.453  10.423  35.667  0.00  0.00    +0.005 C 
ATOM     16  C24 UNL     1      14.275  11.157  37.014  0.00  0.00    +0.006 C 
ATOM     17  C25 UNL     1      15.168  12.411  37.103  0.00  0.00    +0.053 C 
ATOM     18  H12 UNL     1      17.699  13.753  37.420  0.00  0.00    +0.166 HD
ENDBRANCH   2   5
BRANCH   3  19
ATOM     19  C2  UNL     1      22.828   7.677  34.112  0.00  0.00    +0.034 A 
ATOM     20  C3  UNL     1      24.182   7.751  33.759  0.00  0.00    +0.023 A 
ATOM     21  C4  UNL     1      24.810   6.668  33.142  0.00  0.00    +0.002 A 
ATOM     22  C5  UNL     1      24.099   5.494  32.885  0.00  0.00    +0.010 A 
ATOM     23  C6  UNL     1      22.745   5.387  33.252  0.00  0.00    +0.004 A 
ATOM     24  C13 UNL     1      22.119   6.485  33.873  0.00  0.00    +0.033 A 
BRANCH  23  25
ATOM     25  C7  UNL     1      21.974   4.143  33.003  0.00  0.00    +0.091 A 
ATOM     26  C8  UNL     1      22.192   3.218  31.981  0.00  0.00    +0.122 A 
ATOM     27  N2  UNL     1      21.273   2.255  32.128  0.00  0.00    -0.290 N 
ATOM     28  C9  UNL     1      21.046   1.132  31.406  0.00  0.00    +0.095 A 
ATOM     29  C10 UNL     1      19.992   0.301  31.807  0.00  0.00    +0.038 A 
ATOM     30  C11 UNL     1      19.227   0.671  32.931  0.00  0.00    +0.116 A 
ATOM     31  N3  UNL     1      19.509   1.818  33.615  0.00  0.00    -0.220 NA
ATOM     32  C12 UNL     1      20.538   2.595  33.193  0.00  0.00    +0.235 A 
ATOM     33  N4  UNL     1      20.925   3.748  33.771  0.00  0.00    -0.210 NA
ENDBRANCH  23  25
ENDBRANCH   3  19
TORSDOF 3
ENDMDL
MODEL 6
REMARK VINA RESULT:    -7.672      5.925     12.040
REMARK INTER + INTRA:          -9.594
REMARK INTER:                  -9.022
REMARK INTRA:                  -0.572
REMARK UNBOUND:                -0.576
REMARK  Name = /home/qwerty/github/datacon2025hack/step_04_hit_selection/docking/ligands/lig_115.pdb
REMARK  3 active torsions:
REMARK  status: ('A' for Active; 'I' for Inactive)
REMARK    1  A    between atoms: C1_2  and  C14_19
REMARK    2  A    between atoms: N1_3  and  C2_4
REMARK    3  A    between atoms: C6_8  and  C7_9
REMARK                            x       y       z     vdW  Elec       q    Type
REMARK                         _______ _______ _______ _____ _____    ______ ____
ROOT
ATOM      1  O1  UNL     1      20.390   4.583  28.234  0.00  0.00    -0.270 OA
ATOM      2  C1  UNL     1      21.023   3.652  28.802  0.00  0.00    +0.248 C 
ATOM      3  N1  UNL     1      21.400   2.486  28.051  0.00  0.00    -0.281 N 
ATOM      4  H1  UNL     1      22.268   1.979  28.335  0.00  0.00    +0.155 HD
ENDROOT
BRANCH   2   5
ATOM      5  C14 UNL     1      21.411   3.798  30.227  0.00  0.00    +0.038 A 
ATOM      6  C15 UNL     1      21.457   2.666  31.087  0.00  0.00    +0.015 A 
ATOM      7  C16 UNL     1      21.816   2.802  32.441  0.00  0.00    +0.027 A 
ATOM      8  C17 UNL     1      22.122   4.075  32.911  0.00  0.00    +0.047 A 
ATOM      9  N5  UNL     1      22.470   4.418  34.167  0.00  0.00    -0.358 N 
ATOM     10  C18 UNL     1      22.636   5.759  34.136  0.00  0.00    +0.020 A 
ATOM     11  C19 UNL     1      22.428   6.258  32.862  0.00  0.00    -0.019 A 
ATOM     12  C20 UNL     1      22.077   5.173  32.088  0.00  0.00    +0.004 A 
ATOM     13  C21 UNL     1      21.721   5.077  30.746  0.00  0.00    +0.023 A 
ATOM     14  C22 UNL     1      22.461   7.714  32.508  0.00  0.00    +0.037 C 
ATOM     15  C23 UNL     1      23.217   8.510  33.590  0.00  0.00    +0.005 C 
ATOM     16  C24 UNL     1      22.785   8.096  35.013  0.00  0.00    +0.006 C 
ATOM     17  C25 UNL     1      23.081   6.608  35.289  0.00  0.00    +0.053 C 
ATOM     18  H12 UNL     1      22.583   3.785  34.991  0.00  0.00    +0.166 HD
ENDBRANCH   2   5
BRANCH   3  19
ATOM     19  C2  UNL     1      20.744   2.071  26.840  0.00  0.00    +0.034 A 
ATOM     20  C3  UNL     1      21.270   2.467  25.603  0.00  0.00    +0.023 A 
ATOM     21  C4  UNL     1      20.662   2.062  24.415  0.00  0.00    +0.002 A 
ATOM     22  C5  UNL     1      19.530   1.245  24.446  0.00  0.00    +0.010 A 
ATOM     23  C6  UNL     1      18.996   0.814  25.675  0.00  0.00    +0.004 A 
ATOM     24  C13 UNL     1      19.617   1.229  26.869  0.00  0.00    +0.033 A 
BRANCH  23  25
ATOM     25  C7  UNL     1      17.804  -0.067  25.731  0.00  0.00    +0.091 A 
ATOM     26  C8  UNL     1      17.545  -1.173  24.920  0.00  0.00    +0.122 A 
ATOM     27  N2  UNL     1      16.366  -1.672  25.310  0.00  0.00    -0.290 N 
ATOM     28  C9  UNL     1      15.661  -2.735  24.854  0.00  0.00    +0.095 A 
ATOM     29  C10 UNL     1      14.435  -3.019  25.471  0.00  0.00    +0.038 A 
ATOM     30  C11 UNL     1      14.001  -2.192  26.526  0.00  0.00    +0.116 A 
ATOM     31  N3  UNL     1      14.760  -1.135  26.937  0.00  0.00    -0.220 NA
ATOM     32  C12 UNL     1      15.940  -0.894  26.313  0.00  0.00    +0.235 A 
ATOM     33  N4  UNL     1      16.785   0.108  26.614  0.00  0.00    -0.210 NA
ENDBRANCH  23  25
ENDBRANCH   3  19
TORSDOF 3
ENDMDL
MODEL 7
REMARK VINA RESULT:    -7.599     13.368     18.172
REMARK INTER + INTRA:          -9.508
REMARK INTER:                  -8.947
REMARK INTRA:                  -0.561
REMARK UNBOUND:                -0.576
REMARK  Name = /home/qwerty/github/datacon2025hack/step_04_hit_selection/docking/ligands/lig_115.pdb
REMARK  3 active torsions:
REMARK  status: ('A' for Active; 'I' for Inactive)
REMARK    1  A    between atoms: C1_2  and  C14_19
REMARK    2  A    between atoms: N1_3  and  C2_4
REMARK    3  A    between atoms: C6_8  and  C7_9
REMARK                            x       y       z     vdW  Elec       q    Type
REMARK                         _______ _______ _______ _____ _____    ______ ____
ROOT
ATOM      1  O1  UNL     1      17.427  12.184  34.572  0.00  0.00    -0.270 OA
ATOM      2  C1  UNL     1      16.867  11.420  35.406  0.00  0.00    +0.248 C 
ATOM      3  N1  UNL     1      15.440  11.472  35.571  0.00  0.00    -0.281 N 
ATOM      4  H1  UNL     1      14.948  10.595  35.858  0.00  0.00    +0.155 HD
ENDROOT
BRANCH   2   5
ATOM      5  C14 UNL     1      17.688  10.446  36.167  0.00  0.00    +0.038 A 
ATOM      6  C15 UNL     1      17.290  10.018  37.463  0.00  0.00    +0.015 A 
ATOM      7  C16 UNL     1      18.070   9.100  38.192  0.00  0.00    +0.027 A 
ATOM      8  C17 UNL     1      19.241   8.629  37.607  0.00  0.00    +0.047 A 
ATOM      9  N5  UNL     1      20.129   7.767  38.140  0.00  0.00    -0.358 N 
ATOM     10  C18 UNL     1      21.104   7.642  37.213  0.00  0.00    +0.020 A 
ATOM     11  C19 UNL     1      20.820   8.393  36.085  0.00  0.00    -0.019 A 
ATOM     12  C20 UNL     1      19.634   9.040  36.357  0.00  0.00    +0.004 A 
ATOM     13  C21 UNL     1      18.890   9.950  35.611  0.00  0.00    +0.023 A 
ATOM     14  C22 UNL     1      21.736   8.532  34.908  0.00  0.00    +0.037 C 
ATOM     15  C23 UNL     1      22.764   7.383  34.893  0.00  0.00    +0.005 C 
ATOM     16  C24 UNL     1      23.374   7.141  36.291  0.00  0.00    +0.006 C 
ATOM     17  C25 UNL     1      22.298   6.742  37.321  0.00  0.00    +0.053 C 
ATOM     18  H12 UNL     1      20.077   7.298  39.073  0.00  0.00    +0.166 HD
ENDBRANCH   2   5
BRANCH   3  19
ATOM     19  C2  UNL     1      14.636  12.609  35.213  0.00  0.00    +0.034 A 
ATOM     20  C3  UNL     1      14.498  13.666  36.122  0.00  0.00    +0.023 A 
ATOM     21  C4  UNL     1      13.738  14.788  35.789  0.00  0.00    +0.002 A 
ATOM     22  C5  UNL     1      13.119  14.874  34.540  0.00  0.00    +0.010 A 
ATOM     23  C6  UNL     1      13.263  13.836  33.601  0.00  0.00    +0.004 A 
ATOM     24  C13 UNL     1      14.031  12.708  33.946  0.00  0.00    +0.033 A 
BRANCH  23  25
ATOM     25  C7  UNL     1      12.627  13.914  32.262  0.00  0.00    +0.091 A 
ATOM     26  C8  UNL     1      11.401  13.364  31.888  0.00  0.00    +0.122 A 
ATOM     27  N2  UNL     1      11.215  13.671  30.598  0.00  0.00    -0.290 N 
ATOM     28  C9  UNL     1      10.194  13.380  29.758  0.00  0.00    +0.095 A 
ATOM     29  C10 UNL     1      10.282  13.845  28.439  0.00  0.00    +0.038 A 
ATOM     30  C11 UNL     1      11.418  14.586  28.056  0.00  0.00    +0.116 A 
ATOM     31  N3  UNL     1      12.412  14.844  28.954  0.00  0.00    -0.220 NA
ATOM     32  C12 UNL     1      12.289  14.375  30.221  0.00  0.00    +0.235 A 
ATOM     33  N4  UNL     1      13.190  14.555  31.204  0.00  0.00    -0.210 NA
ENDBRANCH  23  25
ENDBRANCH   3  19
TORSDOF 3
ENDMDL
MODEL 8
REMARK VINA RESULT:    -7.580      6.682     11.366
REMARK INTER + INTRA:          -9.485
REMARK INTER:                  -8.947
REMARK INTRA:                  -0.538
REMARK UNBOUND:                -0.576
REMARK  Name = /home/qwerty/github/datacon2025hack/step_04_hit_selection/docking/ligands/lig_115.pdb
REMARK  3 active torsions:
REMARK  status: ('A' for Active; 'I' for Inactive)
REMARK    1  A    between atoms: C1_2  and  C14_19
REMARK    2  A    between atoms: N1_3  and  C2_4
REMARK    3  A    between atoms: C6_8  and  C7_9
REMARK                            x       y       z     vdW  Elec       q    Type
REMARK                         _______ _______ _______ _____ _____    ______ ____
ROOT
ATOM      1  O1  UNL     1      16.208   6.774  21.202  0.00  0.00    -0.270 OA
ATOM      2  C1  UNL     1      16.624   6.596  20.024  0.00  0.00    +0.248 C 
ATOM      3  N1  UNL     1      15.877   5.759  19.125  0.00  0.00    -0.281 N 
ATOM      4  H1  UNL     1      15.921   5.974  18.103  0.00  0.00    +0.155 HD
ENDROOT
BRANCH   2   5
ATOM      5  C14 UNL     1      17.851   7.295  19.570  0.00  0.00    +0.038 A 
ATOM      6  C15 UNL     1      18.944   6.565  19.027  0.00  0.00    +0.015 A 
ATOM      7  C16 UNL     1      20.114   7.224  18.604  0.00  0.00    +0.027 A 
ATOM      8  C17 UNL     1      20.168   8.607  18.736  0.00  0.00    +0.047 A 
ATOM      9  N5  UNL     1      21.194   9.418  18.409  0.00  0.00    -0.358 N 
ATOM     10  C18 UNL     1      20.787  10.662  18.746  0.00  0.00    +0.020 A 
ATOM     11  C19 UNL     1      19.498  10.645  19.252  0.00  0.00    -0.019 A 
ATOM     12  C20 UNL     1      19.119   9.320  19.262  0.00  0.00    +0.004 A 
ATOM     13  C21 UNL     1      17.950   8.701  19.695  0.00  0.00    +0.023 A 
ATOM     14  C22 UNL     1      18.784  11.848  19.788  0.00  0.00    +0.037 C 
ATOM     15  C23 UNL     1      19.445  13.138  19.266  0.00  0.00    +0.005 C 
ATOM     16  C24 UNL     1      20.985  13.075  19.368  0.00  0.00    +0.006 C 
ATOM     17  C25 UNL     1      21.566  11.923  18.524  0.00  0.00    +0.053 C 
ATOM     18  H12 UNL     1      22.111   9.144  17.989  0.00  0.00    +0.166 HD
ENDBRANCH   2   5
BRANCH   3  19
ATOM     19  C2  UNL     1      14.952   4.747  19.561  0.00  0.00    +0.034 A 
ATOM     20  C3  UNL     1      15.400   3.431  19.724  0.00  0.00    +0.023 A 
ATOM     21  C4  UNL     1      14.525   2.436  20.163  0.00  0.00    +0.002 A 
ATOM     22  C5  UNL     1      13.196   2.748  20.458  0.00  0.00    +0.010 A 
ATOM     23  C6  UNL     1      12.727   4.068  20.324  0.00  0.00    +0.004 A 
ATOM     24  C13 UNL     1      13.618   5.064  19.880  0.00  0.00    +0.033 A 
BRANCH  23  25
ATOM     25  C7  UNL     1      11.323   4.424  20.647  0.00  0.00    +0.091 A 
ATOM     26  C8  UNL     1      10.634   5.561  20.224  0.00  0.00    +0.122 A 
ATOM     27  N2  UNL     1       9.402   5.483  20.744  0.00  0.00    -0.290 N 
ATOM     28  C9  UNL     1       8.345   6.323  20.643  0.00  0.00    +0.095 A 
ATOM     29  C10 UNL     1       7.164   5.969  21.310  0.00  0.00    +0.038 A 
ATOM     30  C11 UNL     1       7.137   4.768  22.047  0.00  0.00    +0.116 A 
ATOM     31  N3  UNL     1       8.240   3.967  22.109  0.00  0.00    -0.220 NA
ATOM     32  C12 UNL     1       9.362   4.346  21.449  0.00  0.00    +0.235 A 
ATOM     33  N4  UNL     1      10.516   3.655  21.424  0.00  0.00    -0.210 NA
ENDBRANCH  23  25
ENDBRANCH   3  19
TORSDOF 3
ENDMDL
MODEL 9
REMARK VINA RESULT:    -7.576     14.131     16.509
REMARK INTER + INTRA:          -9.481
REMARK INTER:                  -8.927
REMARK INTRA:                  -0.554
REMARK UNBOUND:                -0.576
REMARK  Name = /home/qwerty/github/datacon2025hack/step_04_hit_selection/docking/ligands/lig_115.pdb
REMARK  3 active torsions:
REMARK  status: ('A' for Active; 'I' for Inactive)
REMARK    1  A    between atoms: C1_2  and  C14_19
REMARK    2  A    between atoms: N1_3  and  C2_4
REMARK    3  A    between atoms: C6_8  and  C7_9
REMARK                            x       y       z     vdW  Elec       q    Type
REMARK                         _______ _______ _______ _____ _____    ______ ____
ROOT
ATOM      1  O1  UNL     1      20.606  10.283  29.732  0.00  0.00    -0.270 OA
ATOM      2  C1  UNL     1      21.257  10.857  30.647  0.00  0.00    +0.248 C 
ATOM      3  N1  UNL     1      21.185  12.287  30.782  0.00  0.00    -0.281 N 
ATOM      4  H1  UNL     1      21.300  12.695  31.738  0.00  0.00    +0.155 HD
ENDROOT
BRANCH   2   5
ATOM      5  C14 UNL     1      22.049  10.042  31.600  0.00  0.00    +0.038 A 
ATOM      6  C15 UNL     1      23.353   9.587  31.259  0.00  0.00    +0.015 A 
ATOM      7  C16 UNL     1      24.104   8.806  32.157  0.00  0.00    +0.027 A 
ATOM      8  C17 UNL     1      23.531   8.490  33.385  0.00  0.00    +0.047 A 
ATOM      9  N5  UNL     1      24.072   7.746  34.369  0.00  0.00    -0.358 N 
ATOM     10  C18 UNL     1      23.131   7.699  35.338  0.00  0.00    +0.020 A 
ATOM     11  C19 UNL     1      22.014   8.437  34.985  0.00  0.00    -0.019 A 
ATOM     12  C20 UNL     1      22.272   8.922  33.721  0.00  0.00    +0.004 A 
ATOM     13  C21 UNL     1      21.499   9.691  32.856  0.00  0.00    +0.023 A 
ATOM     14  C22 UNL     1      20.764   8.525  35.806  0.00  0.00    +0.037 C 
ATOM     15  C23 UNL     1      21.053   8.118  37.265  0.00  0.00    +0.005 C 
ATOM     16  C24 UNL     1      21.911   6.836  37.343  0.00  0.00    +0.006 C 
ATOM     17  C25 UNL     1      23.285   7.028  36.670  0.00  0.00    +0.053 C 
ATOM     18  H12 UNL     1      25.016   7.297  34.381  0.00  0.00    +0.166 HD
ENDBRANCH   2   5
BRANCH   3  19
ATOM     19  C2  UNL     1      20.807  13.171  29.713  0.00  0.00    +0.034 A 
ATOM     20  C3  UNL     1      19.611  13.894  29.810  0.00  0.00    +0.023 A 
ATOM     21  C4  UNL     1      19.232  14.772  28.794  0.00  0.00    +0.002 A 
ATOM     22  C5  UNL     1      20.050  14.949  27.676  0.00  0.00    +0.010 A 
ATOM     23  C6  UNL     1      21.267  14.252  27.566  0.00  0.00    +0.004 A 
ATOM     24  C13 UNL     1      21.640  13.368  28.596  0.00  0.00    +0.033 A 
BRANCH  23  25
ATOM     25  C7  UNL     1      22.159  14.437  26.394  0.00  0.00    +0.091 A 
ATOM     26  C8  UNL     1      22.953  15.551  26.118  0.00  0.00    +0.122 A 
ATOM     27  N2  UNL     1      23.591  15.298  24.969  0.00  0.00    -0.290 N 
ATOM     28  C9  UNL     1      24.473  16.045  24.264  0.00  0.00    +0.095 A 
ATOM     29  C10 UNL     1      24.981  15.505  23.074  0.00  0.00    +0.038 A 
ATOM     30  C11 UNL     1      24.551  14.223  22.674  0.00  0.00    +0.116 A 
ATOM     31  N3  UNL     1      23.658  13.524  23.432  0.00  0.00    -0.220 NA
ATOM     32  C12 UNL     1      23.191  14.082  24.576  0.00  0.00    +0.235 A 
ATOM     33  N4  UNL     1      22.310  13.506  25.415  0.00  0.00    -0.210 NA
ENDBRANCH  23  25
ENDBRANCH   3  19
TORSDOF 3
ENDMDL
