REMARK  Name = /home/qwerty/github/datacon2025hack/step_04_hit_selection/docking/ligands/lig_469.pdb
REMARK  8 active torsions:
REMARK  status: ('A' for Active; 'I' for Inactive)
REMARK    1  A    between atoms: C1_1  and  C2_2
REMARK    2  A    between atoms: C2_2  and  C3_3
REMARK    3  A    between atoms: C2_2  and  N1_4
REMARK    4  A    between atoms: C7_8  and  C8_9
REMARK    5  A    between atoms: N2_11  and  C9_12
REMARK    6  A    between atoms: C9_12  and  C10_13
REMARK    7  A    between atoms: C12_15  and  N3_16
REMARK    8  A    between atoms: C13_17  and  C14_19
REMARK                            x       y       z     vdW  Elec       q    Type
REMARK                         _______ _______ _______ _____ _____    ______ ____
ROOT
ATOM      1  C9  UNL     1       0.288  -1.812   1.027  0.00  0.00    +0.108 C 
ENDROOT
BRANCH   1   4
ATOM      2  C8  UNL     1      -1.202   0.152   0.383  0.00  0.00    +0.230 C 
ATOM      3  O1  UNL     1      -0.413   0.490  -0.542  0.00  0.00    -0.274 OA
ATOM      4  N2  UNL     1      -0.922  -1.007   1.183  0.00  0.00    -0.314 N 
ATOM      5  H15 UNL     1      -1.577  -1.253   1.959  0.00  0.00    +0.149 HD
BRANCH   2  10
ATOM      6  N1  UNL     1      -3.719   0.277   0.172  0.00  0.00    -0.289 NA
ATOM      7  C4  UNL     1      -4.697   1.371   0.040  0.00  0.00    +0.085 C 
ATOM      8  C5  UNL     1      -3.932   2.666  -0.217  0.00  0.00    +0.017 C 
ATOM      9  C6  UNL     1      -2.475   2.362   0.088  0.00  0.00    +0.029 C 
ATOM     10  C7  UNL     1      -2.476   0.934   0.633  0.00  0.00    +0.143 C 
BRANCH   6  12
ATOM     11  C1  UNL     1      -3.353   0.131  -2.351  0.00  0.00    +0.024 C 
ATOM     12  C2  UNL     1      -3.615  -0.611  -1.026  0.00  0.00    +0.051 C 
ATOM     13  C3  UNL     1      -4.857  -1.505  -1.141  0.00  0.00    +0.024 C 
ENDBRANCH   6  12
ENDBRANCH   2  10
ENDBRANCH   1   4
BRANCH   1  14
ATOM     14  C10 UNL     1       1.265  -1.526   2.178  0.00  0.00    +0.010 C 
ATOM     15  C11 UNL     1       2.597  -2.264   2.036  0.00  0.00    +0.027 C 
ATOM     16  C12 UNL     1       3.321  -0.924   1.912  0.00  0.00    +0.074 C 
ATOM     17  C17 UNL     1       1.993  -0.185   2.062  0.00  0.00    +0.027 C 
BRANCH  16  18
ATOM     18  N3  UNL     1       3.908  -0.729   0.583  0.00  0.00    -0.307 N 
ATOM     19  C13 UNL     1       5.088   0.066   0.379  0.00  0.00    +0.266 C 
ATOM     20  O2  UNL     1       5.717   0.535   1.367  0.00  0.00    -0.268 OA
ATOM     21  H22 UNL     1       3.380  -1.070  -0.253  0.00  0.00    +0.149 HD
BRANCH  19  22
ATOM     22  C14 UNL     1       5.576   0.337  -0.982  0.00  0.00    +0.168 A 
ATOM     23  C15 UNL     1       6.709   1.054  -1.313  0.00  0.00    +0.077 A 
ATOM     24  C16 UNL     1       6.726   1.024  -2.691  0.00  0.00    +0.231 A 
ATOM     25  O3  UNL     1       5.681   0.342  -3.107  0.00  0.00    -0.362 OA
ATOM     26  N4  UNL     1       4.966  -0.088  -2.107  0.00  0.00    -0.074 NA
ENDBRANCH  19  22
ENDBRANCH  16  18
ENDBRANCH   1  14
TORSDOF 6
