REMARK  Name = /home/qwerty/github/datacon2025hack/step_04_hit_selection/docking/ligands/lig_757.pdb
REMARK  9 active torsions:
REMARK  status: ('A' for Active; 'I' for Inactive)
REMARK    1  A    between atoms: C1_1  and  C2_2
REMARK    2  A    between atoms: C2_2  and  N1_3
REMARK    3  A    between atoms: N1_3  and  C3_4
REMARK    4  A    between atoms: C3_4  and  C4_5
REMARK    5  A    between atoms: C5_6  and  C6_8
REMARK    6  A    between atoms: C9_11  and  C10_12
REMARK    7  A    between atoms: C14_17  and  C15_18
REMARK    8  A    between atoms: N4_23  and  C19_24
REMARK    9  A    between atoms: C19_24  and  C20_25
REMARK                            x       y       z     vdW  Elec       q    Type
REMARK                         _______ _______ _______ _____ _____    ______ ____
ROOT
ATOM      1  C10 UNL     1      -1.996   1.154   0.713  0.00  0.00    +0.072 A 
ATOM      2  C11 UNL     1      -1.884   2.216   1.656  0.00  0.00    +0.030 A 
ATOM      3  C12 UNL     1      -0.636   2.524   2.227  0.00  0.00    +0.030 A 
ATOM      4  C13 UNL     1       0.456   1.764   1.828  0.00  0.00    +0.065 A 
ATOM      5  N2  UNL     1       1.733   1.868   2.231  0.00  0.00    -0.352 N 
ATOM      6  C14 UNL     1       2.410   0.905   1.548  0.00  0.00    +0.068 A 
ATOM      7  C24 UNL     1       1.550   0.195   0.707  0.00  0.00    +0.057 A 
ATOM      8  C25 UNL     1       0.318   0.766   0.913  0.00  0.00    +0.090 A 
ATOM      9  N6  UNL     1      -0.875   0.451   0.354  0.00  0.00    -0.245 NA
ATOM     10  H15 UNL     1       2.107   2.557   2.919  0.00  0.00    +0.166 HD
ENDROOT
BRANCH   6  11
ATOM     11  C15 UNL     1       3.860   0.639   1.673  0.00  0.00    +0.092 A 
ATOM     12  C16 UNL     1       4.656   1.295   2.625  0.00  0.00    +0.049 A 
ATOM     13  C17 UNL     1       6.014   0.985   2.690  0.00  0.00    +0.116 A 
ATOM     14  N3  UNL     1       6.542   0.067   1.842  0.00  0.00    -0.223 NA
ATOM     15  C18 UNL     1       5.766  -0.562   0.919  0.00  0.00    +0.216 A 
ATOM     16  N4  UNL     1       6.330  -1.529   0.024  0.00  0.00    -0.311 N 
ATOM     17  N5  UNL     1       4.439  -0.275   0.847  0.00  0.00    -0.213 NA
ATOM     18  H18 UNL     1       5.688  -2.061  -0.608  0.00  0.00    +0.149 HD
BRANCH  16  19
ATOM     19  C19 UNL     1       7.761  -1.832  -0.022  0.00  0.00    +0.136 C 
BRANCH  19  20
ATOM     20  C20 UNL     1       8.548  -0.687  -0.676  0.00  0.00    +0.135 C 
ATOM     21  C21 UNL     1       8.079  -0.398  -2.094  0.00  0.00    +0.035 C 
ATOM     22  C22 UNL     1       9.326   0.101  -2.751  0.00  0.00    +0.031 C 
ATOM     23  C23 UNL     1      10.428  -0.572  -1.955  0.00  0.00    +0.160 C 
ATOM     24  O2  UNL     1       9.918  -1.014  -0.715  0.00  0.00    -0.375 OA
ENDBRANCH  19  20
ENDBRANCH  16  19
ENDBRANCH   6  11
BRANCH   1  28
ATOM     25  C6  UNL     1      -5.755   0.043  -1.079  0.00  0.00    +0.037 A 
ATOM     26  C7  UNL     1      -5.728   0.628   0.197  0.00  0.00    +0.014 A 
ATOM     27  C8  UNL     1      -4.513   0.993   0.783  0.00  0.00    +0.011 A 
ATOM     28  C9  UNL     1      -3.299   0.795   0.099  0.00  0.00    +0.000 A 
ATOM     29  C26 UNL     1      -3.333   0.216  -1.183  0.00  0.00    +0.011 A 
ATOM     30  C27 UNL     1      -4.549  -0.148  -1.769  0.00  0.00    +0.014 A 
BRANCH  25  32
ATOM     31  N1  UNL     1      -8.159  -0.778  -0.912  0.00  0.00    -0.298 N 
ATOM     32  C5  UNL     1      -7.040  -0.337  -1.705  0.00  0.00    +0.247 C 
ATOM     33  O1  UNL     1      -7.162  -0.264  -2.959  0.00  0.00    -0.270 OA
BRANCH  31  35
ATOM     34  C1  UNL     1      -7.715  -3.180  -0.606  0.00  0.00    +0.024 C 
ATOM     35  C2  UNL     1      -7.983  -1.847   0.083  0.00  0.00    +0.104 C 
ENDBRANCH  31  35
BRANCH  31  36
ATOM     36  C3  UNL     1      -9.495  -0.235  -1.189  0.00  0.00    +0.104 C 
ATOM     37  C4  UNL     1      -9.595   1.203  -0.694  0.00  0.00    +0.024 C 
ENDBRANCH  31  36
ENDBRANCH  25  32
ENDBRANCH   1  28
TORSDOF 7
