MODEL 1
REMARK VINA RESULT:    -6.639      0.000      0.000
REMARK INTER + INTRA:          -7.904
REMARK INTER:                  -7.415
REMARK INTRA:                  -0.489
REMARK UNBOUND:                -0.489
REMARK  Name = /home/qwerty/github/datacon2025hack/step_04_hit_selection/docking/ligands/lig_195.pdb
REMARK  3 active torsions:
REMARK  status: ('A' for Active; 'I' for Inactive)
REMARK    1  A    between atoms: C1_1  and  N1_2
REMARK    2  A    between atoms: C4_5  and  C5_6
REMARK    3  A    between atoms: N3_15  and  C12_16
REMARK                            x       y       z     vdW  Elec       q    Type
REMARK                         _______ _______ _______ _____ _____    ______ ____
ROOT
ATOM      1  C5  UNL     1      22.279   5.749  33.223  0.00  0.00    +0.219 C 
ATOM      2  O1  UNL     1      23.358   5.763  33.876  0.00  0.00    -0.275 OA
ATOM      3  N2  UNL     1      22.087   4.767  32.188  0.00  0.00    -0.301 N 
ATOM      4  C6  UNL     1      22.708   3.448  32.308  0.00  0.00    +0.109 C 
ATOM      5  C7  UNL     1      21.703   2.390  31.876  0.00  0.00    +0.042 C 
ATOM      6  C8  UNL     1      21.119   2.662  30.473  0.00  0.00    +0.081 C 
ATOM      7  C9  UNL     1      20.672   4.116  30.244  0.00  0.00    +0.028 C 
ATOM      8  C10 UNL     1      20.689   4.235  28.715  0.00  0.00    +0.026 C 
ATOM      9  C11 UNL     1      21.817   3.305  28.263  0.00  0.00    +0.107 C 
ATOM     10  N3  UNL     1      22.035   2.387  29.374  0.00  0.00    -0.311 N 
ATOM     11  C16 UNL     1      21.639   5.164  30.852  0.00  0.00    +0.113 C 
ENDROOT
BRANCH   1  16
ATOM     12  C1  UNL     1      20.203   9.917  36.036  0.00  0.00    +0.104 C 
ATOM     13  N1  UNL     1      20.777   8.569  35.910  0.00  0.00    -0.305 NA
ATOM     14  C2  UNL     1      19.755   7.616  35.413  0.00  0.00    +0.085 C 
ATOM     15  C3  UNL     1      20.396   6.377  34.777  0.00  0.00    +0.028 C 
ATOM     16  C4  UNL     1      21.211   6.776  33.525  0.00  0.00    +0.078 C 
ATOM     17  C17 UNL     1      21.823   8.193  33.652  0.00  0.00    +0.028 C 
ATOM     18  C18 UNL     1      22.037   8.589  35.121  0.00  0.00    +0.085 C 
ENDBRANCH   1  16
BRANCH  10  19
ATOM     19  C12 UNL     1      22.732   1.143  29.214  0.00  0.00    +0.140 A 
ATOM     20  C13 UNL     1      24.129   1.083  29.303  0.00  0.00    +0.157 A 
ATOM     21  N4  UNL     1      24.758  -0.112  29.150  0.00  0.00    -0.223 NA
ATOM     22  C14 UNL     1      24.055  -1.253  28.919  0.00  0.00    +0.232 A 
ATOM     23  F1  UNL     1      24.704  -2.433  28.771  0.00  0.00    -0.182 F 
ATOM     24  C15 UNL     1      22.663  -1.196  28.834  0.00  0.00    +0.172 A 
ATOM     25  N5  UNL     1      22.033  -0.001  28.983  0.00  0.00    -0.234 NA
ENDBRANCH  10  19
TORSDOF 2
ENDMDL
MODEL 2
REMARK VINA RESULT:    -6.216     12.531     15.417
REMARK INTER + INTRA:          -7.432
REMARK INTER:                  -6.917
REMARK INTRA:                  -0.515
REMARK UNBOUND:                -0.489
REMARK  Name = /home/qwerty/github/datacon2025hack/step_04_hit_selection/docking/ligands/lig_195.pdb
REMARK  3 active torsions:
REMARK  status: ('A' for Active; 'I' for Inactive)
REMARK    1  A    between atoms: C1_1  and  N1_2
REMARK    2  A    between atoms: C4_5  and  C5_6
REMARK    3  A    between atoms: N3_15  and  C12_16
REMARK                            x       y       z     vdW  Elec       q    Type
REMARK                         _______ _______ _______ _____ _____    ______ ____
ROOT
ATOM      1  C5  UNL     1      12.527  13.058  33.830  0.00  0.00    +0.219 C 
ATOM      2  O1  UNL     1      12.154  13.931  34.661  0.00  0.00    -0.275 OA
ATOM      3  N2  UNL     1      11.757  12.840  32.634  0.00  0.00    -0.301 N 
ATOM      4  C6  UNL     1      11.032  13.951  32.018  0.00  0.00    +0.109 C 
ATOM      5  C7  UNL     1      11.215  13.882  30.509  0.00  0.00    +0.042 C 
ATOM      6  C8  UNL     1      10.829  12.507  29.925  0.00  0.00    +0.081 C 
ATOM      7  C9  UNL     1      11.395  11.306  30.704  0.00  0.00    +0.028 C 
ATOM      8  C10 UNL     1      10.450  10.169  30.298  0.00  0.00    +0.026 C 
ATOM      9  C11 UNL     1       9.096  10.846  30.073  0.00  0.00    +0.107 C 
ATOM     10  N3  UNL     1       9.395  12.257  29.864  0.00  0.00    -0.311 N 
ATOM     11  C16 UNL     1      11.347  11.489  32.243  0.00  0.00    +0.113 C 
ENDROOT
BRANCH   1  16
ATOM     12  C1  UNL     1      16.413  11.097  37.093  0.00  0.00    +0.104 C 
ATOM     13  N1  UNL     1      15.623  12.181  36.490  0.00  0.00    -0.305 NA
ATOM     14  C2  UNL     1      16.084  12.447  35.105  0.00  0.00    +0.085 C 
ATOM     15  C3  UNL     1      15.007  13.154  34.275  0.00  0.00    +0.028 C 
ATOM     16  C4  UNL     1      13.768  12.242  34.114  0.00  0.00    +0.078 C 
ATOM     17  C17 UNL     1      13.557  11.319  35.339  0.00  0.00    +0.028 C 
ATOM     18  C18 UNL     1      14.164  11.922  36.614  0.00  0.00    +0.085 C 
ENDBRANCH   1  16
BRANCH  10  19
ATOM     19  C12 UNL     1       8.458  13.157  29.255  0.00  0.00    +0.140 A 
ATOM     20  C13 UNL     1       8.461  13.371  27.871  0.00  0.00    +0.157 A 
ATOM     21  N4  UNL     1       7.557  14.227  27.325  0.00  0.00    -0.223 NA
ATOM     22  C14 UNL     1       6.646  14.875  28.098  0.00  0.00    +0.232 A 
ATOM     23  F1  UNL     1       5.754  15.724  27.532  0.00  0.00    -0.182 F 
ATOM     24  C15 UNL     1       6.638  14.660  29.478  0.00  0.00    +0.172 A 
ATOM     25  N5  UNL     1       7.544  13.806  30.024  0.00  0.00    -0.234 NA
ENDBRANCH  10  19
TORSDOF 2
ENDMDL
MODEL 3
REMARK VINA RESULT:    -6.212     14.847     17.924
REMARK INTER + INTRA:          -7.427
REMARK INTER:                  -6.909
REMARK INTRA:                  -0.518
REMARK UNBOUND:                -0.489
REMARK  Name = /home/qwerty/github/datacon2025hack/step_04_hit_selection/docking/ligands/lig_195.pdb
REMARK  3 active torsions:
REMARK  status: ('A' for Active; 'I' for Inactive)
REMARK    1  A    between atoms: C1_1  and  N1_2
REMARK    2  A    between atoms: C4_5  and  C5_6
REMARK    3  A    between atoms: N3_15  and  C12_16
REMARK                            x       y       z     vdW  Elec       q    Type
REMARK                         _______ _______ _______ _____ _____    ______ ____
ROOT
ATOM      1  C5  UNL     1       9.053   8.887  23.949  0.00  0.00    +0.219 C 
ATOM      2  O1  UNL     1       8.150   9.072  23.087  0.00  0.00    -0.275 OA
ATOM      3  N2  UNL     1       9.153   9.778  25.075  0.00  0.00    -0.301 N 
ATOM      4  C6  UNL     1       7.949  10.401  25.624  0.00  0.00    +0.109 C 
ATOM      5  C7  UNL     1       8.020  10.357  27.144  0.00  0.00    +0.042 C 
ATOM      6  C8  UNL     1       9.325  10.967  27.696  0.00  0.00    +0.081 C 
ATOM      7  C9  UNL     1      10.600  10.500  26.971  0.00  0.00    +0.028 C 
ATOM      8  C10 UNL     1      11.599  11.616  27.298  0.00  0.00    +0.026 C 
ATOM      9  C11 UNL     1      10.748  12.884  27.404  0.00  0.00    +0.107 C 
ATOM     10  N3  UNL     1       9.385  12.422  27.634  0.00  0.00    -0.311 N 
ATOM     11  C16 UNL     1      10.433  10.393  25.433  0.00  0.00    +0.113 C 
ENDROOT
BRANCH   1  16
ATOM     12  C1  UNL     1      11.686   5.154  20.997  0.00  0.00    +0.104 C 
ATOM     13  N1  UNL     1      10.476   5.827  21.491  0.00  0.00    -0.305 NA
ATOM     14  C2  UNL     1      10.168   5.388  22.874  0.00  0.00    +0.085 C 
ATOM     15  C3  UNL     1       9.282   6.400  23.608  0.00  0.00    +0.028 C 
ATOM     16  C4  UNL     1      10.028   7.745  23.775  0.00  0.00    +0.078 C 
ATOM     17  C17 UNL     1      11.005   8.022  22.606  0.00  0.00    +0.028 C 
ATOM     18  C18 UNL     1      10.570   7.302  21.321  0.00  0.00    +0.085 C 
ENDBRANCH   1  16
BRANCH  10  19
ATOM     19  C12 UNL     1       8.363  13.281  28.158  0.00  0.00    +0.140 A 
ATOM     20  C13 UNL     1       8.082  13.312  29.531  0.00  0.00    +0.157 A 
ATOM     21  N4  UNL     1       7.109  14.141  29.995  0.00  0.00    -0.223 NA
ATOM     22  C14 UNL     1       6.408  14.945  29.152  0.00  0.00    +0.232 A 
ATOM     23  F1  UNL     1       5.443  15.762  29.639  0.00  0.00    -0.182 F 
ATOM     24  C15 UNL     1       6.689  14.918  27.785  0.00  0.00    +0.172 A 
ATOM     25  N5  UNL     1       7.660  14.088  27.319  0.00  0.00    -0.234 NA
ENDBRANCH  10  19
TORSDOF 2
ENDMDL
MODEL 4
REMARK VINA RESULT:    -6.088      6.106      9.528
REMARK INTER + INTRA:          -7.290
REMARK INTER:                  -6.766
REMARK INTRA:                  -0.523
REMARK UNBOUND:                -0.489
REMARK  Name = /home/qwerty/github/datacon2025hack/step_04_hit_selection/docking/ligands/lig_195.pdb
REMARK  3 active torsions:
REMARK  status: ('A' for Active; 'I' for Inactive)
REMARK    1  A    between atoms: C1_1  and  N1_2
REMARK    2  A    between atoms: C4_5  and  C5_6
REMARK    3  A    between atoms: N3_15  and  C12_16
REMARK                            x       y       z     vdW  Elec       q    Type
REMARK                         _______ _______ _______ _____ _____    ______ ____
ROOT
ATOM      1  C5  UNL     1      17.100  -0.053  24.752  0.00  0.00    +0.219 C 
ATOM      2  O1  UNL     1      17.245  -1.184  24.212  0.00  0.00    -0.275 OA
ATOM      3  N2  UNL     1      18.045   0.386  25.745  0.00  0.00    -0.301 N 
ATOM      4  C6  UNL     1      19.441  -0.042  25.666  0.00  0.00    +0.109 C 
ATOM      5  C7  UNL     1      20.340   1.146  25.976  0.00  0.00    +0.042 C 
ATOM      6  C8  UNL     1      19.987   1.824  27.316  0.00  0.00    +0.081 C 
ATOM      7  C9  UNL     1      18.483   2.074  27.525  0.00  0.00    +0.028 C 
ATOM      8  C10 UNL     1      18.371   2.196  29.049  0.00  0.00    +0.026 C 
ATOM      9  C11 UNL     1      19.459   1.270  29.597  0.00  0.00    +0.107 C 
ATOM     10  N3  UNL     1      20.397   1.076  28.498  0.00  0.00    -0.311 N 
ATOM     11  C16 UNL     1      17.588   0.906  27.036  0.00  0.00    +0.113 C 
ENDROOT
BRANCH   1  16
ATOM     12  C1  UNL     1      13.217   1.615  21.326  0.00  0.00    +0.104 C 
ATOM     13  N1  UNL     1      14.610   1.321  21.695  0.00  0.00    -0.305 NA
ATOM     14  C2  UNL     1      15.158   2.402  22.550  0.00  0.00    +0.085 C 
ATOM     15  C3  UNL     1      16.359   1.922  23.373  0.00  0.00    +0.028 C 
ATOM     16  C4  UNL     1      15.925   0.815  24.361  0.00  0.00    +0.078 C 
ATOM     17  C17 UNL     1      14.762  -0.042  23.806  0.00  0.00    +0.028 C 
ATOM     18  C18 UNL     1      14.741  -0.044  22.270  0.00  0.00    +0.085 C 
ENDBRANCH   1  16
BRANCH  10  19
ATOM     19  C12 UNL     1      21.731   0.591  28.706  0.00  0.00    +0.140 A 
ATOM     20  C13 UNL     1      22.792   1.476  28.939  0.00  0.00    +0.157 A 
ATOM     21  N4  UNL     1      24.043   0.982  29.136  0.00  0.00    -0.223 NA
ATOM     22  C14 UNL     1      24.283  -0.355  29.117  0.00  0.00    +0.232 A 
ATOM     23  F1  UNL     1      25.539  -0.824  29.316  0.00  0.00    -0.182 F 
ATOM     24  C15 UNL     1      23.227  -1.239  28.890  0.00  0.00    +0.172 A 
ATOM     25  N5  UNL     1      21.976  -0.747  28.689  0.00  0.00    -0.234 NA
ENDBRANCH  10  19
TORSDOF 2
ENDMDL
MODEL 5
REMARK VINA RESULT:    -6.036     12.333     15.538
REMARK INTER + INTRA:          -7.231
REMARK INTER:                  -6.787
REMARK INTRA:                  -0.443
REMARK UNBOUND:                -0.489
REMARK  Name = /home/qwerty/github/datacon2025hack/step_04_hit_selection/docking/ligands/lig_195.pdb
REMARK  3 active torsions:
REMARK  status: ('A' for Active; 'I' for Inactive)
REMARK    1  A    between atoms: C1_1  and  N1_2
REMARK    2  A    between atoms: C4_5  and  C5_6
REMARK    3  A    between atoms: N3_15  and  C12_16
REMARK                            x       y       z     vdW  Elec       q    Type
REMARK                         _______ _______ _______ _____ _____    ______ ____
ROOT
ATOM      1  C5  UNL     1      14.451   1.335  22.810  0.00  0.00    +0.219 C 
ATOM      2  O1  UNL     1      15.332   2.217  23.007  0.00  0.00    -0.275 OA
ATOM      3  N2  UNL     1      13.073   1.727  22.672  0.00  0.00    -0.301 N 
ATOM      4  C6  UNL     1      12.736   3.022  22.083  0.00  0.00    +0.109 C 
ATOM      5  C7  UNL     1      11.561   2.841  21.132  0.00  0.00    +0.042 C 
ATOM      6  C8  UNL     1      10.357   2.147  21.802  0.00  0.00    +0.081 C 
ATOM      7  C9  UNL     1      10.722   0.902  22.630  0.00  0.00    +0.028 C 
ATOM      8  C10 UNL     1       9.529   0.772  23.584  0.00  0.00    +0.026 C 
ATOM      9  C11 UNL     1       9.068   2.210  23.831  0.00  0.00    +0.107 C 
ATOM     10  N3  UNL     1       9.609   2.990  22.726  0.00  0.00    -0.311 N 
ATOM     11  C16 UNL     1      12.024   1.068  23.454  0.00  0.00    +0.113 C 
ENDROOT
BRANCH   1  16
ATOM     12  C1  UNL     1      17.363  -2.979  24.390  0.00  0.00    +0.104 C 
ATOM     13  N1  UNL     1      17.211  -1.600  23.903  0.00  0.00    -0.305 NA
ATOM     14  C2  UNL     1      16.887  -1.595  22.455  0.00  0.00    +0.085 C 
ATOM     15  C3  UNL     1      16.217  -0.284  22.029  0.00  0.00    +0.028 C 
ATOM     16  C4  UNL     1      14.855  -0.120  22.742  0.00  0.00    +0.078 C 
ATOM     17  C17 UNL     1      14.849  -0.765  24.149  0.00  0.00    +0.028 C 
ATOM     18  C18 UNL     1      16.261  -0.829  24.749  0.00  0.00    +0.085 C 
ENDBRANCH   1  16
BRANCH  10  19
ATOM     19  C12 UNL     1       9.103   4.288  22.383  0.00  0.00    +0.140 A 
ATOM     20  C13 UNL     1       9.561   5.436  23.042  0.00  0.00    +0.157 A 
ATOM     21  N4  UNL     1       9.063   6.652  22.689  0.00  0.00    -0.223 NA
ATOM     22  C14 UNL     1       8.133   6.773  21.705  0.00  0.00    +0.232 A 
ATOM     23  F1  UNL     1       7.652   7.995  21.372  0.00  0.00    -0.182 F 
ATOM     24  C15 UNL     1       7.679   5.630  21.045  0.00  0.00    +0.172 A 
ATOM     25  N5  UNL     1       8.174   4.414  21.399  0.00  0.00    -0.234 NA
ENDBRANCH  10  19
TORSDOF 2
ENDMDL
MODEL 6
REMARK VINA RESULT:    -5.876     11.221     13.475
REMARK INTER + INTRA:          -7.052
REMARK INTER:                  -6.563
REMARK INTRA:                  -0.489
REMARK UNBOUND:                -0.489
REMARK  Name = /home/qwerty/github/datacon2025hack/step_04_hit_selection/docking/ligands/lig_195.pdb
REMARK  3 active torsions:
REMARK  status: ('A' for Active; 'I' for Inactive)
REMARK    1  A    between atoms: C1_1  and  N1_2
REMARK    2  A    between atoms: C4_5  and  C5_6
REMARK    3  A    between atoms: N3_15  and  C12_16
REMARK                            x       y       z     vdW  Elec       q    Type
REMARK                         _______ _______ _______ _____ _____    ______ ____
ROOT
ATOM      1  C5  UNL     1      11.381   3.805  22.824  0.00  0.00    +0.219 C 
ATOM      2  O1  UNL     1      11.186   4.094  24.037  0.00  0.00    -0.275 OA
ATOM      3  N2  UNL     1      12.471   2.934  22.468  0.00  0.00    -0.301 N 
ATOM      4  C6  UNL     1      12.898   1.882  23.389  0.00  0.00    +0.109 C 
ATOM      5  C7  UNL     1      13.164   0.611  22.595  0.00  0.00    +0.042 C 
ATOM      6  C8  UNL     1      14.148   0.833  21.429  0.00  0.00    +0.081 C 
ATOM      7  C9  UNL     1      13.852   2.081  20.578  0.00  0.00    +0.028 C 
ATOM      8  C10 UNL     1      15.207   2.367  19.920  0.00  0.00    +0.026 C 
ATOM      9  C11 UNL     1      16.245   1.908  20.946  0.00  0.00    +0.107 C 
ATOM     10  N3  UNL     1      15.539   0.993  21.834  0.00  0.00    -0.311 N 
ATOM     11  C16 UNL     1      13.416   3.311  21.415  0.00  0.00    +0.113 C 
ENDROOT
BRANCH   1  16
ATOM     12  C1  UNL     1       7.306   6.985  21.128  0.00  0.00    +0.104 C 
ATOM     13  N1  UNL     1       7.889   5.925  21.964  0.00  0.00    -0.305 NA
ATOM     14  C2  UNL     1       8.033   4.671  21.184  0.00  0.00    +0.085 C 
ATOM     15  C3  UNL     1       9.077   3.735  21.802  0.00  0.00    +0.028 C 
ATOM     16  C4  UNL     1      10.477   4.391  21.764  0.00  0.00    +0.078 C 
ATOM     17  C17 UNL     1      10.405   5.933  21.886  0.00  0.00    +0.028 C 
ATOM     18  C18 UNL     1       9.137   6.384  22.628  0.00  0.00    +0.085 C 
ENDBRANCH   1  16
BRANCH  10  19
ATOM     19  C12 UNL     1      16.229   0.067  22.685  0.00  0.00    +0.140 A 
ATOM     20  C13 UNL     1      16.568  -1.215  22.230  0.00  0.00    +0.157 A 
ATOM     21  N4  UNL     1      17.225  -2.067  23.061  0.00  0.00    -0.223 NA
ATOM     22  C14 UNL     1      17.564  -1.696  24.324  0.00  0.00    +0.232 A 
ATOM     23  F1  UNL     1      18.219  -2.563  25.134  0.00  0.00    -0.182 F 
ATOM     24  C15 UNL     1      17.231  -0.418  24.778  0.00  0.00    +0.172 A 
ATOM     25  N5  UNL     1      16.571   0.433  23.949  0.00  0.00    -0.234 NA
ENDBRANCH  10  19
TORSDOF 2
ENDMDL
MODEL 7
REMARK VINA RESULT:    -5.810      6.154      9.053
REMARK INTER + INTRA:          -6.978
REMARK INTER:                  -6.507
REMARK INTRA:                  -0.471
REMARK UNBOUND:                -0.489
REMARK  Name = /home/qwerty/github/datacon2025hack/step_04_hit_selection/docking/ligands/lig_195.pdb
REMARK  3 active torsions:
REMARK  status: ('A' for Active; 'I' for Inactive)
REMARK    1  A    between atoms: C1_1  and  N1_2
REMARK    2  A    between atoms: C4_5  and  C5_6
REMARK    3  A    between atoms: N3_15  and  C12_16
REMARK                            x       y       z     vdW  Elec       q    Type
REMARK                         _______ _______ _______ _____ _____    ______ ____
ROOT
ATOM      1  C5  UNL     1      16.504  10.805  35.612  0.00  0.00    +0.219 C 
ATOM      2  O1  UNL     1      16.656  11.324  34.473  0.00  0.00    -0.275 OA
ATOM      3  N2  UNL     1      17.426   9.795  36.061  0.00  0.00    -0.301 N 
ATOM      4  C6  UNL     1      18.821   9.831  35.624  0.00  0.00    +0.109 C 
ATOM      5  C7  UNL     1      19.719   9.516  36.812  0.00  0.00    +0.042 C 
ATOM      6  C8  UNL     1      19.336   8.196  37.512  0.00  0.00    +0.081 C 
ATOM      7  C9  UNL     1      17.828   8.030  37.773  0.00  0.00    +0.028 C 
ATOM      8  C10 UNL     1      17.678   6.511  37.920  0.00  0.00    +0.026 C 
ATOM      9  C11 UNL     1      18.746   5.922  36.995  0.00  0.00    +0.107 C 
ATOM     10  N3  UNL     1      19.711   6.992  36.780  0.00  0.00    -0.311 N 
ATOM     11  C16 UNL     1      16.939   8.524  36.603  0.00  0.00    +0.113 C 
ENDROOT
BRANCH   1  16
ATOM     12  C1  UNL     1      11.432  12.603  36.405  0.00  0.00    +0.104 C 
ATOM     13  N1  UNL     1      12.780  12.679  35.822  0.00  0.00    -0.305 NA
ATOM     14  C2  UNL     1      13.752  13.170  36.829  0.00  0.00    +0.085 C 
ATOM     15  C3  UNL     1      15.189  12.778  36.469  0.00  0.00    +0.028 C 
ATOM     16  C4  UNL     1      15.346  11.240  36.481  0.00  0.00    +0.078 C 
ATOM     17  C17 UNL     1      14.041  10.515  36.069  0.00  0.00    +0.028 C 
ATOM     18  C18 UNL     1      13.161  11.398  35.172  0.00  0.00    +0.085 C 
ENDBRANCH   1  16
BRANCH  10  19
ATOM     19  C12 UNL     1      21.036   6.743  36.290  0.00  0.00    +0.140 A 
ATOM     20  C13 UNL     1      21.253   6.384  34.953  0.00  0.00    +0.157 A 
ATOM     21  N4  UNL     1      22.522   6.159  34.519  0.00  0.00    -0.223 NA
ATOM     22  C14 UNL     1      23.584   6.280  35.358  0.00  0.00    +0.232 A 
ATOM     23  F1  UNL     1      24.840   6.050  34.903  0.00  0.00    -0.182 F 
ATOM     24  C15 UNL     1      23.370   6.641  36.690  0.00  0.00    +0.172 A 
ATOM     25  N5  UNL     1      22.101   6.864  37.125  0.00  0.00    -0.234 NA
ENDBRANCH  10  19
TORSDOF 2
ENDMDL
MODEL 8
REMARK VINA RESULT:    -5.803      4.613      8.133
REMARK INTER + INTRA:          -6.971
REMARK INTER:                  -6.483
REMARK INTRA:                  -0.487
REMARK UNBOUND:                -0.489
REMARK  Name = /home/qwerty/github/datacon2025hack/step_04_hit_selection/docking/ligands/lig_195.pdb
REMARK  3 active torsions:
REMARK  status: ('A' for Active; 'I' for Inactive)
REMARK    1  A    between atoms: C1_1  and  N1_2
REMARK    2  A    between atoms: C4_5  and  C5_6
REMARK    3  A    between atoms: N3_15  and  C12_16
REMARK                            x       y       z     vdW  Elec       q    Type
REMARK                         _______ _______ _______ _____ _____    ______ ____
ROOT
ATOM      1  C5  UNL     1      20.725   4.594  25.881  0.00  0.00    +0.219 C 
ATOM      2  O1  UNL     1      20.120   5.684  26.074  0.00  0.00    -0.275 OA
ATOM      3  N2  UNL     1      20.845   3.648  26.959  0.00  0.00    -0.301 N 
ATOM      4  C6  UNL     1      19.793   3.553  27.970  0.00  0.00    +0.109 C 
ATOM      5  C7  UNL     1      19.526   2.084  28.267  0.00  0.00    +0.042 C 
ATOM      6  C8  UNL     1      20.807   1.313  28.650  0.00  0.00    +0.081 C 
ATOM      7  C9  UNL     1      22.008   1.582  27.726  0.00  0.00    +0.028 C 
ATOM      8  C10 UNL     1      23.201   1.191  28.607  0.00  0.00    +0.026 C 
ATOM      9  C11 UNL     1      22.762   1.529  30.033  0.00  0.00    +0.107 C 
ATOM     10  N3  UNL     1      21.307   1.598  29.988  0.00  0.00    -0.311 N 
ATOM     11  C16 UNL     1      22.145   3.068  27.306  0.00  0.00    +0.113 C 
ENDROOT
BRANCH   1  16
ATOM     12  C1  UNL     1      21.890   5.846  20.717  0.00  0.00    +0.104 C 
ATOM     13  N1  UNL     1      20.973   5.651  21.850  0.00  0.00    -0.305 NA
ATOM     14  C2  UNL     1      20.727   4.205  22.074  0.00  0.00    +0.085 C 
ATOM     15  C3  UNL     1      20.239   3.927  23.499  0.00  0.00    +0.028 C 
ATOM     16  C4  UNL     1      21.331   4.308  24.526  0.00  0.00    +0.078 C 
ATOM     17  C17 UNL     1      22.198   5.497  24.043  0.00  0.00    +0.028 C 
ATOM     18  C18 UNL     1      21.435   6.390  23.054  0.00  0.00    +0.085 C 
ENDBRANCH   1  16
BRANCH  10  19
ATOM     19  C12 UNL     1      20.499   1.518  31.171  0.00  0.00    +0.140 A 
ATOM     20  C13 UNL     1      20.275   2.648  31.968  0.00  0.00    +0.157 A 
ATOM     21  N4  UNL     1      19.501   2.539  33.080  0.00  0.00    -0.223 NA
ATOM     22  C14 UNL     1      18.935   1.353  33.430  0.00  0.00    +0.232 A 
ATOM     23  F1  UNL     1      18.168   1.269  34.544  0.00  0.00    -0.182 F 
ATOM     24  C15 UNL     1      19.154   0.227  32.635  0.00  0.00    +0.172 A 
ATOM     25  N5  UNL     1      19.931   0.335  31.524  0.00  0.00    -0.234 NA
ENDBRANCH  10  19
TORSDOF 2
ENDMDL
MODEL 9
REMARK VINA RESULT:    -5.731      7.690     12.130
REMARK INTER + INTRA:          -6.891
REMARK INTER:                  -6.394
REMARK INTRA:                  -0.496
REMARK UNBOUND:                -0.489
REMARK  Name = /home/qwerty/github/datacon2025hack/step_04_hit_selection/docking/ligands/lig_195.pdb
REMARK  3 active torsions:
REMARK  status: ('A' for Active; 'I' for Inactive)
REMARK    1  A    between atoms: C1_1  and  N1_2
REMARK    2  A    between atoms: C4_5  and  C5_6
REMARK    3  A    between atoms: N3_15  and  C12_16
REMARK                            x       y       z     vdW  Elec       q    Type
REMARK                         _______ _______ _______ _____ _____    ______ ____
ROOT
ATOM      1  C5  UNL     1      18.493   8.594  36.102  0.00  0.00    +0.219 C 
ATOM      2  O1  UNL     1      17.935   7.497  35.823  0.00  0.00    -0.275 OA
ATOM      3  N2  UNL     1      17.745   9.819  35.989  0.00  0.00    -0.301 N 
ATOM      4  C6  UNL     1      16.304   9.823  36.239  0.00  0.00    +0.109 C 
ATOM      5  C7  UNL     1      15.950  11.053  37.062  0.00  0.00    +0.042 C 
ATOM      6  C8  UNL     1      16.459  12.362  36.423  0.00  0.00    +0.081 C 
ATOM      7  C9  UNL     1      17.917  12.304  35.934  0.00  0.00    +0.028 C 
ATOM      8  C10 UNL     1      17.967  13.433  34.897  0.00  0.00    +0.026 C 
ATOM      9  C11 UNL     1      16.563  13.471  34.291  0.00  0.00    +0.107 C 
ATOM     10  N3  UNL     1      15.702  12.800  35.257  0.00  0.00    -0.311 N 
ATOM     11  C16 UNL     1      18.288  10.962  35.251  0.00  0.00    +0.113 C 
ENDROOT
BRANCH   1  16
ATOM     12  C1  UNL     1      23.581   6.672  36.087  0.00  0.00    +0.104 C 
ATOM     13  N1  UNL     1      22.127   6.546  36.261  0.00  0.00    -0.305 NA
ATOM     14  C2  UNL     1      21.709   7.123  37.563  0.00  0.00    +0.085 C 
ATOM     15  C3  UNL     1      20.222   7.493  37.568  0.00  0.00    +0.028 C 
ATOM     16  C4  UNL     1      19.942   8.606  36.531  0.00  0.00    +0.078 C 
ATOM     17  C17 UNL     1      20.885   8.516  35.307  0.00  0.00    +0.028 C 
ATOM     18  C18 UNL     1      21.392   7.083  35.086  0.00  0.00    +0.085 C 
ENDBRANCH   1  16
BRANCH  10  19
ATOM     19  C12 UNL     1      14.276  12.952  35.248  0.00  0.00    +0.140 A 
ATOM     20  C13 UNL     1      13.662  14.020  35.915  0.00  0.00    +0.157 A 
ATOM     21  N4  UNL     1      12.308  14.138  35.884  0.00  0.00    -0.223 NA
ATOM     22  C14 UNL     1      11.539  13.241  35.212  0.00  0.00    +0.232 A 
ATOM     23  F1  UNL     1      10.191  13.378  35.195  0.00  0.00    -0.182 F 
ATOM     24  C15 UNL     1      12.149  12.178  34.544  0.00  0.00    +0.172 A 
ATOM     25  N5  UNL     1      13.503  12.058  34.577  0.00  0.00    -0.234 NA
ENDBRANCH  10  19
TORSDOF 2
ENDMDL
