MODEL 1
REMARK VINA RESULT:    -6.050      0.000      0.000
REMARK INTER + INTRA:          -7.878
REMARK INTER:                  -7.465
REMARK INTRA:                  -0.413
REMARK UNBOUND:                -0.413
REMARK  Name = /home/qwerty/github/datacon2025hack/step_04_hit_selection/docking/ligands/lig_694.pdb
REMARK  4 active torsions:
REMARK  status: ('A' for Active; 'I' for Inactive)
REMARK    1  A    between atoms: C1_2  and  C10_15
REMARK    2  A    between atoms: N1_3  and  C2_4
REMARK    3  A    between atoms: N2_7  and  C5_8
REMARK    4  A    between atoms: C5_8  and  C6_9
REMARK                            x       y       z     vdW  Elec       q    Type
REMARK                         _______ _______ _______ _____ _____    ______ ____
ROOT
ATOM      1  O1  UNL     1      20.109   8.337  37.823  0.00  0.00    -0.270 OA
ATOM      2  C1  UNL     1      20.644   8.832  36.793  0.00  0.00    +0.244 C 
ATOM      3  N1  UNL     1      20.152  10.074  36.264  0.00  0.00    -0.307 N 
ATOM      4  H1  UNL     1      20.382  10.324  35.275  0.00  0.00    +0.149 HD
ENDROOT
BRANCH   2   5
ATOM      5  C10 UNL     1      21.759   8.109  36.135  0.00  0.00    +0.038 A 
ATOM      6  C11 UNL     1      22.335   6.957  36.731  0.00  0.00    +0.015 A 
ATOM      7  C12 UNL     1      23.387   6.270  36.103  0.00  0.00    +0.029 A 
ATOM      8  C13 UNL     1      23.857   6.736  34.876  0.00  0.00    +0.078 A 
ATOM      9  N4  UNL     1      24.865   6.162  34.171  0.00  0.00    -0.247 NA
ATOM     10  C14 UNL     1      25.099   6.830  33.015  0.00  0.00    +0.157 A 
ATOM     11  S1  UNL     1      24.062   8.156  32.833  0.00  0.00    -0.075 S 
ATOM     12  C15 UNL     1      23.289   7.853  34.290  0.00  0.00    +0.040 A 
ATOM     13  C16 UNL     1      22.245   8.554  34.886  0.00  0.00    +0.030 A 
ENDBRANCH   2   5
BRANCH   3  14
ATOM     14  C2  UNL     1      19.115  10.851  36.951  0.00  0.00    +0.088 C 
ATOM     15  C3  UNL     1      19.171  12.323  36.559  0.00  0.00    +0.039 C 
ATOM     16  C4  UNL     1      17.859  12.591  35.840  0.00  0.00    +0.086 C 
ATOM     17  N2  UNL     1      16.898  11.562  36.260  0.00  0.00    -0.295 NA
ATOM     18  C9  UNL     1      17.720  10.375  36.543  0.00  0.00    +0.107 C 
BRANCH  17  19
ATOM     19  C5  UNL     1      16.144  11.998  37.456  0.00  0.00    +0.143 C 
BRANCH  19  20
ATOM     20  C6  UNL     1      14.773  12.462  37.068  0.00  0.00    +0.097 A 
ATOM     21  C7  UNL     1      13.669  11.661  36.867  0.00  0.00    +0.068 A 
ATOM     22  C8  UNL     1      12.679  12.552  36.516  0.00  0.00    +0.230 A 
ATOM     23  O2  UNL     1      13.188  13.763  36.517  0.00  0.00    -0.363 OA
ATOM     24  N3  UNL     1      14.448  13.749  36.844  0.00  0.00    -0.082 NA
ENDBRANCH  19  20
ENDBRANCH  17  19
ENDBRANCH   3  14
TORSDOF 4
ENDMDL
MODEL 2
REMARK VINA RESULT:    -5.979     11.804     14.665
REMARK INTER + INTRA:          -7.790
REMARK INTER:                  -7.300
REMARK INTRA:                  -0.490
REMARK UNBOUND:                -0.413
REMARK  Name = /home/qwerty/github/datacon2025hack/step_04_hit_selection/docking/ligands/lig_694.pdb
REMARK  4 active torsions:
REMARK  status: ('A' for Active; 'I' for Inactive)
REMARK    1  A    between atoms: C1_2  and  C10_15
REMARK    2  A    between atoms: N1_3  and  C2_4
REMARK    3  A    between atoms: N2_7  and  C5_8
REMARK    4  A    between atoms: C5_8  and  C6_9
REMARK                            x       y       z     vdW  Elec       q    Type
REMARK                         _______ _______ _______ _____ _____    ______ ____
ROOT
ATOM      1  O1  UNL     1      23.215   5.396  25.291  0.00  0.00    -0.270 OA
ATOM      2  C1  UNL     1      22.200   4.869  24.759  0.00  0.00    +0.244 C 
ATOM      3  N1  UNL     1      21.477   3.848  25.466  0.00  0.00    -0.307 N 
ATOM      4  H1  UNL     1      20.840   3.218  24.926  0.00  0.00    +0.149 HD
ENDROOT
BRANCH   2   5
ATOM      5  C10 UNL     1      21.784   5.300  23.403  0.00  0.00    +0.038 A 
ATOM      6  C11 UNL     1      20.744   4.628  22.710  0.00  0.00    +0.015 A 
ATOM      7  C12 UNL     1      20.347   5.042  21.428  0.00  0.00    +0.029 A 
ATOM      8  C13 UNL     1      20.990   6.132  20.844  0.00  0.00    +0.078 A 
ATOM      9  N4  UNL     1      20.699   6.628  19.614  0.00  0.00    -0.247 NA
ATOM     10  C14 UNL     1      21.483   7.692  19.315  0.00  0.00    +0.157 A 
ATOM     11  S1  UNL     1      22.563   8.051  20.569  0.00  0.00    -0.075 S 
ATOM     12  C15 UNL     1      21.997   6.794  21.523  0.00  0.00    +0.040 A 
ATOM     13  C16 UNL     1      22.411   6.409  22.794  0.00  0.00    +0.030 A 
ENDBRANCH   2   5
BRANCH   3  14
ATOM     14  C2  UNL     1      21.814   3.475  26.844  0.00  0.00    +0.088 C 
ATOM     15  C3  UNL     1      20.725   3.906  27.820  0.00  0.00    +0.039 C 
ATOM     16  C4  UNL     1      20.165   2.610  28.386  0.00  0.00    +0.086 C 
ATOM     17  N2  UNL     1      21.182   1.565  28.207  0.00  0.00    -0.295 NA
ATOM     18  C9  UNL     1      21.908   1.955  26.987  0.00  0.00    +0.107 C 
BRANCH  17  19
ATOM     19  C5  UNL     1      22.083   1.497  29.377  0.00  0.00    +0.143 C 
BRANCH  19  20
ATOM     20  C6  UNL     1      23.098   0.411  29.192  0.00  0.00    +0.097 A 
ATOM     21  C7  UNL     1      22.833  -0.922  28.961  0.00  0.00    +0.068 A 
ATOM     22  C8  UNL     1      24.083  -1.495  28.883  0.00  0.00    +0.230 A 
ATOM     23  O2  UNL     1      24.984  -0.556  29.059  0.00  0.00    -0.363 OA
ATOM     24  N3  UNL     1      24.429   0.607  29.249  0.00  0.00    -0.082 NA
ENDBRANCH  19  20
ENDBRANCH  17  19
ENDBRANCH   3  14
TORSDOF 4
ENDMDL
MODEL 3
REMARK VINA RESULT:    -5.729     12.307     15.023
REMARK INTER + INTRA:          -7.481
REMARK INTER:                  -7.049
REMARK INTRA:                  -0.432
REMARK UNBOUND:                -0.413
REMARK  Name = /home/qwerty/github/datacon2025hack/step_04_hit_selection/docking/ligands/lig_694.pdb
REMARK  4 active torsions:
REMARK  status: ('A' for Active; 'I' for Inactive)
REMARK    1  A    between atoms: C1_2  and  C10_15
REMARK    2  A    between atoms: N1_3  and  C2_4
REMARK    3  A    between atoms: N2_7  and  C5_8
REMARK    4  A    between atoms: C5_8  and  C6_9
REMARK                            x       y       z     vdW  Elec       q    Type
REMARK                         _______ _______ _______ _____ _____    ______ ____
ROOT
ATOM      1  O1  UNL     1      20.756   6.308  23.811  0.00  0.00    -0.270 OA
ATOM      2  C1  UNL     1      21.406   5.476  23.121  0.00  0.00    +0.244 C 
ATOM      3  N1  UNL     1      21.432   4.094  23.513  0.00  0.00    -0.307 N 
ATOM      4  H1  UNL     1      22.187   3.479  23.134  0.00  0.00    +0.149 HD
ENDROOT
BRANCH   2   5
ATOM      5  C10 UNL     1      22.151   5.946  21.928  0.00  0.00    +0.038 A 
ATOM      6  C11 UNL     1      21.735   5.586  20.620  0.00  0.00    +0.015 A 
ATOM      7  C12 UNL     1      22.438   6.037  19.490  0.00  0.00    +0.029 A 
ATOM      8  C13 UNL     1      23.553   6.853  19.674  0.00  0.00    +0.078 A 
ATOM      9  N4  UNL     1      24.314   7.354  18.667  0.00  0.00    -0.247 NA
ATOM     10  C14 UNL     1      25.326   8.116  19.147  0.00  0.00    +0.157 A 
ATOM     11  S1  UNL     1      25.308   8.194  20.838  0.00  0.00    -0.075 S 
ATOM     12  C15 UNL     1      23.952   7.213  20.948  0.00  0.00    +0.040 A 
ATOM     13  C16 UNL     1      23.277   6.784  22.086  0.00  0.00    +0.030 A 
ENDBRANCH   2   5
BRANCH   3  14
ATOM     14  C2  UNL     1      20.628   3.593  24.633  0.00  0.00    +0.088 C 
ATOM     15  C3  UNL     1      19.527   2.655  24.151  0.00  0.00    +0.039 C 
ATOM     16  C4  UNL     1      19.870   1.301  24.751  0.00  0.00    +0.086 C 
ATOM     17  N2  UNL     1      20.740   1.532  25.913  0.00  0.00    -0.295 NA
ATOM     18  C9  UNL     1      21.485   2.757  25.585  0.00  0.00    +0.107 C 
BRANCH  17  19
ATOM     19  C5  UNL     1      19.942   1.695  27.147  0.00  0.00    +0.143 C 
BRANCH  19  20
ATOM     20  C6  UNL     1      20.639   1.054  28.308  0.00  0.00    +0.097 A 
ATOM     21  C7  UNL     1      20.236   1.098  29.626  0.00  0.00    +0.068 A 
ATOM     22  C8  UNL     1      21.209   0.383  30.290  0.00  0.00    +0.230 A 
ATOM     23  O2  UNL     1      22.095  -0.029  29.412  0.00  0.00    -0.363 OA
ATOM     24  N3  UNL     1      21.786   0.356  28.207  0.00  0.00    -0.082 NA
ENDBRANCH  19  20
ENDBRANCH  17  19
ENDBRANCH   3  14
TORSDOF 4
ENDMDL
MODEL 4
REMARK VINA RESULT:    -5.706      9.021     12.530
REMARK INTER + INTRA:          -7.454
REMARK INTER:                  -6.972
REMARK INTRA:                  -0.482
REMARK UNBOUND:                -0.413
REMARK  Name = /home/qwerty/github/datacon2025hack/step_04_hit_selection/docking/ligands/lig_694.pdb
REMARK  4 active torsions:
REMARK  status: ('A' for Active; 'I' for Inactive)
REMARK    1  A    between atoms: C1_2  and  C10_15
REMARK    2  A    between atoms: N1_3  and  C2_4
REMARK    3  A    between atoms: N2_7  and  C5_8
REMARK    4  A    between atoms: C5_8  and  C6_9
REMARK                            x       y       z     vdW  Elec       q    Type
REMARK                         _______ _______ _______ _____ _____    ______ ____
ROOT
ATOM      1  O1  UNL     1      17.966  -0.048  32.467  0.00  0.00    -0.270 OA
ATOM      2  C1  UNL     1      18.197   0.952  33.201  0.00  0.00    +0.244 C 
ATOM      3  N1  UNL     1      19.123   1.958  32.759  0.00  0.00    -0.307 N 
ATOM      4  H1  UNL     1      19.531   2.609  33.467  0.00  0.00    +0.149 HD
ENDROOT
BRANCH   2   5
ATOM      5  C10 UNL     1      17.521   1.060  34.517  0.00  0.00    +0.038 A 
ATOM      6  C11 UNL     1      16.974  -0.084  35.152  0.00  0.00    +0.015 A 
ATOM      7  C12 UNL     1      16.340   0.019  36.401  0.00  0.00    +0.029 A 
ATOM      8  C13 UNL     1      16.261   1.269  37.014  0.00  0.00    +0.078 A 
ATOM      9  N4  UNL     1      15.677   1.499  38.218  0.00  0.00    -0.247 NA
ATOM     10  C14 UNL     1      15.756   2.808  38.560  0.00  0.00    +0.157 A 
ATOM     11  S1  UNL     1      16.555   3.720  37.379  0.00  0.00    -0.075 S 
ATOM     12  C15 UNL     1      16.804   2.382  36.400  0.00  0.00    +0.040 A 
ATOM     13  C16 UNL     1      17.439   2.312  35.164  0.00  0.00    +0.030 A 
ENDBRANCH   2   5
BRANCH   3  14
ATOM     14  C2  UNL     1      19.728   1.919  31.423  0.00  0.00    +0.088 C 
ATOM     15  C3  UNL     1      20.021   3.322  30.904  0.00  0.00    +0.039 C 
ATOM     16  C4  UNL     1      21.535   3.392  30.783  0.00  0.00    +0.086 C 
ATOM     17  N2  UNL     1      22.042   2.016  30.690  0.00  0.00    -0.295 NA
ATOM     18  C9  UNL     1      21.083   1.210  31.462  0.00  0.00    +0.107 C 
BRANCH  17  19
ATOM     19  C5  UNL     1      22.112   1.573  29.281  0.00  0.00    +0.143 C 
BRANCH  19  20
ATOM     20  C6  UNL     1      23.113   0.468  29.130  0.00  0.00    +0.097 A 
ATOM     21  C7  UNL     1      22.831  -0.862  28.898  0.00  0.00    +0.068 A 
ATOM     22  C8  UNL     1      24.072  -1.458  28.860  0.00  0.00    +0.230 A 
ATOM     23  O2  UNL     1      24.984  -0.534  29.058  0.00  0.00    -0.363 OA
ATOM     24  N3  UNL     1      24.445   0.639  29.226  0.00  0.00    -0.082 NA
ENDBRANCH  19  20
ENDBRANCH  17  19
ENDBRANCH   3  14
TORSDOF 4
ENDMDL
MODEL 5
REMARK VINA RESULT:    -5.678     12.438     15.785
REMARK INTER + INTRA:          -7.419
REMARK INTER:                  -6.973
REMARK INTRA:                  -0.447
REMARK UNBOUND:                -0.413
REMARK  Name = /home/qwerty/github/datacon2025hack/step_04_hit_selection/docking/ligands/lig_694.pdb
REMARK  4 active torsions:
REMARK  status: ('A' for Active; 'I' for Inactive)
REMARK    1  A    between atoms: C1_2  and  C10_15
REMARK    2  A    between atoms: N1_3  and  C2_4
REMARK    3  A    between atoms: N2_7  and  C5_8
REMARK    4  A    between atoms: C5_8  and  C6_9
REMARK                            x       y       z     vdW  Elec       q    Type
REMARK                         _______ _______ _______ _____ _____    ______ ____
ROOT
ATOM      1  O1  UNL     1      20.080   4.133  24.101  0.00  0.00    -0.270 OA
ATOM      2  C1  UNL     1      19.254   3.179  24.128  0.00  0.00    +0.244 C 
ATOM      3  N1  UNL     1      19.302   2.229  25.205  0.00  0.00    -0.307 N 
ATOM      4  H1  UNL     1      18.836   1.302  25.077  0.00  0.00    +0.149 HD
ENDROOT
BRANCH   2   5
ATOM      5  C10 UNL     1      18.262   3.046  23.034  0.00  0.00    +0.038 A 
ATOM      6  C11 UNL     1      18.215   3.986  21.973  0.00  0.00    +0.015 A 
ATOM      7  C12 UNL     1      17.278   3.854  20.934  0.00  0.00    +0.029 A 
ATOM      8  C13 UNL     1      16.394   2.777  20.959  0.00  0.00    +0.078 A 
ATOM      9  N4  UNL     1      15.446   2.539  20.016  0.00  0.00    -0.247 NA
ATOM     10  C14 UNL     1      14.740   1.418  20.302  0.00  0.00    +0.157 A 
ATOM     11  S1  UNL     1      15.270   0.687  21.733  0.00  0.00    -0.075 S 
ATOM     12  C15 UNL     1      16.447   1.854  21.988  0.00  0.00    +0.040 A 
ATOM     13  C16 UNL     1      17.363   1.957  23.030  0.00  0.00    +0.030 A 
ENDBRANCH   2   5
BRANCH   3  14
ATOM     14  C2  UNL     1      20.211   2.396  26.344  0.00  0.00    +0.088 C 
ATOM     15  C3  UNL     1      19.461   2.844  27.593  0.00  0.00    +0.039 C 
ATOM     16  C4  UNL     1      19.616   1.698  28.580  0.00  0.00    +0.086 C 
ATOM     17  N2  UNL     1      20.795   0.917  28.181  0.00  0.00    -0.295 NA
ATOM     18  C9  UNL     1      20.862   1.063  26.718  0.00  0.00    +0.107 C 
BRANCH  17  19
ATOM     19  C5  UNL     1      22.018   1.431  28.834  0.00  0.00    +0.143 C 
BRANCH  19  20
ATOM     20  C6  UNL     1      23.047   0.348  28.942  0.00  0.00    +0.097 A 
ATOM     21  C7  UNL     1      24.401   0.526  29.136  0.00  0.00    +0.068 A 
ATOM     22  C8  UNL     1      24.901  -0.757  29.145  0.00  0.00    +0.230 A 
ATOM     23  O2  UNL     1      23.905  -1.594  28.967  0.00  0.00    -0.363 OA
ATOM     24  N3  UNL     1      22.772  -0.966  28.840  0.00  0.00    -0.082 NA
ENDBRANCH  19  20
ENDBRANCH  17  19
ENDBRANCH   3  14
TORSDOF 4
ENDMDL
MODEL 6
REMARK VINA RESULT:    -5.583     17.091     19.561
REMARK INTER + INTRA:          -7.301
REMARK INTER:                  -6.859
REMARK INTRA:                  -0.442
REMARK UNBOUND:                -0.413
REMARK  Name = /home/qwerty/github/datacon2025hack/step_04_hit_selection/docking/ligands/lig_694.pdb
REMARK  4 active torsions:
REMARK  status: ('A' for Active; 'I' for Inactive)
REMARK    1  A    between atoms: C1_2  and  C10_15
REMARK    2  A    between atoms: N1_3  and  C2_4
REMARK    3  A    between atoms: N2_7  and  C5_8
REMARK    4  A    between atoms: C5_8  and  C6_9
REMARK                            x       y       z     vdW  Elec       q    Type
REMARK                         _______ _______ _______ _____ _____    ______ ____
ROOT
ATOM      1  O1  UNL     1      11.493   1.479  22.032  0.00  0.00    -0.270 OA
ATOM      2  C1  UNL     1      11.942   2.402  21.300  0.00  0.00    +0.244 C 
ATOM      3  N1  UNL     1      13.236   2.260  20.691  0.00  0.00    -0.307 N 
ATOM      4  H1  UNL     1      13.724   3.117  20.343  0.00  0.00    +0.149 HD
ENDROOT
BRANCH   2   5
ATOM      5  C10 UNL     1      11.133   3.629  21.098  0.00  0.00    +0.038 A 
ATOM      6  C11 UNL     1      11.679   4.764  20.446  0.00  0.00    +0.015 A 
ATOM      7  C12 UNL     1      10.909   5.923  20.250  0.00  0.00    +0.029 A 
ATOM      8  C13 UNL     1       9.591   5.939  20.704  0.00  0.00    +0.078 A 
ATOM      9  N4  UNL     1       8.747   6.994  20.575  0.00  0.00    -0.247 NA
ATOM     10  C14 UNL     1       7.530   6.718  21.105  0.00  0.00    +0.157 A 
ATOM     11  S1  UNL     1       7.465   5.154  21.750  0.00  0.00    -0.075 S 
ATOM     12  C15 UNL     1       9.056   4.828  21.330  0.00  0.00    +0.040 A 
ATOM     13  C16 UNL     1       9.792   3.666  21.538  0.00  0.00    +0.030 A 
ENDBRANCH   2   5
BRANCH   3  14
ATOM     14  C2  UNL     1      14.010   1.019  20.800  0.00  0.00    +0.088 C 
ATOM     15  C3  UNL     1      14.985   0.867  19.638  0.00  0.00    +0.039 C 
ATOM     16  C4  UNL     1      16.367   0.918  20.272  0.00  0.00    +0.086 C 
ATOM     17  N2  UNL     1      16.223   0.562  21.690  0.00  0.00    -0.295 NA
ATOM     18  C9  UNL     1      14.878   1.030  22.059  0.00  0.00    +0.107 C 
BRANCH  17  19
ATOM     19  C5  UNL     1      16.365  -0.896  21.887  0.00  0.00    +0.143 C 
BRANCH  19  20
ATOM     20  C6  UNL     1      17.018  -1.185  23.204  0.00  0.00    +0.097 A 
ATOM     21  C7  UNL     1      16.855  -2.325  23.963  0.00  0.00    +0.068 A 
ATOM     22  C8  UNL     1      17.641  -2.095  25.070  0.00  0.00    +0.230 A 
ATOM     23  O2  UNL     1      18.203  -0.914  24.946  0.00  0.00    -0.363 OA
ATOM     24  N3  UNL     1      17.851  -0.335  23.835  0.00  0.00    -0.082 NA
ENDBRANCH  19  20
ENDBRANCH  17  19
ENDBRANCH   3  14
TORSDOF 4
ENDMDL
MODEL 7
REMARK VINA RESULT:    -5.579      6.776     11.591
REMARK INTER + INTRA:          -7.297
REMARK INTER:                  -6.799
REMARK INTRA:                  -0.498
REMARK UNBOUND:                -0.413
REMARK  Name = /home/qwerty/github/datacon2025hack/step_04_hit_selection/docking/ligands/lig_694.pdb
REMARK  4 active torsions:
REMARK  status: ('A' for Active; 'I' for Inactive)
REMARK    1  A    between atoms: C1_2  and  C10_15
REMARK    2  A    between atoms: N1_3  and  C2_4
REMARK    3  A    between atoms: N2_7  and  C5_8
REMARK    4  A    between atoms: C5_8  and  C6_9
REMARK                            x       y       z     vdW  Elec       q    Type
REMARK                         _______ _______ _______ _____ _____    ______ ____
ROOT
ATOM      1  O1  UNL     1      12.092  14.624  31.027  0.00  0.00    -0.270 OA
ATOM      2  C1  UNL     1      11.285  13.675  31.227  0.00  0.00    +0.244 C 
ATOM      3  N1  UNL     1      11.119  13.151  32.554  0.00  0.00    -0.307 N 
ATOM      4  H1  UNL     1      10.696  12.202  32.670  0.00  0.00    +0.149 HD
ENDROOT
BRANCH   2   5
ATOM      5  C10 UNL     1      10.537  13.104  30.080  0.00  0.00    +0.038 A 
ATOM      6  C11 UNL     1      10.364  13.843  28.882  0.00  0.00    +0.015 A 
ATOM      7  C12 UNL     1       9.660  13.297  27.795  0.00  0.00    +0.029 A 
ATOM      8  C13 UNL     1       9.136  12.011  27.910  0.00  0.00    +0.078 A 
ATOM      9  N4  UNL     1       8.440  11.375  26.934  0.00  0.00    -0.247 NA
ATOM     10  C14 UNL     1       8.061  10.135  27.329  0.00  0.00    +0.157 A 
ATOM     11  S1  UNL     1       8.579   9.790  28.903  0.00  0.00    -0.075 S 
ATOM     12  C15 UNL     1       9.314  11.287  29.075  0.00  0.00    +0.040 A 
ATOM     13  C16 UNL     1      10.007  11.798  30.168  0.00  0.00    +0.030 A 
ENDBRANCH   2   5
BRANCH   3  14
ATOM     14  C2  UNL     1      11.777  13.761  33.715  0.00  0.00    +0.088 C 
ATOM     15  C3  UNL     1      10.782  14.038  34.836  0.00  0.00    +0.039 C 
ATOM     16  C4  UNL     1      11.220  13.144  35.984  0.00  0.00    +0.086 C 
ATOM     17  N2  UNL     1      12.636  12.809  35.777  0.00  0.00    -0.295 NA
ATOM     18  C9  UNL     1      12.811  12.808  34.316  0.00  0.00    +0.107 C 
BRANCH  17  19
ATOM     19  C5  UNL     1      13.516  13.802  36.430  0.00  0.00    +0.143 C 
BRANCH  19  20
ATOM     20  C6  UNL     1      14.873  13.217  36.674  0.00  0.00    +0.097 A 
ATOM     21  C7  UNL     1      15.141  11.985  37.234  0.00  0.00    +0.068 A 
ATOM     22  C8  UNL     1      16.517  11.928  37.256  0.00  0.00    +0.230 A 
ATOM     23  O2  UNL     1      16.988  13.045  36.749  0.00  0.00    -0.363 OA
ATOM     24  N3  UNL     1      16.028  13.846  36.388  0.00  0.00    -0.082 NA
ENDBRANCH  19  20
ENDBRANCH  17  19
ENDBRANCH   3  14
TORSDOF 4
ENDMDL
MODEL 8
REMARK VINA RESULT:    -5.467     13.853     17.000
REMARK INTER + INTRA:          -7.159
REMARK INTER:                  -6.659
REMARK INTRA:                  -0.499
REMARK UNBOUND:                -0.413
REMARK  Name = /home/qwerty/github/datacon2025hack/step_04_hit_selection/docking/ligands/lig_694.pdb
REMARK  4 active torsions:
REMARK  status: ('A' for Active; 'I' for Inactive)
REMARK    1  A    between atoms: C1_2  and  C10_15
REMARK    2  A    between atoms: N1_3  and  C2_4
REMARK    3  A    between atoms: N2_7  and  C5_8
REMARK    4  A    between atoms: C5_8  and  C6_9
REMARK                            x       y       z     vdW  Elec       q    Type
REMARK                         _______ _______ _______ _____ _____    ______ ____
ROOT
ATOM      1  O1  UNL     1       7.284   9.274  25.921  0.00  0.00    -0.270 OA
ATOM      2  C1  UNL     1       8.305  10.010  25.835  0.00  0.00    +0.244 C 
ATOM      3  N1  UNL     1       9.065  10.030  24.616  0.00  0.00    -0.307 N 
ATOM      4  H1  UNL     1      10.046  10.392  24.643  0.00  0.00    +0.149 HD
ENDROOT
BRANCH   2   5
ATOM      5  C10 UNL     1       8.713  10.825  27.005  0.00  0.00    +0.038 A 
ATOM      6  C11 UNL     1       7.963  10.801  28.208  0.00  0.00    +0.015 A 
ATOM      7  C12 UNL     1       8.355  11.570  29.317  0.00  0.00    +0.029 A 
ATOM      8  C13 UNL     1       9.501  12.357  29.219  0.00  0.00    +0.078 A 
ATOM      9  N4  UNL     1       9.983  13.141  30.217  0.00  0.00    -0.247 NA
ATOM     10  C14 UNL     1      11.112  13.786  29.834  0.00  0.00    +0.157 A 
ATOM     11  S1  UNL     1      11.548  13.401  28.244  0.00  0.00    -0.075 S 
ATOM     12  C15 UNL     1      10.238  12.372  28.049  0.00  0.00    +0.040 A 
ATOM     13  C16 UNL     1       9.877  11.622  26.934  0.00  0.00    +0.030 A 
ENDBRANCH   2   5
BRANCH   3  14
ATOM     14  C2  UNL     1       8.627   9.306  23.419  0.00  0.00    +0.088 C 
ATOM     15  C3  UNL     1       8.261  10.264  22.291  0.00  0.00    +0.039 C 
ATOM     16  C4  UNL     1       9.273   9.987  21.191  0.00  0.00    +0.086 C 
ATOM     17  N2  UNL     1       9.810   8.637  21.406  0.00  0.00    -0.295 NA
ATOM     18  C9  UNL     1       9.759   8.440  22.863  0.00  0.00    +0.107 C 
BRANCH  17  19
ATOM     19  C5  UNL     1       9.001   7.625  20.692  0.00  0.00    +0.143 C 
BRANCH  19  20
ATOM     20  C6  UNL     1       9.743   6.326  20.610  0.00  0.00    +0.097 A 
ATOM     21  C7  UNL     1      11.072   6.166  20.278  0.00  0.00    +0.068 A 
ATOM     22  C8  UNL     1      11.259   4.802  20.326  0.00  0.00    +0.230 A 
ATOM     23  O2  UNL     1      10.121   4.237  20.658  0.00  0.00    -0.363 OA
ATOM     24  N3  UNL     1       9.183   5.123  20.836  0.00  0.00    -0.082 NA
ENDBRANCH  19  20
ENDBRANCH  17  19
ENDBRANCH   3  14
TORSDOF 4
ENDMDL
MODEL 9
REMARK VINA RESULT:    -5.448      3.475      9.640
REMARK INTER + INTRA:          -7.135
REMARK INTER:                  -6.708
REMARK INTRA:                  -0.428
REMARK UNBOUND:                -0.413
REMARK  Name = /home/qwerty/github/datacon2025hack/step_04_hit_selection/docking/ligands/lig_694.pdb
REMARK  4 active torsions:
REMARK  status: ('A' for Active; 'I' for Inactive)
REMARK    1  A    between atoms: C1_2  and  C10_15
REMARK    2  A    between atoms: N1_3  and  C2_4
REMARK    3  A    between atoms: N2_7  and  C5_8
REMARK    4  A    between atoms: C5_8  and  C6_9
REMARK                            x       y       z     vdW  Elec       q    Type
REMARK                         _______ _______ _______ _____ _____    ______ ____
ROOT
ATOM      1  O1  UNL     1      17.781  13.237  35.656  0.00  0.00    -0.270 OA
ATOM      2  C1  UNL     1      16.892  12.448  36.078  0.00  0.00    +0.244 C 
ATOM      3  N1  UNL     1      17.273  11.173  36.620  0.00  0.00    -0.307 N 
ATOM      4  H1  UNL     1      16.550  10.421  36.689  0.00  0.00    +0.149 HD
ENDROOT
BRANCH   2   5
ATOM      5  C10 UNL     1      15.465  12.845  35.989  0.00  0.00    +0.038 A 
ATOM      6  C11 UNL     1      15.082  14.046  35.340  0.00  0.00    +0.015 A 
ATOM      7  C12 UNL     1      13.730  14.417  35.250  0.00  0.00    +0.029 A 
ATOM      8  C13 UNL     1      12.764  13.580  35.807  0.00  0.00    +0.078 A 
ATOM      9  N4  UNL     1      11.429  13.825  35.786  0.00  0.00    -0.247 NA
ATOM     10  C14 UNL     1      10.737  12.835  36.400  0.00  0.00    +0.157 A 
ATOM     11  S1  UNL     1      11.762  11.622  36.988  0.00  0.00    -0.075 S 
ATOM     12  C15 UNL     1      13.137  12.403  36.430  0.00  0.00    +0.040 A 
ATOM     13  C16 UNL     1      14.467  12.008  36.534  0.00  0.00    +0.030 A 
ENDBRANCH   2   5
BRANCH   3  14
ATOM     14  C2  UNL     1      18.679  10.800  36.805  0.00  0.00    +0.088 C 
ATOM     15  C3  UNL     1      18.837   9.738  37.887  0.00  0.00    +0.039 C 
ATOM     16  C4  UNL     1      19.371   8.512  37.163  0.00  0.00    +0.086 C 
ATOM     17  N2  UNL     1      20.000   8.966  35.915  0.00  0.00    -0.295 NA
ATOM     18  C9  UNL     1      19.245  10.169  35.532  0.00  0.00    +0.107 C 
BRANCH  17  19
ATOM     19  C5  UNL     1      21.433   9.266  36.124  0.00  0.00    +0.143 C 
BRANCH  19  20
ATOM     20  C6  UNL     1      22.280   8.123  35.655  0.00  0.00    +0.097 A 
ATOM     21  C7  UNL     1      22.771   7.099  36.436  0.00  0.00    +0.068 A 
ATOM     22  C8  UNL     1      23.492   6.328  35.549  0.00  0.00    +0.230 A 
ATOM     23  O2  UNL     1      23.414   6.879  34.360  0.00  0.00    -0.363 OA
ATOM     24  N3  UNL     1      22.693   7.963  34.383  0.00  0.00    -0.082 NA
ENDBRANCH  19  20
ENDBRANCH  17  19
ENDBRANCH   3  14
TORSDOF 4
ENDMDL
