MODEL 1
REMARK VINA RESULT:    -6.852      0.000      0.000
REMARK INTER + INTRA:          -9.038
REMARK INTER:                  -8.455
REMARK INTRA:                  -0.583
REMARK UNBOUND:                -0.583
REMARK  Name = /home/qwerty/github/datacon2025hack/step_04_hit_selection/docking/ligands/lig_677.pdb
REMARK  5 active torsions:
REMARK  status: ('A' for Active; 'I' for Inactive)
REMARK    1  A    between atoms: C1_1  and  O1_2
REMARK    2  A    between atoms: O1_2  and  C2_3
REMARK    3  A    between atoms: C5_6  and  N1_7
REMARK    4  A    between atoms: C7_9  and  N2_10
REMARK    5  A    between atoms: N3_13  and  C9_14
REMARK                            x       y       z     vdW  Elec       q    Type
REMARK                         _______ _______ _______ _____ _____    ______ ____
ROOT
ATOM      1  N2  UNL     1      17.173  15.703  29.549  0.00  0.00    -0.294 N 
ATOM      2  C8  UNL     1      15.935  14.981  29.483  0.00  0.00    +0.304 C 
ATOM      3  O2  UNL     1      15.942  13.732  29.307  0.00  0.00    -0.253 OA
ATOM      4  N3  UNL     1      14.693  15.693  29.576  0.00  0.00    -0.269 N 
ATOM      5  H9  UNL     1      17.129  16.742  29.648  0.00  0.00    +0.151 HD
ATOM      6  H10 UNL     1      14.716  16.729  29.435  0.00  0.00    +0.156 HD
ENDROOT
BRANCH   4   7
ATOM      7  C9  UNL     1      13.410  15.063  29.735  0.00  0.00    +0.035 A 
ATOM      8  C10 UNL     1      12.911  14.719  31.017  0.00  0.00    +0.025 A 
ATOM      9  C11 UNL     1      11.646  14.127  31.158  0.00  0.00    +0.025 A 
ATOM     10  C12 UNL     1      10.892  13.897  30.009  0.00  0.00    +0.037 A 
ATOM     11  C13 UNL     1      11.357  14.245  28.760  0.00  0.00    -0.016 A 
ATOM     12  C14 UNL     1      12.609  14.837  28.597  0.00  0.00    +0.029 A 
ATOM     13  C15 UNL     1      10.351  13.906  27.707  0.00  0.00    +0.133 C 
ATOM     14  C16 UNL     1       9.269  13.322  28.569  0.00  0.00    +0.222 C 
ATOM     15  O3  UNL     1       8.177  12.877  28.127  0.00  0.00    -0.275 OA
ATOM     16  N4  UNL     1       9.602  13.321  29.952  0.00  0.00    -0.285 N 
ATOM     17  H16 UNL     1       9.020  12.975  30.748  0.00  0.00    +0.155 HD
ENDBRANCH   4   7
BRANCH   1  20
ATOM     18  N1  UNL     1      20.563  15.456  28.351  0.00  0.00    -0.270 N 
ATOM     19  C6  UNL     1      19.146  15.305  28.060  0.00  0.00    +0.136 C 
ATOM     20  C7  UNL     1      18.471  15.030  29.424  0.00  0.00    +0.101 C 
ATOM     21  C17 UNL     1      19.462  15.511  30.500  0.00  0.00    +0.120 C 
ATOM     22  C18 UNL     1      20.728  15.632  29.749  0.00  0.00    +0.222 C 
ATOM     23  O4  UNL     1      21.824  15.941  30.287  0.00  0.00    -0.275 OA
BRANCH  18  27
ATOM     24  C2  UNL     1      23.626  15.509  25.382  0.00  0.00    +0.120 A 
ATOM     25  C3  UNL     1      23.523  14.438  26.275  0.00  0.00    +0.047 A 
ATOM     26  C4  UNL     1      22.522  14.417  27.250  0.00  0.00    +0.027 A 
ATOM     27  C5  UNL     1      21.608  15.479  27.357  0.00  0.00    +0.037 A 
ATOM     28  C19 UNL     1      21.704  16.549  26.451  0.00  0.00    +0.027 A 
ATOM     29  C20 UNL     1      22.705  16.569  25.476  0.00  0.00    +0.047 A 
BRANCH  24  31
ATOM     30  C1  UNL     1      24.742  14.518  23.377  0.00  0.00    +0.277 C 
ATOM     31  O1  UNL     1      24.647  15.482  24.421  0.00  0.00    -0.495 OA
ENDBRANCH  24  31
ENDBRANCH  18  27
ENDBRANCH   1  20
TORSDOF 4
ENDMDL
MODEL 2
REMARK VINA RESULT:    -6.756     10.740     16.615
REMARK INTER + INTRA:          -8.918
REMARK INTER:                  -8.328
REMARK INTRA:                  -0.590
REMARK UNBOUND:                -0.583
REMARK  Name = /home/qwerty/github/datacon2025hack/step_04_hit_selection/docking/ligands/lig_677.pdb
REMARK  5 active torsions:
REMARK  status: ('A' for Active; 'I' for Inactive)
REMARK    1  A    between atoms: C1_1  and  O1_2
REMARK    2  A    between atoms: O1_2  and  C2_3
REMARK    3  A    between atoms: C5_6  and  N1_7
REMARK    4  A    between atoms: C7_9  and  N2_10
REMARK    5  A    between atoms: N3_13  and  C9_14
REMARK                            x       y       z     vdW  Elec       q    Type
REMARK                         _______ _______ _______ _____ _____    ______ ____
ROOT
ATOM      1  N2  UNL     1       6.994   4.191  27.774  0.00  0.00    -0.294 N 
ATOM      2  C8  UNL     1       7.559   5.507  27.856  0.00  0.00    +0.304 C 
ATOM      3  O2  UNL     1       8.797   5.651  28.053  0.00  0.00    -0.253 OA
ATOM      4  N3  UNL     1       6.702   6.654  27.756  0.00  0.00    -0.269 N 
ATOM      5  H9  UNL     1       5.959   4.109  27.658  0.00  0.00    +0.151 HD
ATOM      6  H10 UNL     1       5.675   6.504  27.881  0.00  0.00    +0.156 HD
ENDROOT
BRANCH   4   7
ATOM      7  C9  UNL     1       7.175   8.005  27.613  0.00  0.00    +0.035 A 
ATOM      8  C10 UNL     1       7.519   8.534  26.343  0.00  0.00    +0.025 A 
ATOM      9  C11 UNL     1       7.955   9.863  26.216  0.00  0.00    +0.025 A 
ATOM     10  C12 UNL     1       8.029  10.647  27.364  0.00  0.00    +0.037 A 
ATOM     11  C13 UNL     1       7.677  10.151  28.601  0.00  0.00    -0.016 A 
ATOM     12  C14 UNL     1       7.239   8.835  28.750  0.00  0.00    +0.029 A 
ATOM     13  C15 UNL     1       7.832  11.199  29.656  0.00  0.00    +0.133 C 
ATOM     14  C16 UNL     1       8.320  12.339  28.811  0.00  0.00    +0.222 C 
ATOM     15  O3  UNL     1       8.601  13.482  29.259  0.00  0.00    -0.275 OA
ATOM     16  N4  UNL     1       8.435  12.000  27.433  0.00  0.00    -0.285 N 
ATOM     17  H16 UNL     1       8.745  12.616  26.649  0.00  0.00    +0.155 HD
ENDBRANCH   4   7
BRANCH   1  20
ATOM     18  N1  UNL     1       7.670   0.882  29.032  0.00  0.00    -0.270 N 
ATOM     19  C6  UNL     1       7.662   2.313  29.289  0.00  0.00    +0.136 C 
ATOM     20  C7  UNL     1       7.818   2.984  27.904  0.00  0.00    +0.101 C 
ATOM     21  C17 UNL     1       7.428   1.918  26.864  0.00  0.00    +0.120 C 
ATOM     22  C18 UNL     1       7.477   0.665  27.643  0.00  0.00    +0.222 C 
ATOM     23  O4  UNL     1       7.284  -0.473  27.136  0.00  0.00    -0.275 OA
BRANCH  18  27
ATOM     24  C2  UNL     1       8.056  -2.095  32.063  0.00  0.00    +0.120 A 
ATOM     25  C3  UNL     1       9.103  -1.856  31.167  0.00  0.00    +0.047 A 
ATOM     26  C4  UNL     1       8.980  -0.883  30.171  0.00  0.00    +0.027 A 
ATOM     27  C5  UNL     1       7.797  -0.135  30.047  0.00  0.00    +0.037 A 
ATOM     28  C19 UNL     1       6.750  -0.367  30.955  0.00  0.00    +0.027 A 
ATOM     29  C20 UNL     1       6.874  -1.340  31.951  0.00  0.00    +0.047 A 
BRANCH  24  31
ATOM     30  C1  UNL     1       8.212  -2.833  34.446  0.00  0.00    +0.277 C 
ATOM     31  O1  UNL     1       8.230  -3.082  33.044  0.00  0.00    -0.495 OA
ENDBRANCH  24  31
ENDBRANCH  18  27
ENDBRANCH   1  20
TORSDOF 4
ENDMDL
MODEL 3
REMARK VINA RESULT:    -6.729     11.864     14.401
REMARK INTER + INTRA:          -8.885
REMARK INTER:                  -8.458
REMARK INTRA:                  -0.427
REMARK UNBOUND:                -0.583
REMARK  Name = /home/qwerty/github/datacon2025hack/step_04_hit_selection/docking/ligands/lig_677.pdb
REMARK  5 active torsions:
REMARK  status: ('A' for Active; 'I' for Inactive)
REMARK    1  A    between atoms: C1_1  and  O1_2
REMARK    2  A    between atoms: O1_2  and  C2_3
REMARK    3  A    between atoms: C5_6  and  N1_7
REMARK    4  A    between atoms: C7_9  and  N2_10
REMARK    5  A    between atoms: N3_13  and  C9_14
REMARK                            x       y       z     vdW  Elec       q    Type
REMARK                         _______ _______ _______ _____ _____    ______ ____
ROOT
ATOM      1  N2  UNL     1      22.619   4.182  33.607  0.00  0.00    -0.294 N 
ATOM      2  C8  UNL     1      22.148   3.804  32.306  0.00  0.00    +0.304 C 
ATOM      3  O2  UNL     1      21.673   4.678  31.530  0.00  0.00    -0.253 OA
ATOM      4  N3  UNL     1      22.179   2.425  31.913  0.00  0.00    -0.269 N 
ATOM      5  H9  UNL     1      22.962   3.426  34.242  0.00  0.00    +0.151 HD
ATOM      6  H10 UNL     1      22.305   1.709  32.664  0.00  0.00    +0.156 HD
ENDROOT
BRANCH   4   7
ATOM      7  C9  UNL     1      21.935   1.961  30.573  0.00  0.00    +0.035 A 
ATOM      8  C10 UNL     1      22.971   1.391  29.790  0.00  0.00    +0.025 A 
ATOM      9  C11 UNL     1      22.711   0.920  28.493  0.00  0.00    +0.025 A 
ATOM     10  C12 UNL     1      21.411   1.017  28.003  0.00  0.00    +0.037 A 
ATOM     11  C13 UNL     1      20.392   1.549  28.762  0.00  0.00    -0.016 A 
ATOM     12  C14 UNL     1      20.626   2.021  30.053  0.00  0.00    +0.029 A 
ATOM     13  C15 UNL     1      19.100   1.520  28.009  0.00  0.00    +0.133 C 
ATOM     14  C16 UNL     1      19.568   0.893  26.728  0.00  0.00    +0.222 C 
ATOM     15  O3  UNL     1      18.819   0.652  25.745  0.00  0.00    -0.275 OA
ATOM     16  N4  UNL     1      20.959   0.592  26.732  0.00  0.00    -0.285 N 
ATOM     17  H16 UNL     1      21.518   0.151  25.968  0.00  0.00    +0.155 HD
ENDBRANCH   4   7
BRANCH   1  20
ATOM     18  N1  UNL     1      21.473   6.803  35.800  0.00  0.00    -0.270 N 
ATOM     19  C6  UNL     1      21.195   5.957  34.649  0.00  0.00    +0.136 C 
ATOM     20  C7  UNL     1      22.578   5.572  34.074  0.00  0.00    +0.101 C 
ATOM     21  C17 UNL     1      23.597   5.820  35.202  0.00  0.00    +0.120 C 
ATOM     22  C18 UNL     1      22.843   6.671  36.144  0.00  0.00    +0.222 C 
ATOM     23  O4  UNL     1      23.347   7.161  37.189  0.00  0.00    -0.275 OA
BRANCH  18  27
ATOM     24  C2  UNL     1      18.529   9.126  37.832  0.00  0.00    +0.120 A 
ATOM     25  C3  UNL     1      19.409   9.730  36.929  0.00  0.00    +0.047 A 
ATOM     26  C4  UNL     1      20.376   8.973  36.263  0.00  0.00    +0.027 A 
ATOM     27  C5  UNL     1      20.487   7.592  36.496  0.00  0.00    +0.037 A 
ATOM     28  C19 UNL     1      19.594   6.983  37.394  0.00  0.00    +0.027 A 
ATOM     29  C20 UNL     1      18.627   7.741  38.061  0.00  0.00    +0.047 A 
BRANCH  24  31
ATOM     30  C1  UNL     1      16.620  10.740  37.798  0.00  0.00    +0.277 C 
ATOM     31  O1  UNL     1      17.575   9.930  38.474  0.00  0.00    -0.495 OA
ENDBRANCH  24  31
ENDBRANCH  18  27
ENDBRANCH   1  20
TORSDOF 4
ENDMDL
MODEL 4
REMARK VINA RESULT:    -6.712     12.164     13.291
REMARK INTER + INTRA:          -8.865
REMARK INTER:                  -8.366
REMARK INTRA:                  -0.499
REMARK UNBOUND:                -0.583
REMARK  Name = /home/qwerty/github/datacon2025hack/step_04_hit_selection/docking/ligands/lig_677.pdb
REMARK  5 active torsions:
REMARK  status: ('A' for Active; 'I' for Inactive)
REMARK    1  A    between atoms: C1_1  and  O1_2
REMARK    2  A    between atoms: O1_2  and  C2_3
REMARK    3  A    between atoms: C5_6  and  N1_7
REMARK    4  A    between atoms: C7_9  and  N2_10
REMARK    5  A    between atoms: N3_13  and  C9_14
REMARK                            x       y       z     vdW  Elec       q    Type
REMARK                         _______ _______ _______ _____ _____    ______ ____
ROOT
ATOM      1  N2  UNL     1      21.421   3.531  24.014  0.00  0.00    -0.294 N 
ATOM      2  C8  UNL     1      21.396   3.378  25.440  0.00  0.00    +0.304 C 
ATOM      3  O2  UNL     1      21.055   4.347  26.172  0.00  0.00    -0.253 OA
ATOM      4  N3  UNL     1      21.802   2.133  26.027  0.00  0.00    -0.269 N 
ATOM      5  H9  UNL     1      21.754   2.723  23.441  0.00  0.00    +0.151 HD
ATOM      6  H10 UNL     1      22.339   1.466  25.427  0.00  0.00    +0.156 HD
ENDROOT
BRANCH   4   7
ATOM      7  C9  UNL     1      21.619   1.795  27.413  0.00  0.00    +0.035 A 
ATOM      8  C10 UNL     1      22.721   1.706  28.301  0.00  0.00    +0.025 A 
ATOM      9  C11 UNL     1      22.524   1.400  29.658  0.00  0.00    +0.025 A 
ATOM     10  C12 UNL     1      21.221   1.198  30.107  0.00  0.00    +0.037 A 
ATOM     11  C13 UNL     1      20.141   1.302  29.258  0.00  0.00    -0.016 A 
ATOM     12  C14 UNL     1      20.313   1.608  27.908  0.00  0.00    +0.029 A 
ATOM     13  C15 UNL     1      18.863   1.056  29.994  0.00  0.00    +0.133 C 
ATOM     14  C16 UNL     1      19.407   0.802  31.370  0.00  0.00    +0.222 C 
ATOM     15  O3  UNL     1      18.695   0.539  32.374  0.00  0.00    -0.275 OA
ATOM     16  N4  UNL     1      20.827   0.891  31.430  0.00  0.00    -0.285 N 
ATOM     17  H16 UNL     1      21.439   0.762  32.267  0.00  0.00    +0.155 HD
ENDBRANCH   4   7
BRANCH   1  20
ATOM     18  N1  UNL     1      22.046   6.318  21.816  0.00  0.00    -0.270 N 
ATOM     19  C6  UNL     1      22.272   5.707  23.117  0.00  0.00    +0.136 C 
ATOM     20  C7  UNL     1      21.050   4.792  23.362  0.00  0.00    +0.101 C 
ATOM     21  C17 UNL     1      20.410   4.549  21.983  0.00  0.00    +0.120 C 
ATOM     22  C18 UNL     1      21.013   5.608  21.150  0.00  0.00    +0.222 C 
ATOM     23  O4  UNL     1      20.699   5.804  19.946  0.00  0.00    -0.275 OA
BRANCH  18  27
ATOM     24  C2  UNL     1      24.290   9.609  20.290  0.00  0.00    +0.120 A 
ATOM     25  C3  UNL     1      22.916   9.733  20.518  0.00  0.00    +0.047 A 
ATOM     26  C4  UNL     1      22.177   8.657  21.016  0.00  0.00    +0.027 A 
ATOM     27  C5  UNL     1      22.800   7.427  21.287  0.00  0.00    +0.037 A 
ATOM     28  C19 UNL     1      24.183   7.307  21.070  0.00  0.00    +0.027 A 
ATOM     29  C20 UNL     1      24.922   8.384  20.571  0.00  0.00    +0.047 A 
BRANCH  24  31
ATOM     30  C1  UNL     1      25.090  11.048  18.409  0.00  0.00    +0.277 C 
ATOM     31  O1  UNL     1      24.987  10.719  19.791  0.00  0.00    -0.495 OA
ENDBRANCH  24  31
ENDBRANCH  18  27
ENDBRANCH   1  20
TORSDOF 4
ENDMDL
MODEL 5
REMARK VINA RESULT:    -6.683     10.986     13.393
REMARK INTER + INTRA:          -8.829
REMARK INTER:                  -8.234
REMARK INTRA:                  -0.595
REMARK UNBOUND:                -0.583
REMARK  Name = /home/qwerty/github/datacon2025hack/step_04_hit_selection/docking/ligands/lig_677.pdb
REMARK  5 active torsions:
REMARK  status: ('A' for Active; 'I' for Inactive)
REMARK    1  A    between atoms: C1_1  and  O1_2
REMARK    2  A    between atoms: O1_2  and  C2_3
REMARK    3  A    between atoms: C5_6  and  N1_7
REMARK    4  A    between atoms: C7_9  and  N2_10
REMARK    5  A    between atoms: N3_13  and  C9_14
REMARK                            x       y       z     vdW  Elec       q    Type
REMARK                         _______ _______ _______ _____ _____    ______ ____
ROOT
ATOM      1  N2  UNL     1      19.721   5.181  21.607  0.00  0.00    -0.294 N 
ATOM      2  C8  UNL     1      19.894   4.624  22.918  0.00  0.00    +0.304 C 
ATOM      3  O2  UNL     1      19.338   5.167  23.911  0.00  0.00    -0.253 OA
ATOM      4  N3  UNL     1      20.737   3.476  23.096  0.00  0.00    -0.269 N 
ATOM      5  H9  UNL     1      20.235   4.734  20.814  0.00  0.00    +0.151 HD
ATOM      6  H10 UNL     1      21.395   3.233  22.320  0.00  0.00    +0.156 HD
ENDROOT
BRANCH   4   7
ATOM      7  C9  UNL     1      20.816   2.712  24.312  0.00  0.00    +0.035 A 
ATOM      8  C10 UNL     1      19.964   1.602  24.541  0.00  0.00    +0.025 A 
ATOM      9  C11 UNL     1      20.070   0.851  25.723  0.00  0.00    +0.025 A 
ATOM     10  C12 UNL     1      21.038   1.218  26.655  0.00  0.00    +0.037 A 
ATOM     11  C13 UNL     1      21.885   2.282  26.434  0.00  0.00    -0.016 A 
ATOM     12  C14 UNL     1      21.800   3.040  25.267  0.00  0.00    +0.029 A 
ATOM     13  C15 UNL     1      22.834   2.449  27.578  0.00  0.00    +0.133 C 
ATOM     14  C16 UNL     1      22.378   1.319  28.453  0.00  0.00    +0.222 C 
ATOM     15  O3  UNL     1      22.889   1.039  29.569  0.00  0.00    -0.275 OA
ATOM     16  N4  UNL     1      21.298   0.582  27.891  0.00  0.00    -0.285 N 
ATOM     17  H16 UNL     1      20.810  -0.247  28.299  0.00  0.00    +0.155 HD
ENDBRANCH   4   7
BRANCH   1  20
ATOM     18  N1  UNL     1      19.090   8.410  20.136  0.00  0.00    -0.270 N 
ATOM     19  C6  UNL     1      19.756   7.647  21.180  0.00  0.00    +0.136 C 
ATOM     20  C7  UNL     1      18.900   6.374  21.373  0.00  0.00    +0.101 C 
ATOM     21  C17 UNL     1      18.047   6.231  20.099  0.00  0.00    +0.120 C 
ATOM     22  C18 UNL     1      18.151   7.570  19.483  0.00  0.00    +0.222 C 
ATOM     23  O4  UNL     1      17.531   7.900  18.437  0.00  0.00    -0.275 OA
BRANCH  18  27
ATOM     24  C2  UNL     1      19.955  12.458  19.108  0.00  0.00    +0.120 A 
ATOM     25  C3  UNL     1      20.781  11.422  18.661  0.00  0.00    +0.047 A 
ATOM     26  C4  UNL     1      20.502  10.095  18.998  0.00  0.00    +0.027 A 
ATOM     27  C5  UNL     1      19.392   9.779  19.799  0.00  0.00    +0.037 A 
ATOM     28  C19 UNL     1      18.555  10.820  20.236  0.00  0.00    +0.027 A 
ATOM     29  C20 UNL     1      18.835  12.148  19.900  0.00  0.00    +0.047 A 
BRANCH  24  31
ATOM     30  C1  UNL     1      19.986  14.922  19.532  0.00  0.00    +0.277 C 
ATOM     31  O1  UNL     1      20.277  13.773  18.742  0.00  0.00    -0.495 OA
ENDBRANCH  24  31
ENDBRANCH  18  27
ENDBRANCH   1  20
TORSDOF 4
ENDMDL
MODEL 6
REMARK VINA RESULT:    -6.639     14.148     16.558
REMARK INTER + INTRA:          -8.774
REMARK INTER:                  -8.323
REMARK INTRA:                  -0.451
REMARK UNBOUND:                -0.583
REMARK  Name = /home/qwerty/github/datacon2025hack/step_04_hit_selection/docking/ligands/lig_677.pdb
REMARK  5 active torsions:
REMARK  status: ('A' for Active; 'I' for Inactive)
REMARK    1  A    between atoms: C1_1  and  O1_2
REMARK    2  A    between atoms: O1_2  and  C2_3
REMARK    3  A    between atoms: C5_6  and  N1_7
REMARK    4  A    between atoms: C7_9  and  N2_10
REMARK    5  A    between atoms: N3_13  and  C9_14
REMARK                            x       y       z     vdW  Elec       q    Type
REMARK                         _______ _______ _______ _____ _____    ______ ____
ROOT
ATOM      1  N2  UNL     1      19.125   0.019  24.408  0.00  0.00    -0.294 N 
ATOM      2  C8  UNL     1      19.425   0.552  25.705  0.00  0.00    +0.304 C 
ATOM      3  O2  UNL     1      18.489   0.903  26.474  0.00  0.00    -0.253 OA
ATOM      4  N3  UNL     1      20.793   0.722  26.104  0.00  0.00    -0.269 N 
ATOM      5  H9  UNL     1      19.926  -0.217  23.779  0.00  0.00    +0.151 HD
ATOM      6  H10 UNL     1      21.523   0.694  25.356  0.00  0.00    +0.156 HD
ENDROOT
BRANCH   4   7
ATOM      7  C9  UNL     1      21.211   1.043  27.442  0.00  0.00    +0.035 A 
ATOM      8  C10 UNL     1      21.869   0.087  28.257  0.00  0.00    +0.025 A 
ATOM      9  C11 UNL     1      22.293   0.423  29.553  0.00  0.00    +0.025 A 
ATOM     10  C12 UNL     1      22.061   1.718  30.010  0.00  0.00    +0.037 A 
ATOM     11  C13 UNL     1      21.442   2.661  29.220  0.00  0.00    -0.016 A 
ATOM     12  C14 UNL     1      21.015   2.351  27.929  0.00  0.00    +0.029 A 
ATOM     13  C15 UNL     1      21.332   3.966  29.941  0.00  0.00    +0.133 C 
ATOM     14  C16 UNL     1      21.983   3.594  31.241  0.00  0.00    +0.222 C 
ATOM     15  O3  UNL     1      22.135   4.386  32.207  0.00  0.00    -0.275 OA
ATOM     16  N4  UNL     1      22.421   2.240  31.274  0.00  0.00    -0.285 N 
ATOM     17  H16 UNL     1      22.903   1.745  32.057  0.00  0.00    +0.155 HD
ENDBRANCH   4   7
BRANCH   1  20
ATOM     18  N1  UNL     1      16.391   0.724  22.168  0.00  0.00    -0.270 N 
ATOM     19  C6  UNL     1      17.183   1.154  23.310  0.00  0.00    +0.136 C 
ATOM     20  C7  UNL     1      17.745  -0.143  23.935  0.00  0.00    +0.101 C 
ATOM     21  C17 UNL     1      17.645  -1.225  22.845  0.00  0.00    +0.120 C 
ATOM     22  C18 UNL     1      16.707  -0.627  21.874  0.00  0.00    +0.222 C 
ATOM     23  O4  UNL     1      16.297  -1.230  20.846  0.00  0.00    -0.275 OA
BRANCH  18  27
ATOM     24  C2  UNL     1      13.706   3.254  20.026  0.00  0.00    +0.120 A 
ATOM     25  C3  UNL     1      13.215   2.271  20.892  0.00  0.00    +0.047 A 
ATOM     26  C4  UNL     1      14.091   1.439  21.594  0.00  0.00    +0.027 A 
ATOM     27  C5  UNL     1      15.481   1.569  21.434  0.00  0.00    +0.037 A 
ATOM     28  C19 UNL     1      15.974   2.565  20.574  0.00  0.00    +0.027 A 
ATOM     29  C20 UNL     1      15.096   3.397  19.872  0.00  0.00    +0.047 A 
BRANCH  24  31
ATOM     30  C1  UNL     1      11.871   4.952  19.981  0.00  0.00    +0.277 C 
ATOM     31  O1  UNL     1      12.785   4.063  19.345  0.00  0.00    -0.495 OA
ENDBRANCH  24  31
ENDBRANCH  18  27
ENDBRANCH   1  20
TORSDOF 4
ENDMDL
MODEL 7
REMARK VINA RESULT:    -6.610     12.901     15.056
REMARK INTER + INTRA:          -8.739
REMARK INTER:                  -8.241
REMARK INTRA:                  -0.498
REMARK UNBOUND:                -0.583
REMARK  Name = /home/qwerty/github/datacon2025hack/step_04_hit_selection/docking/ligands/lig_677.pdb
REMARK  5 active torsions:
REMARK  status: ('A' for Active; 'I' for Inactive)
REMARK    1  A    between atoms: C1_1  and  O1_2
REMARK    2  A    between atoms: O1_2  and  C2_3
REMARK    3  A    between atoms: C5_6  and  N1_7
REMARK    4  A    between atoms: C7_9  and  N2_10
REMARK    5  A    between atoms: N3_13  and  C9_14
REMARK                            x       y       z     vdW  Elec       q    Type
REMARK                         _______ _______ _______ _____ _____    ______ ____
ROOT
ATOM      1  N2  UNL     1      15.419   6.070  20.578  0.00  0.00    -0.294 N 
ATOM      2  C8  UNL     1      16.304   7.138  20.215  0.00  0.00    +0.304 C 
ATOM      3  O2  UNL     1      17.264   6.920  19.426  0.00  0.00    -0.253 OA
ATOM      4  N3  UNL     1      16.117   8.441  20.787  0.00  0.00    -0.269 N 
ATOM      5  H9  UNL     1      14.663   6.275  21.270  0.00  0.00    +0.151 HD
ATOM      6  H10 UNL     1      15.508   8.515  21.634  0.00  0.00    +0.156 HD
ENDROOT
BRANCH   4   7
ATOM      7  C9  UNL     1      16.801   9.625  20.342  0.00  0.00    +0.035 A 
ATOM      8  C10 UNL     1      16.251  10.460  19.338  0.00  0.00    +0.025 A 
ATOM      9  C11 UNL     1      16.919  11.627  18.931  0.00  0.00    +0.025 A 
ATOM     10  C12 UNL     1      18.127  11.945  19.547  0.00  0.00    +0.037 A 
ATOM     11  C13 UNL     1      18.662  11.152  20.540  0.00  0.00    -0.016 A 
ATOM     12  C14 UNL     1      18.014   9.991  20.960  0.00  0.00    +0.029 A 
ATOM     13  C15 UNL     1      19.949  11.726  21.040  0.00  0.00    +0.133 C 
ATOM     14  C16 UNL     1      20.035  12.949  20.174  0.00  0.00    +0.222 C 
ATOM     15  O3  UNL     1      20.975  13.785  20.223  0.00  0.00    -0.275 OA
ATOM     16  N4  UNL     1      18.935  13.074  19.279  0.00  0.00    -0.285 N 
ATOM     17  H16 UNL     1      18.763  13.834  18.584  0.00  0.00    +0.155 HD
ENDBRANCH   4   7
BRANCH   1  20
ATOM     18  N1  UNL     1      15.638   2.490  20.931  0.00  0.00    -0.270 N 
ATOM     19  C6  UNL     1      16.305   3.777  21.051  0.00  0.00    +0.136 C 
ATOM     20  C7  UNL     1      15.585   4.711  20.050  0.00  0.00    +0.101 C 
ATOM     21  C17 UNL     1      14.227   4.052  19.748  0.00  0.00    +0.120 C 
ATOM     22  C18 UNL     1      14.417   2.670  20.231  0.00  0.00    +0.222 C 
ATOM     23  O4  UNL     1      13.548   1.767  20.106  0.00  0.00    -0.275 OA
BRANCH  18  27
ATOM     24  C2  UNL     1      17.052  -1.178  22.589  0.00  0.00    +0.120 A 
ATOM     25  C3  UNL     1      16.823  -0.070  23.411  0.00  0.00    +0.047 A 
ATOM     26  C4  UNL     1      16.362   1.134  22.872  0.00  0.00    +0.027 A 
ATOM     27  C5  UNL     1      16.129   1.255  21.492  0.00  0.00    +0.037 A 
ATOM     28  C19 UNL     1      16.347   0.138  20.668  0.00  0.00    +0.027 A 
ATOM     29  C20 UNL     1      16.809  -1.066  21.208  0.00  0.00    +0.047 A 
BRANCH  24  31
ATOM     30  C1  UNL     1      17.160  -2.800  24.487  0.00  0.00    +0.277 C 
ATOM     31  O1  UNL     1      17.514  -2.363  23.179  0.00  0.00    -0.495 OA
ENDBRANCH  24  31
ENDBRANCH  18  27
ENDBRANCH   1  20
TORSDOF 4
ENDMDL
MODEL 8
REMARK VINA RESULT:    -6.568     10.614     12.885
REMARK INTER + INTRA:          -8.686
REMARK INTER:                  -8.245
REMARK INTRA:                  -0.441
REMARK UNBOUND:                -0.583
REMARK  Name = /home/qwerty/github/datacon2025hack/step_04_hit_selection/docking/ligands/lig_677.pdb
REMARK  5 active torsions:
REMARK  status: ('A' for Active; 'I' for Inactive)
REMARK    1  A    between atoms: C1_1  and  O1_2
REMARK    2  A    between atoms: O1_2  and  C2_3
REMARK    3  A    between atoms: C5_6  and  N1_7
REMARK    4  A    between atoms: C7_9  and  N2_10
REMARK    5  A    between atoms: N3_13  and  C9_14
REMARK                            x       y       z     vdW  Elec       q    Type
REMARK                         _______ _______ _______ _____ _____    ______ ____
ROOT
ATOM      1  N2  UNL     1      21.765   6.086  24.795  0.00  0.00    -0.294 N 
ATOM      2  C8  UNL     1      21.455   4.921  25.572  0.00  0.00    +0.304 C 
ATOM      3  O2  UNL     1      20.787   3.982  25.060  0.00  0.00    -0.253 OA
ATOM      4  N3  UNL     1      21.873   4.852  26.943  0.00  0.00    -0.269 N 
ATOM      5  H9  UNL     1      22.279   6.866  25.264  0.00  0.00    +0.151 HD
ATOM      6  H10 UNL     1      22.163   5.742  27.407  0.00  0.00    +0.156 HD
ENDROOT
BRANCH   4   7
ATOM      7  C9  UNL     1      21.807   3.662  27.749  0.00  0.00    +0.035 A 
ATOM      8  C10 UNL     1      22.516   2.488  27.388  0.00  0.00    +0.025 A 
ATOM      9  C11 UNL     1      22.461   1.342  28.198  0.00  0.00    +0.025 A 
ATOM     10  C12 UNL     1      21.704   1.393  29.365  0.00  0.00    +0.037 A 
ATOM     11  C13 UNL     1      21.027   2.535  29.737  0.00  0.00    -0.016 A 
ATOM     12  C14 UNL     1      21.070   3.685  28.950  0.00  0.00    +0.029 A 
ATOM     13  C15 UNL     1      20.310   2.327  31.033  0.00  0.00    +0.133 C 
ATOM     14  C16 UNL     1      20.697   0.904  31.312  0.00  0.00    +0.222 C 
ATOM     15  O3  UNL     1      20.327   0.257  32.326  0.00  0.00    -0.275 OA
ATOM     16  N4  UNL     1      21.537   0.349  30.305  0.00  0.00    -0.285 N 
ATOM     17  H16 UNL     1      21.942  -0.613  30.271  0.00  0.00    +0.155 HD
ENDBRANCH   4   7
BRANCH   1  20
ATOM     18  N1  UNL     1      20.720   8.009  21.930  0.00  0.00    -0.270 N 
ATOM     19  C6  UNL     1      20.354   7.407  23.203  0.00  0.00    +0.136 C 
ATOM     20  C7  UNL     1      21.333   6.226  23.399  0.00  0.00    +0.101 C 
ATOM     21  C17 UNL     1      22.524   6.494  22.463  0.00  0.00    +0.120 C 
ATOM     22  C18 UNL     1      21.995   7.521  21.543  0.00  0.00    +0.222 C 
ATOM     23  O4  UNL     1      22.645   7.974  20.564  0.00  0.00    -0.275 OA
BRANCH  18  27
ATOM     24  C2  UNL     1      18.339  10.883  19.865  0.00  0.00    +0.120 A 
ATOM     25  C3  UNL     1      18.571   9.622  19.307  0.00  0.00    +0.047 A 
ATOM     26  C4  UNL     1      19.352   8.678  19.979  0.00  0.00    +0.027 A 
ATOM     27  C5  UNL     1      19.926   8.984  21.224  0.00  0.00    +0.037 A 
ATOM     28  C19 UNL     1      19.682  10.246  21.791  0.00  0.00    +0.027 A 
ATOM     29  C20 UNL     1      18.901  11.190  21.118  0.00  0.00    +0.047 A 
BRANCH  24  31
ATOM     30  C1  UNL     1      16.150  11.639  18.923  0.00  0.00    +0.277 C 
ATOM     31  O1  UNL     1      17.547  11.794  19.151  0.00  0.00    -0.495 OA
ENDBRANCH  24  31
ENDBRANCH  18  27
ENDBRANCH   1  20
TORSDOF 4
ENDMDL
MODEL 9
REMARK VINA RESULT:    -6.453     13.177     17.983
REMARK INTER + INTRA:          -8.545
REMARK INTER:                  -8.260
REMARK INTRA:                  -0.284
REMARK UNBOUND:                -0.583
REMARK  Name = /home/qwerty/github/datacon2025hack/step_04_hit_selection/docking/ligands/lig_677.pdb
REMARK  5 active torsions:
REMARK  status: ('A' for Active; 'I' for Inactive)
REMARK    1  A    between atoms: C1_1  and  O1_2
REMARK    2  A    between atoms: O1_2  and  C2_3
REMARK    3  A    between atoms: C5_6  and  N1_7
REMARK    4  A    between atoms: C7_9  and  N2_10
REMARK    5  A    between atoms: N3_13  and  C9_14
REMARK                            x       y       z     vdW  Elec       q    Type
REMARK                         _______ _______ _______ _____ _____    ______ ____
ROOT
ATOM      1  N2  UNL     1       7.501   2.788  26.334  0.00  0.00    -0.294 N 
ATOM      2  C8  UNL     1       8.047   3.287  25.105  0.00  0.00    +0.304 C 
ATOM      3  O2  UNL     1       8.615   2.498  24.301  0.00  0.00    -0.253 OA
ATOM      4  N3  UNL     1       7.981   4.692  24.817  0.00  0.00    -0.269 N 
ATOM      5  H9  UNL     1       7.080   3.477  26.997  0.00  0.00    +0.151 HD
ATOM      6  H10 UNL     1       7.770   5.339  25.610  0.00  0.00    +0.156 HD
ENDROOT
BRANCH   4   7
ATOM      7  C9  UNL     1       8.300   5.271  23.540  0.00  0.00    +0.035 A 
ATOM      8  C10 UNL     1       7.597   4.898  22.366  0.00  0.00    +0.025 A 
ATOM      9  C11 UNL     1       7.903   5.490  21.130  0.00  0.00    +0.025 A 
ATOM     10  C12 UNL     1       8.903   6.458  21.091  0.00  0.00    +0.037 A 
ATOM     11  C13 UNL     1       9.579   6.844  22.228  0.00  0.00    -0.016 A 
ATOM     12  C14 UNL     1       9.290   6.271  23.466  0.00  0.00    +0.029 A 
ATOM     13  C15 UNL     1      10.585   7.904  21.912  0.00  0.00    +0.133 C 
ATOM     14  C16 UNL     1      10.356   8.039  20.435  0.00  0.00    +0.222 C 
ATOM     15  O3  UNL     1      10.986   8.837  19.692  0.00  0.00    -0.275 OA
ATOM     16  N4  UNL     1       9.342   7.167  19.948  0.00  0.00    -0.285 N 
ATOM     17  H16 UNL     1       8.998   7.075  18.966  0.00  0.00    +0.155 HD
ENDBRANCH   4   7
BRANCH   1  20
ATOM     18  N1  UNL     1       7.398   0.061  28.688  0.00  0.00    -0.270 N 
ATOM     19  C6  UNL     1       8.167   1.150  28.106  0.00  0.00    +0.136 C 
ATOM     20  C7  UNL     1       7.572   1.368  26.694  0.00  0.00    +0.101 C 
ATOM     21  C17 UNL     1       6.176   0.719  26.711  0.00  0.00    +0.120 C 
ATOM     22  C18 UNL     1       6.227  -0.139  27.912  0.00  0.00    +0.222 C 
ATOM     23  O4  UNL     1       5.289  -0.908  28.253  0.00  0.00    -0.275 OA
BRANCH  18  27
ATOM     24  C2  UNL     1       8.471  -1.993  32.269  0.00  0.00    +0.120 A 
ATOM     25  C3  UNL     1       9.353  -1.951  31.185  0.00  0.00    +0.047 A 
ATOM     26  C4  UNL     1       9.005  -1.281  30.009  0.00  0.00    +0.027 A 
ATOM     27  C5  UNL     1       7.757  -0.645  29.893  0.00  0.00    +0.037 A 
ATOM     28  C19 UNL     1       6.876  -0.677  30.987  0.00  0.00    +0.027 A 
ATOM     29  C20 UNL     1       7.225  -1.348  32.163  0.00  0.00    +0.047 A 
BRANCH  24  31
ATOM     30  C1  UNL     1       9.792  -2.170  34.384  0.00  0.00    +0.277 C 
ATOM     31  O1  UNL     1       8.869  -2.678  33.426  0.00  0.00    -0.495 OA
ENDBRANCH  24  31
ENDBRANCH  18  27
ENDBRANCH   1  20
TORSDOF 4
ENDMDL
