REMARK  Name = /home/qwerty/github/datacon2025hack/step_04_hit_selection/docking/ligands/lig_700.pdb
REMARK  7 active torsions:
REMARK  status: ('A' for Active; 'I' for Inactive)
REMARK    1  A    between atoms: C4_4  and  C5_5
REMARK    2  A    between atoms: C4_4  and  C6_6
REMARK    3  A    between atoms: N1_8  and  C7_9
REMARK    4  A    between atoms: C7_9  and  C8_10
REMARK    5  A    between atoms: C7_9  and  C9_11
REMARK    6  A    between atoms: C9_11  and  N2_12
REMARK    7  A    between atoms: C10_13  and  C11_15
REMARK                            x       y       z     vdW  Elec       q    Type
REMARK                         _______ _______ _______ _____ _____    ______ ____
ROOT
ATOM      1  N2  UNL     1       1.694   0.462  -0.517  0.00  0.00    -0.310 N 
ATOM      2  C10 UNL     1       2.658   1.359   0.062  0.00  0.00    +0.246 C 
ATOM      3  O2  UNL     1       2.266   2.410   0.638  0.00  0.00    -0.270 OA
ATOM      4  H15 UNL     1       1.989  -0.498  -0.801  0.00  0.00    +0.149 HD
ENDROOT
BRANCH   2   5
ATOM      5  C11 UNL     1       4.109   1.058   0.013  0.00  0.00    +0.057 A 
ATOM      6  C12 UNL     1       4.992   1.654   0.958  0.00  0.00    +0.126 A 
ATOM      7  N3  UNL     1       6.334   1.393   0.924  0.00  0.00    -0.235 NA
ATOM      8  C13 UNL     1       6.811   0.560  -0.030  0.00  0.00    +0.158 A 
ATOM      9  N4  UNL     1       8.083   0.198  -0.224  0.00  0.00    -0.329 N 
ATOM     10  C14 UNL     1       8.015  -0.623  -1.301  0.00  0.00    +0.198 A 
ATOM     11  N5  UNL     1       6.754  -0.786  -1.787  0.00  0.00    -0.234 NA
ATOM     12  C15 UNL     1       6.017  -0.025  -0.958  0.00  0.00    +0.108 A 
ATOM     13  C16 UNL     1       4.646   0.200  -0.977  0.00  0.00    +0.046 A 
ATOM     14  H17 UNL     1       8.927   0.482   0.320  0.00  0.00    +0.168 HD
ENDBRANCH   2   5
BRANCH   1  15
ATOM     15  C9  UNL     1       0.264   0.768  -0.579  0.00  0.00    +0.126 C 
BRANCH  15  16
ATOM     16  C7  UNL     1      -0.516  -0.034   0.477  0.00  0.00    +0.087 C 
ATOM     17  C8  UNL     1      -0.144   0.396   1.900  0.00  0.00    +0.029 C 
BRANCH  16  20
ATOM     18  C6  UNL     1      -2.920  -0.847   0.642  0.00  0.00    +0.220 C 
ATOM     19  O1  UNL     1      -2.540  -1.925   1.177  0.00  0.00    -0.275 OA
ATOM     20  N1  UNL     1      -1.955   0.151   0.274  0.00  0.00    -0.311 N 
ATOM     21  H8  UNL     1      -2.302   1.088  -0.035  0.00  0.00    +0.149 HD
BRANCH  18  25
ATOM     22  C1  UNL     1      -6.414  -1.709  -2.205  0.00  0.00    +0.007 C 
ATOM     23  C2  UNL     1      -5.652  -1.285  -1.201  0.00  0.00    -0.075 C 
ATOM     24  C3  UNL     1      -4.781  -0.077  -0.896  0.00  0.00    +0.046 C 
ATOM     25  C4  UNL     1      -4.398  -0.568   0.480  0.00  0.00    +0.051 C 
ATOM     26  C5  UNL     1      -4.952   0.298   1.622  0.00  0.00    +0.021 C 
ATOM     27  C17 UNL     1      -5.243  -1.783   0.176  0.00  0.00    +0.046 C 
ENDBRANCH  18  25
ENDBRANCH  16  20
ENDBRANCH  15  16
ENDBRANCH   1  15
TORSDOF 5
