MODEL 1
REMARK VINA RESULT:    -8.188      0.000      0.000
REMARK INTER + INTRA:         -10.890
REMARK INTER:                 -10.103
REMARK INTRA:                  -0.787
REMARK UNBOUND:                -0.787
REMARK  Name = /home/qwerty/github/datacon2025hack/step_04_hit_selection/docking/ligands/lig_238.pdb
REMARK  4 active torsions:
REMARK  status: ('A' for Active; 'I' for Inactive)
REMARK    1  A    between atoms: C1_2  and  C21_29
REMARK    2  A    between atoms: N1_3  and  C2_4
REMARK    3  A    between atoms: C6_10  and  C7_11
REMARK    4  A    between atoms: C9_14  and  C10_15
REMARK                            x       y       z     vdW  Elec       q    Type
REMARK                         _______ _______ _______ _____ _____    ______ ____
ROOT
ATOM      1  C2  UNL     1       9.482   5.884  20.698  0.00  0.00    +0.034 A 
ATOM      2  C3  UNL     1       8.170   5.761  21.225  0.00  0.00    +0.025 A 
ATOM      3  C4  UNL     1       7.807   4.648  22.002  0.00  0.00    +0.029 A 
ATOM      4  C5  UNL     1       8.767   3.663  22.208  0.00  0.00    +0.067 A 
ATOM      5  N2  UNL     1       8.657   2.542  22.938  0.00  0.00    -0.276 N 
ATOM      6  N3  UNL     1       9.814   1.893  22.888  0.00  0.00    -0.170 NA
ATOM      7  C6  UNL     1      10.668   2.599  22.108  0.00  0.00    +0.135 A 
ATOM      8  C19 UNL     1      10.021   3.745  21.671  0.00  0.00    +0.032 A 
ATOM      9  C20 UNL     1      10.425   4.850  20.920  0.00  0.00    +0.035 A 
ATOM     10  H4  UNL     1       7.820   2.221  23.472  0.00  0.00    +0.189 HD
ENDROOT
BRANCH   7  11
ATOM     11  C7  UNL     1      12.045   2.164  21.828  0.00  0.00    +0.160 A 
ATOM     12  N4  UNL     1      12.787   1.478  22.737  0.00  0.00    -0.225 NA
ATOM     13  C8  UNL     1      13.938   1.242  22.079  0.00  0.00    +0.100 A 
ATOM     14  C9  UNL     1      15.064   0.538  22.522  0.00  0.00    +0.028 A 
ATOM     15  C16 UNL     1      16.114   0.382  21.585  0.00  0.00    +0.121 A 
ATOM     16  N5  UNL     1      16.007   0.903  20.321  0.00  0.00    -0.260 NA
ATOM     17  C17 UNL     1      14.898   1.585  19.910  0.00  0.00    +0.138 A 
ATOM     18  C18 UNL     1      13.862   1.749  20.819  0.00  0.00    +0.085 A 
ATOM     19  N6  UNL     1      12.674   2.335  20.637  0.00  0.00    -0.335 N 
ATOM     20  H11 UNL     1      12.304   2.751  19.755  0.00  0.00    +0.167 HD
BRANCH  14  21
ATOM     21  C10 UNL     1      15.161  -0.027  23.890  0.00  0.00    -0.012 A 
ATOM     22  C11 UNL     1      15.770   0.704  24.927  0.00  0.00    +0.009 A 
ATOM     23  C12 UNL     1      15.861   0.165  26.214  0.00  0.00    +0.003 A 
ATOM     24  C13 UNL     1      15.348  -1.108  26.479  0.00  0.00    +0.038 A 
ATOM     25  C14 UNL     1      14.746  -1.845  25.457  0.00  0.00    +0.124 A 
ATOM     26  F1  UNL     1      14.248  -3.079  25.716  0.00  0.00    -0.205 F 
ATOM     27  C15 UNL     1      14.653  -1.310  24.167  0.00  0.00    +0.047 A 
ENDBRANCH  14  21
ENDBRANCH   7  11
BRANCH   1  30
ATOM     28  O1  UNL     1      10.232   8.495  21.685  0.00  0.00    -0.275 OA
ATOM     29  C1  UNL     1      10.377   8.244  20.458  0.00  0.00    +0.220 C 
ATOM     30  N1  UNL     1       9.816   7.038  19.907  0.00  0.00    -0.285 N 
ATOM     31  H1  UNL     1       9.541   7.020  18.900  0.00  0.00    +0.155 HD
BRANCH  29  32
ATOM     32  C21 UNL     1      11.114   9.260  19.618  0.00  0.00    +0.075 C 
ATOM     33  C22 UNL     1      11.785  10.391  20.382  0.00  0.00    +0.013 C 
ATOM     34  C23 UNL     1      10.541  10.669  19.548  0.00  0.00    +0.013 C 
ENDBRANCH  29  32
ENDBRANCH   1  30
TORSDOF 4
ENDMDL
MODEL 2
REMARK VINA RESULT:    -7.989     15.626     18.214
REMARK INTER + INTRA:         -10.644
REMARK INTER:                  -9.733
REMARK INTRA:                  -0.911
REMARK UNBOUND:                -0.787
REMARK  Name = /home/qwerty/github/datacon2025hack/step_04_hit_selection/docking/ligands/lig_238.pdb
REMARK  4 active torsions:
REMARK  status: ('A' for Active; 'I' for Inactive)
REMARK    1  A    between atoms: C1_2  and  C21_29
REMARK    2  A    between atoms: N1_3  and  C2_4
REMARK    3  A    between atoms: C6_10  and  C7_11
REMARK    4  A    between atoms: C9_14  and  C10_15
REMARK                            x       y       z     vdW  Elec       q    Type
REMARK                         _______ _______ _______ _____ _____    ______ ____
ROOT
ATOM      1  C2  UNL     1      22.613   8.079  35.476  0.00  0.00    +0.034 A 
ATOM      2  C3  UNL     1      22.826   7.078  36.458  0.00  0.00    +0.025 A 
ATOM      3  C4  UNL     1      21.883   6.854  37.476  0.00  0.00    +0.029 A 
ATOM      4  C5  UNL     1      20.754   7.666  37.502  0.00  0.00    +0.067 A 
ATOM      5  N2  UNL     1      19.716   7.612  38.349  0.00  0.00    -0.276 N 
ATOM      6  N3  UNL     1      18.843   8.552  38.008  0.00  0.00    -0.170 NA
ATOM      7  C6  UNL     1      19.335   9.224  36.938  0.00  0.00    +0.135 A 
ATOM      8  C19 UNL     1      20.555   8.664  36.589  0.00  0.00    +0.032 A 
ATOM      9  C20 UNL     1      21.455   8.894  35.548  0.00  0.00    +0.035 A 
ATOM     10  H4  UNL     1      19.587   6.945  39.142  0.00  0.00    +0.189 HD
ENDROOT
BRANCH   7  11
ATOM     11  C7  UNL     1      18.627  10.344  36.299  0.00  0.00    +0.160 A 
ATOM     12  N4  UNL     1      17.273  10.371  36.181  0.00  0.00    -0.225 NA
ATOM     13  C8  UNL     1      17.042  11.561  35.593  0.00  0.00    +0.100 A 
ATOM     14  C9  UNL     1      15.811  12.139  35.257  0.00  0.00    +0.028 A 
ATOM     15  C16 UNL     1      15.860  13.443  34.708  0.00  0.00    +0.121 A 
ATOM     16  N5  UNL     1      17.061  14.080  34.527  0.00  0.00    -0.260 NA
ATOM     17  C17 UNL     1      18.249  13.498  34.864  0.00  0.00    +0.138 A 
ATOM     18  C18 UNL     1      18.216  12.217  35.399  0.00  0.00    +0.085 A 
ATOM     19  N6  UNL     1      19.232  11.468  35.839  0.00  0.00    -0.335 N 
ATOM     20  H11 UNL     1      20.240  11.734  35.883  0.00  0.00    +0.167 HD
BRANCH  14  21
ATOM     21  C10 UNL     1      14.520  11.439  35.468  0.00  0.00    -0.012 A 
ATOM     22  C11 UNL     1      13.974  10.622  34.462  0.00  0.00    +0.009 A 
ATOM     23  C12 UNL     1      12.755   9.967  34.665  0.00  0.00    +0.003 A 
ATOM     24  C13 UNL     1      12.068  10.123  35.872  0.00  0.00    +0.038 A 
ATOM     25  C14 UNL     1      12.598  10.936  36.877  0.00  0.00    +0.124 A 
ATOM     26  F1  UNL     1      11.931  11.085  38.048  0.00  0.00    -0.205 F 
ATOM     27  C15 UNL     1      13.817  11.593  36.678  0.00  0.00    +0.047 A 
ENDBRANCH  14  21
ENDBRANCH   7  11
BRANCH   1  30
ATOM     28  O1  UNL     1      22.520   7.066  32.771  0.00  0.00    -0.275 OA
ATOM     29  C1  UNL     1      23.397   7.921  33.070  0.00  0.00    +0.220 C 
ATOM     30  N1  UNL     1      23.600   8.278  34.450  0.00  0.00    -0.285 N 
ATOM     31  H1  UNL     1      24.543   8.608  34.756  0.00  0.00    +0.155 HD
BRANCH  29  32
ATOM     32  C21 UNL     1      24.220   8.504  31.946  0.00  0.00    +0.075 C 
ATOM     33  C22 UNL     1      25.248   9.550  32.350  0.00  0.00    +0.013 C 
ATOM     34  C23 UNL     1      23.996   9.967  31.590  0.00  0.00    +0.013 C 
ENDBRANCH  29  32
ENDBRANCH   1  30
TORSDOF 4
ENDMDL
MODEL 3
REMARK VINA RESULT:    -7.943      5.973     11.122
REMARK INTER + INTRA:         -10.587
REMARK INTER:                  -9.806
REMARK INTRA:                  -0.781
REMARK UNBOUND:                -0.787
REMARK  Name = /home/qwerty/github/datacon2025hack/step_04_hit_selection/docking/ligands/lig_238.pdb
REMARK  4 active torsions:
REMARK  status: ('A' for Active; 'I' for Inactive)
REMARK    1  A    between atoms: C1_2  and  C21_29
REMARK    2  A    between atoms: N1_3  and  C2_4
REMARK    3  A    between atoms: C6_10  and  C7_11
REMARK    4  A    between atoms: C9_14  and  C10_15
REMARK                            x       y       z     vdW  Elec       q    Type
REMARK                         _______ _______ _______ _____ _____    ______ ____
ROOT
ATOM      1  C2  UNL     1      21.661   1.426  28.360  0.00  0.00    +0.034 A 
ATOM      2  C3  UNL     1      22.675   2.371  28.056  0.00  0.00    +0.025 A 
ATOM      3  C4  UNL     1      22.768   2.942  26.775  0.00  0.00    +0.029 A 
ATOM      4  C5  UNL     1      21.853   2.526  25.814  0.00  0.00    +0.067 A 
ATOM      5  N2  UNL     1      21.730   2.956  24.549  0.00  0.00    -0.276 N 
ATOM      6  N3  UNL     1      20.715   2.316  23.983  0.00  0.00    -0.170 NA
ATOM      7  C6  UNL     1      20.190   1.458  24.892  0.00  0.00    +0.135 A 
ATOM      8  C19 UNL     1      20.897   1.585  26.078  0.00  0.00    +0.032 A 
ATOM      9  C20 UNL     1      20.758   1.020  27.347  0.00  0.00    +0.035 A 
ATOM     10  H4  UNL     1      22.314   3.679  24.073  0.00  0.00    +0.189 HD
ENDROOT
BRANCH   7  11
ATOM     11  C7  UNL     1      19.049   0.577  24.599  0.00  0.00    +0.160 A 
ATOM     12  N4  UNL     1      18.089   0.912  23.697  0.00  0.00    -0.225 NA
ATOM     13  C8  UNL     1      17.278  -0.163  23.699  0.00  0.00    +0.100 A 
ATOM     14  C9  UNL     1      16.130  -0.388  22.927  0.00  0.00    +0.028 A 
ATOM     15  C16 UNL     1      15.507  -1.649  23.086  0.00  0.00    +0.121 A 
ATOM     16  N5  UNL     1      16.019  -2.579  23.954  0.00  0.00    -0.260 NA
ATOM     17  C17 UNL     1      17.140  -2.338  24.695  0.00  0.00    +0.138 A 
ATOM     18  C18 UNL     1      17.760  -1.105  24.553  0.00  0.00    +0.085 A 
ATOM     19  N6  UNL     1      18.880  -0.660  25.132  0.00  0.00    -0.335 N 
ATOM     20  H11 UNL     1      19.508  -1.185  25.780  0.00  0.00    +0.167 HD
BRANCH  14  21
ATOM     21  C10 UNL     1      15.594   0.626  21.987  0.00  0.00    -0.012 A 
ATOM     22  C11 UNL     1      16.231   0.871  20.756  0.00  0.00    +0.009 A 
ATOM     23  C12 UNL     1      15.723   1.830  19.875  0.00  0.00    +0.003 A 
ATOM     24  C13 UNL     1      14.578   2.556  20.212  0.00  0.00    +0.038 A 
ATOM     25  C14 UNL     1      13.939   2.325  21.433  0.00  0.00    +0.124 A 
ATOM     26  F1  UNL     1      12.827   3.029  21.759  0.00  0.00    -0.205 F 
ATOM     27  C15 UNL     1      14.444   1.366  22.319  0.00  0.00    +0.047 A 
ENDBRANCH  14  21
ENDBRANCH   7  11
BRANCH   1  30
ATOM     28  O1  UNL     1      19.969   2.306  30.531  0.00  0.00    -0.275 OA
ATOM     29  C1  UNL     1      20.591   1.216  30.649  0.00  0.00    +0.220 C 
ATOM     30  N1  UNL     1      21.598   0.864  29.682  0.00  0.00    -0.285 N 
ATOM     31  H1  UNL     1      22.387   0.244  29.973  0.00  0.00    +0.155 HD
BRANCH  29  32
ATOM     32  C21 UNL     1      20.261   0.345  31.838  0.00  0.00    +0.075 C 
ATOM     33  C22 UNL     1      18.792  -0.007  32.015  0.00  0.00    +0.013 C 
ATOM     34  C23 UNL     1      19.461   0.971  32.972  0.00  0.00    +0.013 C 
ENDBRANCH  29  32
ENDBRANCH   1  30
TORSDOF 4
ENDMDL
MODEL 4
REMARK VINA RESULT:    -7.914     12.677     14.840
REMARK INTER + INTRA:         -10.551
REMARK INTER:                  -9.572
REMARK INTRA:                  -0.979
REMARK UNBOUND:                -0.787
REMARK  Name = /home/qwerty/github/datacon2025hack/step_04_hit_selection/docking/ligands/lig_238.pdb
REMARK  4 active torsions:
REMARK  status: ('A' for Active; 'I' for Inactive)
REMARK    1  A    between atoms: C1_2  and  C21_29
REMARK    2  A    between atoms: N1_3  and  C2_4
REMARK    3  A    between atoms: C6_10  and  C7_11
REMARK    4  A    between atoms: C9_14  and  C10_15
REMARK                            x       y       z     vdW  Elec       q    Type
REMARK                         _______ _______ _______ _____ _____    ______ ____
ROOT
ATOM      1  C2  UNL     1      10.094  13.187  28.371  0.00  0.00    +0.034 A 
ATOM      2  C3  UNL     1      10.924  13.852  27.433  0.00  0.00    +0.025 A 
ATOM      3  C4  UNL     1      12.007  14.641  27.859  0.00  0.00    +0.029 A 
ATOM      4  C5  UNL     1      12.215  14.768  29.228  0.00  0.00    +0.067 A 
ATOM      5  N2  UNL     1      13.196  15.432  29.857  0.00  0.00    -0.276 N 
ATOM      6  N3  UNL     1      13.037  15.279  31.166  0.00  0.00    -0.170 NA
ATOM      7  C6  UNL     1      11.934  14.519  31.376  0.00  0.00    +0.135 A 
ATOM      8  C19 UNL     1      11.398  14.169  30.146  0.00  0.00    +0.032 A 
ATOM      9  C20 UNL     1      10.333  13.356  29.758  0.00  0.00    +0.035 A 
ATOM     10  H4  UNL     1      13.971  15.974  29.414  0.00  0.00    +0.189 HD
ENDROOT
BRANCH   7  11
ATOM     11  C7  UNL     1      11.455  14.155  32.719  0.00  0.00    +0.160 A 
ATOM     12  N4  UNL     1      11.974  13.109  33.415  0.00  0.00    -0.225 NA
ATOM     13  C8  UNL     1      11.303  13.153  34.581  0.00  0.00    +0.100 A 
ATOM     14  C9  UNL     1      11.451  12.325  35.701  0.00  0.00    +0.028 A 
ATOM     15  C16 UNL     1      10.655  12.647  36.827  0.00  0.00    +0.121 A 
ATOM     16  N5  UNL     1       9.795  13.715  36.794  0.00  0.00    -0.260 NA
ATOM     17  C17 UNL     1       9.668  14.510  35.691  0.00  0.00    +0.138 A 
ATOM     18  C18 UNL     1      10.439  14.204  34.578  0.00  0.00    +0.085 A 
ATOM     19  N6  UNL     1      10.519  14.853  33.412  0.00  0.00    -0.335 N 
ATOM     20  H11 UNL     1      10.028  15.734  33.145  0.00  0.00    +0.167 HD
BRANCH  14  21
ATOM     21  C10 UNL     1      12.392  11.179  35.723  0.00  0.00    -0.012 A 
ATOM     22  C11 UNL     1      13.651  11.296  36.341  0.00  0.00    +0.009 A 
ATOM     23  C12 UNL     1      14.536  10.213  36.356  0.00  0.00    +0.003 A 
ATOM     24  C13 UNL     1      14.175   9.005  35.753  0.00  0.00    +0.038 A 
ATOM     25  C14 UNL     1      12.930   8.879  35.133  0.00  0.00    +0.124 A 
ATOM     26  F1  UNL     1      12.581   7.705  34.550  0.00  0.00    -0.205 F 
ATOM     27  C15 UNL     1      12.041   9.960  35.115  0.00  0.00    +0.047 A 
ENDBRANCH  14  21
ENDBRANCH   7  11
BRANCH   1  30
ATOM     28  O1  UNL     1       9.996  10.303  28.216  0.00  0.00    -0.275 OA
ATOM     29  C1  UNL     1       8.934  10.958  28.037  0.00  0.00    +0.220 C 
ATOM     30  N1  UNL     1       8.996  12.390  27.897  0.00  0.00    -0.285 N 
ATOM     31  H1  UNL     1       8.261  12.878  27.338  0.00  0.00    +0.155 HD
BRANCH  29  32
ATOM     32  C21 UNL     1       7.640  10.184  27.944  0.00  0.00    +0.075 C 
ATOM     33  C22 UNL     1       7.057   9.705  29.264  0.00  0.00    +0.013 C 
ATOM     34  C23 UNL     1       7.675   8.704  28.297  0.00  0.00    +0.013 C 
ENDBRANCH  29  32
ENDBRANCH   1  30
TORSDOF 4
ENDMDL
MODEL 5
REMARK VINA RESULT:    -7.877     12.204     14.830
REMARK INTER + INTRA:         -10.506
REMARK INTER:                  -9.653
REMARK INTRA:                  -0.853
REMARK UNBOUND:                -0.787
REMARK  Name = /home/qwerty/github/datacon2025hack/step_04_hit_selection/docking/ligands/lig_238.pdb
REMARK  4 active torsions:
REMARK  status: ('A' for Active; 'I' for Inactive)
REMARK    1  A    between atoms: C1_2  and  C21_29
REMARK    2  A    between atoms: N1_3  and  C2_4
REMARK    3  A    between atoms: C6_10  and  C7_11
REMARK    4  A    between atoms: C9_14  and  C10_15
REMARK                            x       y       z     vdW  Elec       q    Type
REMARK                         _______ _______ _______ _____ _____    ______ ____
ROOT
ATOM      1  C2  UNL     1      23.098   9.324  30.960  0.00  0.00    +0.034 A 
ATOM      2  C3  UNL     1      24.285   9.975  31.384  0.00  0.00    +0.025 A 
ATOM      3  C4  UNL     1      25.168   9.351  32.283  0.00  0.00    +0.029 A 
ATOM      4  C5  UNL     1      24.821   8.092  32.761  0.00  0.00    +0.067 A 
ATOM      5  N2  UNL     1      25.519   7.301  33.589  0.00  0.00    -0.276 N 
ATOM      6  N3  UNL     1      24.838   6.177  33.772  0.00  0.00    -0.170 NA
ATOM      7  C6  UNL     1      23.686   6.255  33.063  0.00  0.00    +0.135 A 
ATOM      8  C19 UNL     1      23.659   7.470  32.396  0.00  0.00    +0.032 A 
ATOM      9  C20 UNL     1      22.776   8.048  31.483  0.00  0.00    +0.035 A 
ATOM     10  H4  UNL     1      26.447   7.508  34.020  0.00  0.00    +0.189 HD
ENDROOT
BRANCH   7  11
ATOM     11  C7  UNL     1      22.682   5.179  33.042  0.00  0.00    +0.160 A 
ATOM     12  N4  UNL     1      22.589   4.295  32.014  0.00  0.00    -0.225 NA
ATOM     13  C8  UNL     1      21.597   3.473  32.406  0.00  0.00    +0.100 A 
ATOM     14  C9  UNL     1      21.091   2.345  31.746  0.00  0.00    +0.028 A 
ATOM     15  C16 UNL     1      20.085   1.620  32.429  0.00  0.00    +0.121 A 
ATOM     16  N5  UNL     1      19.650   2.021  33.666  0.00  0.00    -0.260 NA
ATOM     17  C17 UNL     1      20.160   3.123  34.291  0.00  0.00    +0.138 A 
ATOM     18  C18 UNL     1      21.144   3.847  33.632  0.00  0.00    +0.085 A 
ATOM     19  N6  UNL     1      21.815   4.923  34.055  0.00  0.00    -0.335 N 
ATOM     20  H11 UNL     1      21.734   5.393  34.983  0.00  0.00    +0.167 HD
BRANCH  14  21
ATOM     21  C10 UNL     1      21.579   1.920  30.412  0.00  0.00    -0.012 A 
ATOM     22  C11 UNL     1      20.741   1.997  29.284  0.00  0.00    +0.009 A 
ATOM     23  C12 UNL     1      21.205   1.591  28.028  0.00  0.00    +0.003 A 
ATOM     24  C13 UNL     1      22.507   1.103  27.887  0.00  0.00    +0.038 A 
ATOM     25  C14 UNL     1      23.346   1.017  29.000  0.00  0.00    +0.124 A 
ATOM     26  F1  UNL     1      24.609   0.544  28.861  0.00  0.00    -0.205 F 
ATOM     27  C15 UNL     1      22.885   1.422  30.258  0.00  0.00    +0.047 A 
ENDBRANCH  14  21
ENDBRANCH   7  11
BRANCH   1  30
ATOM     28  O1  UNL     1      20.813  10.959  31.635  0.00  0.00    -0.275 OA
ATOM     29  C1  UNL     1      21.228  10.956  30.444  0.00  0.00    +0.220 C 
ATOM     30  N1  UNL     1      22.220   9.995  30.039  0.00  0.00    -0.285 N 
ATOM     31  H1  UNL     1      22.250   9.685  29.042  0.00  0.00    +0.155 HD
BRANCH  29  32
ATOM     32  C21 UNL     1      20.621  11.956  29.489  0.00  0.00    +0.075 C 
ATOM     33  C22 UNL     1      21.336  13.294  29.388  0.00  0.00    +0.013 C 
ATOM     34  C23 UNL     1      19.984  13.204  30.083  0.00  0.00    +0.013 C 
ENDBRANCH  29  32
ENDBRANCH   1  30
TORSDOF 4
ENDMDL
MODEL 6
REMARK VINA RESULT:    -7.821      6.461      9.185
REMARK INTER + INTRA:         -10.437
REMARK INTER:                  -9.673
REMARK INTRA:                  -0.764
REMARK UNBOUND:                -0.787
REMARK  Name = /home/qwerty/github/datacon2025hack/step_04_hit_selection/docking/ligands/lig_238.pdb
REMARK  4 active torsions:
REMARK  status: ('A' for Active; 'I' for Inactive)
REMARK    1  A    between atoms: C1_2  and  C21_29
REMARK    2  A    between atoms: N1_3  and  C2_4
REMARK    3  A    between atoms: C6_10  and  C7_11
REMARK    4  A    between atoms: C9_14  and  C10_15
REMARK                            x       y       z     vdW  Elec       q    Type
REMARK                         _______ _______ _______ _____ _____    ______ ____
ROOT
ATOM      1  C2  UNL     1       8.941  12.444  28.282  0.00  0.00    +0.034 A 
ATOM      2  C3  UNL     1       8.274  12.130  29.494  0.00  0.00    +0.025 A 
ATOM      3  C4  UNL     1       7.539  10.939  29.626  0.00  0.00    +0.029 A 
ATOM      4  C5  UNL     1       7.466  10.099  28.520  0.00  0.00    +0.067 A 
ATOM      5  N2  UNL     1       6.859   8.907  28.426  0.00  0.00    -0.276 N 
ATOM      6  N3  UNL     1       7.051   8.431  27.201  0.00  0.00    -0.170 NA
ATOM      7  C6  UNL     1       7.778   9.335  26.501  0.00  0.00    +0.135 A 
ATOM      8  C19 UNL     1       8.067  10.408  27.331  0.00  0.00    +0.032 A 
ATOM      9  C20 UNL     1       8.828  11.567  27.175  0.00  0.00    +0.035 A 
ATOM     10  H4  UNL     1       6.330   8.411  29.177  0.00  0.00    +0.189 HD
ENDROOT
BRANCH   7  11
ATOM     11  C7  UNL     1       8.170   9.135  25.097  0.00  0.00    +0.160 A 
ATOM     12  N4  UNL     1       8.395   7.899  24.578  0.00  0.00    -0.225 NA
ATOM     13  C8  UNL     1       8.678   8.156  23.286  0.00  0.00    +0.100 A 
ATOM     14  C9  UNL     1       8.961   7.245  22.260  0.00  0.00    +0.028 A 
ATOM     15  C16 UNL     1       9.154   7.796  20.970  0.00  0.00    +0.121 A 
ATOM     16  N5  UNL     1       9.063   9.149  20.766  0.00  0.00    -0.260 NA
ATOM     17  C17 UNL     1       8.784  10.018  21.781  0.00  0.00    +0.138 A 
ATOM     18  C18 UNL     1       8.597   9.493  23.053  0.00  0.00    +0.085 A 
ATOM     19  N6  UNL     1       8.276  10.132  24.183  0.00  0.00    -0.335 N 
ATOM     20  H11 UNL     1       8.078  11.150  24.298  0.00  0.00    +0.167 HD
BRANCH  14  21
ATOM     21  C10 UNL     1       9.048   5.783  22.497  0.00  0.00    -0.012 A 
ATOM     22  C11 UNL     1       7.889   5.029  22.755  0.00  0.00    +0.009 A 
ATOM     23  C12 UNL     1       7.977   3.651  22.980  0.00  0.00    +0.003 A 
ATOM     24  C13 UNL     1       9.220   3.015  22.953  0.00  0.00    +0.038 A 
ATOM     25  C14 UNL     1      10.378   3.755  22.703  0.00  0.00    +0.124 A 
ATOM     26  F1  UNL     1      11.584   3.135  22.676  0.00  0.00    -0.205 F 
ATOM     27  C15 UNL     1      10.295   5.133  22.477  0.00  0.00    +0.047 A 
ENDBRANCH  14  21
ENDBRANCH   7  11
BRANCH   1  30
ATOM     28  O1  UNL     1      11.680  12.874  29.095  0.00  0.00    -0.275 OA
ATOM     29  C1  UNL     1      11.100  13.765  28.418  0.00  0.00    +0.220 C 
ATOM     30  N1  UNL     1       9.682  13.672  28.186  0.00  0.00    -0.285 N 
ATOM     31  H1  UNL     1       9.134  14.548  28.036  0.00  0.00    +0.155 HD
BRANCH  29  32
ATOM     32  C21 UNL     1      11.937  14.916  27.911  0.00  0.00    +0.075 C 
ATOM     33  C22 UNL     1      12.757  14.640  26.660  0.00  0.00    +0.013 C 
ATOM     34  C23 UNL     1      13.450  14.786  28.008  0.00  0.00    +0.013 C 
ENDBRANCH  29  32
ENDBRANCH   1  30
TORSDOF 4
ENDMDL
MODEL 7
REMARK VINA RESULT:    -7.665     15.330     18.315
REMARK INTER + INTRA:         -10.244
REMARK INTER:                  -9.243
REMARK INTRA:                  -1.001
REMARK UNBOUND:                -0.787
REMARK  Name = /home/qwerty/github/datacon2025hack/step_04_hit_selection/docking/ligands/lig_238.pdb
REMARK  4 active torsions:
REMARK  status: ('A' for Active; 'I' for Inactive)
REMARK    1  A    between atoms: C1_2  and  C21_29
REMARK    2  A    between atoms: N1_3  and  C2_4
REMARK    3  A    between atoms: C6_10  and  C7_11
REMARK    4  A    between atoms: C9_14  and  C10_15
REMARK                            x       y       z     vdW  Elec       q    Type
REMARK                         _______ _______ _______ _____ _____    ______ ____
ROOT
ATOM      1  C2  UNL     1      22.664   8.122  35.471  0.00  0.00    +0.034 A 
ATOM      2  C3  UNL     1      22.847   7.016  36.342  0.00  0.00    +0.025 A 
ATOM      3  C4  UNL     1      21.911   6.731  37.351  0.00  0.00    +0.029 A 
ATOM      4  C5  UNL     1      20.822   7.586  37.483  0.00  0.00    +0.067 A 
ATOM      5  N2  UNL     1      19.796   7.490  38.342  0.00  0.00    -0.276 N 
ATOM      6  N3  UNL     1      18.963   8.499  38.117  0.00  0.00    -0.170 NA
ATOM      7  C6  UNL     1      19.468   9.255  37.111  0.00  0.00    +0.135 A 
ATOM      8  C19 UNL     1      20.654   8.680  36.681  0.00  0.00    +0.032 A 
ATOM      9  C20 UNL     1      21.547   8.976  35.650  0.00  0.00    +0.035 A 
ATOM     10  H4  UNL     1      19.650   6.752  39.065  0.00  0.00    +0.189 HD
ENDROOT
BRANCH   7  11
ATOM     11  C7  UNL     1      18.802  10.465  36.605  0.00  0.00    +0.160 A 
ATOM     12  N4  UNL     1      18.948  10.888  35.322  0.00  0.00    -0.225 NA
ATOM     13  C8  UNL     1      18.155  11.976  35.266  0.00  0.00    +0.100 A 
ATOM     14  C9  UNL     1      17.890  12.803  34.167  0.00  0.00    +0.028 A 
ATOM     15  C16 UNL     1      16.953  13.843  34.378  0.00  0.00    +0.121 A 
ATOM     16  N5  UNL     1      16.354  14.008  35.601  0.00  0.00    -0.260 NA
ATOM     17  C17 UNL     1      16.627  13.188  36.658  0.00  0.00    +0.138 A 
ATOM     18  C18 UNL     1      17.547  12.166  36.467  0.00  0.00    +0.085 A 
ATOM     19  N6  UNL     1      17.939  11.222  37.329  0.00  0.00    -0.335 N 
ATOM     20  H11 UNL     1      17.592  11.072  38.301  0.00  0.00    +0.167 HD
BRANCH  14  21
ATOM     21  C10 UNL     1      18.541  12.605  32.849  0.00  0.00    -0.012 A 
ATOM     22  C11 UNL     1      18.164  11.536  32.016  0.00  0.00    +0.009 A 
ATOM     23  C12 UNL     1      18.783  11.353  30.775  0.00  0.00    +0.003 A 
ATOM     24  C13 UNL     1      19.784  12.231  30.355  0.00  0.00    +0.038 A 
ATOM     25  C14 UNL     1      20.171  13.294  31.176  0.00  0.00    +0.124 A 
ATOM     26  F1  UNL     1      21.142  14.147  30.766  0.00  0.00    -0.205 F 
ATOM     27  C15 UNL     1      19.555  13.481  32.418  0.00  0.00    +0.047 A 
ENDBRANCH  14  21
ENDBRANCH   7  11
BRANCH   1  30
ATOM     28  O1  UNL     1      22.750   6.961  32.826  0.00  0.00    -0.275 OA
ATOM     29  C1  UNL     1      23.513   7.929  33.090  0.00  0.00    +0.220 C 
ATOM     30  N1  UNL     1      23.643   8.382  34.451  0.00  0.00    -0.285 N 
ATOM     31  H1  UNL     1      24.533   8.838  34.751  0.00  0.00    +0.155 HD
BRANCH  29  32
ATOM     32  C21 UNL     1      24.285   8.544  31.947  0.00  0.00    +0.075 C 
ATOM     33  C22 UNL     1      25.398   9.504  32.339  0.00  0.00    +0.013 C 
ATOM     34  C23 UNL     1      24.121  10.038  31.705  0.00  0.00    +0.013 C 
ENDBRANCH  29  32
ENDBRANCH   1  30
TORSDOF 4
ENDMDL
MODEL 8
REMARK VINA RESULT:    -7.604     15.389     16.967
REMARK INTER + INTRA:         -10.170
REMARK INTER:                  -9.221
REMARK INTRA:                  -0.949
REMARK UNBOUND:                -0.787
REMARK  Name = /home/qwerty/github/datacon2025hack/step_04_hit_selection/docking/ligands/lig_238.pdb
REMARK  4 active torsions:
REMARK  status: ('A' for Active; 'I' for Inactive)
REMARK    1  A    between atoms: C1_2  and  C21_29
REMARK    2  A    between atoms: N1_3  and  C2_4
REMARK    3  A    between atoms: C6_10  and  C7_11
REMARK    4  A    between atoms: C9_14  and  C10_15
REMARK                            x       y       z     vdW  Elec       q    Type
REMARK                         _______ _______ _______ _____ _____    ______ ____
ROOT
ATOM      1  C2  UNL     1      19.507  13.079  33.669  0.00  0.00    +0.034 A 
ATOM      2  C3  UNL     1      18.331  13.776  34.050  0.00  0.00    +0.025 A 
ATOM      3  C4  UNL     1      17.574  13.359  35.159  0.00  0.00    +0.029 A 
ATOM      4  C5  UNL     1      18.000  12.226  35.844  0.00  0.00    +0.067 A 
ATOM      5  N2  UNL     1      17.461  11.672  36.940  0.00  0.00    -0.276 N 
ATOM      6  N3  UNL     1      18.191  10.617  37.282  0.00  0.00    -0.170 NA
ATOM      7  C6  UNL     1      19.201  10.489  36.387  0.00  0.00    +0.135 A 
ATOM      8  C19 UNL     1      19.105  11.518  35.462  0.00  0.00    +0.032 A 
ATOM      9  C20 UNL     1      19.897  11.921  34.386  0.00  0.00    +0.035 A 
ATOM     10  H4  UNL     1      16.618  12.002  37.460  0.00  0.00    +0.189 HD
ENDROOT
BRANCH   7  11
ATOM     11  C7  UNL     1      20.204   9.415  36.458  0.00  0.00    +0.160 A 
ATOM     12  N4  UNL     1      20.944   9.042  35.380  0.00  0.00    -0.225 NA
ATOM     13  C8  UNL     1      21.749   8.084  35.878  0.00  0.00    +0.100 A 
ATOM     14  C9  UNL     1      22.752   7.362  35.217  0.00  0.00    +0.028 A 
ATOM     15  C16 UNL     1      23.498   6.458  36.011  0.00  0.00    +0.121 A 
ATOM     16  N5  UNL     1      23.232   6.317  37.349  0.00  0.00    -0.260 NA
ATOM     17  C17 UNL     1      22.250   7.033  37.972  0.00  0.00    +0.138 A 
ATOM     18  C18 UNL     1      21.508   7.921  37.206  0.00  0.00    +0.085 A 
ATOM     19  N6  UNL     1      20.536   8.752  37.595  0.00  0.00    -0.335 N 
ATOM     20  H11 UNL     1      20.183   8.900  38.566  0.00  0.00    +0.167 HD
BRANCH  14  21
ATOM     21  C10 UNL     1      23.033   7.533  33.771  0.00  0.00    -0.012 A 
ATOM     22  C11 UNL     1      22.552   6.601  32.832  0.00  0.00    +0.009 A 
ATOM     23  C12 UNL     1      22.823   6.765  31.470  0.00  0.00    +0.003 A 
ATOM     24  C13 UNL     1      23.576   7.857  31.032  0.00  0.00    +0.038 A 
ATOM     25  C14 UNL     1      24.063   8.786  31.955  0.00  0.00    +0.124 A 
ATOM     26  F1  UNL     1      24.793   9.846  31.528  0.00  0.00    -0.205 F 
ATOM     27  C15 UNL     1      23.795   8.626  33.319  0.00  0.00    +0.047 A 
ENDBRANCH  14  21
ENDBRANCH   7  11
BRANCH   1  30
ATOM     28  O1  UNL     1      19.053  12.362  30.906  0.00  0.00    -0.275 OA
ATOM     29  C1  UNL     1      19.851  13.303  31.167  0.00  0.00    +0.220 C 
ATOM     30  N1  UNL     1      20.255  13.535  32.529  0.00  0.00    -0.285 N 
ATOM     31  H1  UNL     1      21.186  13.970  32.715  0.00  0.00    +0.155 HD
BRANCH  29  32
ATOM     32  C21 UNL     1      20.371  14.122  30.009  0.00  0.00    +0.075 C 
ATOM     33  C22 UNL     1      21.883  14.256  29.918  0.00  0.00    +0.013 C 
ATOM     34  C23 UNL     1      21.036  15.453  30.328  0.00  0.00    +0.013 C 
ENDBRANCH  29  32
ENDBRANCH   1  30
TORSDOF 4
ENDMDL
MODEL 9
REMARK VINA RESULT:    -7.525     10.652     13.787
REMARK INTER + INTRA:         -10.071
REMARK INTER:                  -9.458
REMARK INTRA:                  -0.613
REMARK UNBOUND:                -0.787
REMARK  Name = /home/qwerty/github/datacon2025hack/step_04_hit_selection/docking/ligands/lig_238.pdb
REMARK  4 active torsions:
REMARK  status: ('A' for Active; 'I' for Inactive)
REMARK    1  A    between atoms: C1_2  and  C21_29
REMARK    2  A    between atoms: N1_3  and  C2_4
REMARK    3  A    between atoms: C6_10  and  C7_11
REMARK    4  A    between atoms: C9_14  and  C10_15
REMARK                            x       y       z     vdW  Elec       q    Type
REMARK                         _______ _______ _______ _____ _____    ______ ____
ROOT
ATOM      1  C2  UNL     1      12.240  12.967  32.475  0.00  0.00    +0.034 A 
ATOM      2  C3  UNL     1      13.002  14.154  32.318  0.00  0.00    +0.025 A 
ATOM      3  C4  UNL     1      12.910  14.919  31.143  0.00  0.00    +0.029 A 
ATOM      4  C5  UNL     1      12.074  14.456  30.133  0.00  0.00    +0.067 A 
ATOM      5  N2  UNL     1      11.805  15.033  28.953  0.00  0.00    -0.276 N 
ATOM      6  N3  UNL     1      10.937  14.270  28.298  0.00  0.00    -0.170 NA
ATOM      7  C6  UNL     1      10.658  13.187  29.064  0.00  0.00    +0.135 A 
ATOM      8  C19 UNL     1      11.367  13.292  30.251  0.00  0.00    +0.032 A 
ATOM      9  C20 UNL     1      11.411  12.524  31.416  0.00  0.00    +0.035 A 
ATOM     10  H4  UNL     1      12.190  15.934  28.593  0.00  0.00    +0.189 HD
ENDROOT
BRANCH   7  11
ATOM     11  C7  UNL     1       9.734  12.123  28.642  0.00  0.00    +0.160 A 
ATOM     12  N4  UNL     1       9.695  11.664  27.363  0.00  0.00    -0.225 NA
ATOM     13  C8  UNL     1       8.768  10.687  27.417  0.00  0.00    +0.100 A 
ATOM     14  C9  UNL     1       8.337   9.840  26.388  0.00  0.00    +0.028 A 
ATOM     15  C16 UNL     1       7.393   8.849  26.748  0.00  0.00    +0.121 A 
ATOM     16  N5  UNL     1       6.943   8.747  28.039  0.00  0.00    -0.260 NA
ATOM     17  C17 UNL     1       7.379   9.583  29.027  0.00  0.00    +0.138 A 
ATOM     18  C18 UNL     1       8.301  10.563  28.688  0.00  0.00    +0.085 A 
ATOM     19  N6  UNL     1       8.899  11.459  29.480  0.00  0.00    -0.335 N 
ATOM     20  H11 UNL     1       8.793  11.557  30.514  0.00  0.00    +0.167 HD
BRANCH  14  21
ATOM     21  C10 UNL     1       8.841   9.959  24.998  0.00  0.00    -0.012 A 
ATOM     22  C11 UNL     1      10.214   9.832  24.719  0.00  0.00    +0.009 A 
ATOM     23  C12 UNL     1      10.684   9.948  23.407  0.00  0.00    +0.003 A 
ATOM     24  C13 UNL     1       9.790  10.193  22.362  0.00  0.00    +0.038 A 
ATOM     25  C14 UNL     1       8.425  10.326  22.627  0.00  0.00    +0.124 A 
ATOM     26  F1  UNL     1       7.558  10.563  21.611  0.00  0.00    -0.205 F 
ATOM     27  C15 UNL     1       7.950  10.211  23.938  0.00  0.00    +0.047 A 
ENDBRANCH  14  21
ENDBRANCH   7  11
BRANCH   1  30
ATOM     28  O1  UNL     1      10.700  13.332  34.893  0.00  0.00    -0.275 OA
ATOM     29  C1  UNL     1      11.428  12.308  34.784  0.00  0.00    +0.220 C 
ATOM     30  N1  UNL     1      12.361  12.211  33.692  0.00  0.00    -0.285 N 
ATOM     31  H1  UNL     1      13.228  11.642  33.814  0.00  0.00    +0.155 HD
BRANCH  29  32
ATOM     32  C21 UNL     1      11.298  11.240  35.845  0.00  0.00    +0.075 C 
ATOM     33  C22 UNL     1      10.965  11.733  37.245  0.00  0.00    +0.013 C 
ATOM     34  C23 UNL     1      12.357  11.198  36.938  0.00  0.00    +0.013 C 
ENDBRANCH  29  32
ENDBRANCH   1  30
TORSDOF 4
ENDMDL
