MODEL 1
REMARK VINA RESULT:    -7.453      0.000      0.000
REMARK INTER + INTRA:          -9.869
REMARK INTER:                  -9.196
REMARK INTRA:                  -0.673
REMARK UNBOUND:                -0.673
REMARK  Name = /home/qwerty/github/datacon2025hack/step_04_hit_selection/docking/ligands/lig_610.pdb
REMARK  6 active torsions:
REMARK  status: ('A' for Active; 'I' for Inactive)
REMARK    1  A    between atoms: C1_1  and  C2_2
REMARK    2  A    between atoms: C5_5  and  C6_6
REMARK    3  A    between atoms: C9_11  and  N2_12
REMARK    4  A    between atoms: N2_12  and  C10_13
REMARK    5  A    between atoms: C13_17  and  C14_18
REMARK    6  A    between atoms: C16_25  and  C17_26
REMARK                            x       y       z     vdW  Elec       q    Type
REMARK                         _______ _______ _______ _____ _____    ______ ____
ROOT
ATOM      1  C6  UNL     1      17.637  -0.834  24.224  0.00  0.00    +0.282 C 
ATOM      2  O1  UNL     1      17.604  -2.003  24.697  0.00  0.00    -0.267 OA
ATOM      3  N1  UNL     1      18.260   0.225  24.972  0.00  0.00    -0.292 N 
ATOM      4  C7  UNL     1      19.435   0.861  24.348  0.00  0.00    +0.110 C 
ATOM      5  C8  UNL     1      20.315   1.572  25.377  0.00  0.00    +0.041 C 
ATOM      6  C9  UNL     1      19.460   2.540  26.202  0.00  0.00    +0.075 C 
ATOM      7  C15 UNL     1      18.228   1.871  26.859  0.00  0.00    +0.044 C 
ATOM      8  C16 UNL     1      17.983   0.405  26.417  0.00  0.00    +0.075 C 
ATOM      9  C17 UNL     1      16.541   0.009  26.789  0.00  0.00    +0.028 C 
ENDROOT
BRANCH   1  14
ATOM     10  C1  UNL     1      16.793  -1.239  19.404  0.00  0.00    +0.086 C 
ATOM     11  C2  UNL     1      16.704  -0.734  20.804  0.00  0.00    +0.103 A 
ATOM     12  C3  UNL     1      15.867   0.272  21.247  0.00  0.00    +0.045 A 
ATOM     13  C4  UNL     1      16.102   0.382  22.602  0.00  0.00    +0.055 A 
ATOM     14  C5  UNL     1      17.060  -0.571  22.897  0.00  0.00    +0.190 A 
ATOM     15  O2  UNL     1      17.397  -1.221  21.806  0.00  0.00    -0.455 OA
ENDBRANCH   1  14
BRANCH   6  16
ATOM     16  N2  UNL     1      20.268   3.297  27.171  0.00  0.00    -0.325 N 
ATOM     17  H11 UNL     1      20.505   4.280  26.903  0.00  0.00    +0.148 HD
BRANCH  16  18
ATOM     18  C10 UNL     1      20.875   2.804  28.381  0.00  0.00    +0.138 A 
ATOM     19  C11 UNL     1      20.543   3.286  29.658  0.00  0.00    +0.154 A 
ATOM     20  N3  UNL     1      21.167   2.778  30.751  0.00  0.00    -0.258 NA
ATOM     21  C12 UNL     1      22.115   1.811  30.641  0.00  0.00    +0.142 A 
ATOM     22  C13 UNL     1      22.462   1.331  29.373  0.00  0.00    +0.131 A 
ATOM     23  N8  UNL     1      21.834   1.843  28.282  0.00  0.00    -0.226 NA
BRANCH  22  24
ATOM     24  C14 UNL     1      23.487   0.289  29.203  0.00  0.00    +0.224 A 
ATOM     25  N4  UNL     1      23.210  -1.010  28.969  0.00  0.00    -0.106 NA
ATOM     26  N5  UNL     1      24.392  -1.598  28.881  0.00  0.00    -0.048 NA
ATOM     27  N6  UNL     1      25.340  -0.693  29.053  0.00  0.00    -0.176 N 
ATOM     28  N7  UNL     1      24.816   0.503  29.257  0.00  0.00    -0.131 NA
ATOM     29  H14 UNL     1      26.363  -0.895  29.029  0.00  0.00    +0.214 HD
ENDBRANCH  22  24
ENDBRANCH  16  18
ENDBRANCH   6  16
TORSDOF 4
ENDMDL
MODEL 2
REMARK VINA RESULT:    -7.150      6.017     10.413
REMARK INTER + INTRA:          -9.496
REMARK INTER:                  -8.821
REMARK INTRA:                  -0.675
REMARK UNBOUND:                -0.673
REMARK  Name = /home/qwerty/github/datacon2025hack/step_04_hit_selection/docking/ligands/lig_610.pdb
REMARK  6 active torsions:
REMARK  status: ('A' for Active; 'I' for Inactive)
REMARK    1  A    between atoms: C1_1  and  C2_2
REMARK    2  A    between atoms: C5_5  and  C6_6
REMARK    3  A    between atoms: C9_11  and  N2_12
REMARK    4  A    between atoms: N2_12  and  C10_13
REMARK    5  A    between atoms: C13_17  and  C14_18
REMARK    6  A    between atoms: C16_25  and  C17_26
REMARK                            x       y       z     vdW  Elec       q    Type
REMARK                         _______ _______ _______ _____ _____    ______ ____
ROOT
ATOM      1  C6  UNL     1      23.177   5.902  34.439  0.00  0.00    +0.282 C 
ATOM      2  O1  UNL     1      24.404   6.062  34.196  0.00  0.00    -0.267 OA
ATOM      3  N1  UNL     1      22.351   5.176  33.510  0.00  0.00    -0.292 N 
ATOM      4  C7  UNL     1      21.735   3.936  34.016  0.00  0.00    +0.110 C 
ATOM      5  C8  UNL     1      21.330   2.993  32.882  0.00  0.00    +0.041 C 
ATOM      6  C9  UNL     1      20.453   3.748  31.877  0.00  0.00    +0.075 C 
ATOM      7  C15 UNL     1      21.101   5.049  31.343  0.00  0.00    +0.044 C 
ATOM      8  C16 UNL     1      22.423   5.444  32.054  0.00  0.00    +0.075 C 
ATOM      9  C17 UNL     1      22.728   6.922  31.745  0.00  0.00    +0.028 C 
ENDROOT
BRANCH   1  14
ATOM     10  C1  UNL     1      19.950   7.952  37.519  0.00  0.00    +0.086 C 
ATOM     11  C2  UNL     1      21.214   7.341  37.018  0.00  0.00    +0.103 A 
ATOM     12  C3  UNL     1      22.333   7.064  37.778  0.00  0.00    +0.045 A 
ATOM     13  C4  UNL     1      23.237   6.484  36.913  0.00  0.00    +0.055 A 
ATOM     14  C5  UNL     1      22.606   6.438  35.683  0.00  0.00    +0.190 A 
ATOM     15  O2  UNL     1      21.401   6.954  35.778  0.00  0.00    -0.455 OA
ENDBRANCH   1  14
BRANCH   6  16
ATOM     16  N2  UNL     1      19.984   2.872  30.792  0.00  0.00    -0.325 N 
ATOM     17  H11 UNL     1      19.052   2.420  30.937  0.00  0.00    +0.148 HD
BRANCH  16  18
ATOM     18  C10 UNL     1      20.712   2.466  29.617  0.00  0.00    +0.138 A 
ATOM     19  C11 UNL     1      20.509   3.042  28.351  0.00  0.00    +0.154 A 
ATOM     20  N3  UNL     1      21.228   2.597  27.288  0.00  0.00    -0.258 NA
ATOM     21  C12 UNL     1      22.141   1.601  27.416  0.00  0.00    +0.142 A 
ATOM     22  C13 UNL     1      22.344   1.012  28.670  0.00  0.00    +0.131 A 
ATOM     23  N8  UNL     1      21.622   1.460  29.731  0.00  0.00    -0.226 NA
BRANCH  22  24
ATOM     24  C14 UNL     1      23.317  -0.075  28.857  0.00  0.00    +0.224 A 
ATOM     25  N4  UNL     1      24.624   0.120  29.128  0.00  0.00    -0.106 NA
ATOM     26  N5  UNL     1      25.137  -1.095  29.220  0.00  0.00    -0.048 NA
ATOM     27  N6  UNL     1      24.182  -1.986  29.014  0.00  0.00    -0.176 N 
ATOM     28  N7  UNL     1      23.026  -1.389  28.784  0.00  0.00    -0.131 NA
ATOM     29  H14 UNL     1      24.322  -3.019  29.033  0.00  0.00    +0.214 HD
ENDBRANCH  22  24
ENDBRANCH  16  18
ENDBRANCH   6  16
TORSDOF 4
ENDMDL
MODEL 3
REMARK VINA RESULT:    -7.058      6.779     10.998
REMARK INTER + INTRA:          -9.382
REMARK INTER:                  -8.731
REMARK INTRA:                  -0.651
REMARK UNBOUND:                -0.673
REMARK  Name = /home/qwerty/github/datacon2025hack/step_04_hit_selection/docking/ligands/lig_610.pdb
REMARK  6 active torsions:
REMARK  status: ('A' for Active; 'I' for Inactive)
REMARK    1  A    between atoms: C1_1  and  C2_2
REMARK    2  A    between atoms: C5_5  and  C6_6
REMARK    3  A    between atoms: C9_11  and  N2_12
REMARK    4  A    between atoms: N2_12  and  C10_13
REMARK    5  A    between atoms: C13_17  and  C14_18
REMARK    6  A    between atoms: C16_25  and  C17_26
REMARK                            x       y       z     vdW  Elec       q    Type
REMARK                         _______ _______ _______ _____ _____    ______ ____
ROOT
ATOM      1  C6  UNL     1      22.181   7.814  35.433  0.00  0.00    +0.282 C 
ATOM      2  O1  UNL     1      22.934   7.686  36.437  0.00  0.00    -0.267 OA
ATOM      3  N1  UNL     1      21.976   6.701  34.544  0.00  0.00    -0.292 N 
ATOM      4  C7  UNL     1      20.595   6.194  34.441  0.00  0.00    +0.110 C 
ATOM      5  C8  UNL     1      20.550   4.757  33.920  0.00  0.00    +0.041 C 
ATOM      6  C9  UNL     1      21.338   4.663  32.608  0.00  0.00    +0.075 C 
ATOM      7  C15 UNL     1      22.789   5.192  32.718  0.00  0.00    +0.044 C 
ATOM      8  C16 UNL     1      23.117   5.885  34.066  0.00  0.00    +0.075 C 
ATOM      9  C17 UNL     1      24.402   6.720  33.894  0.00  0.00    +0.028 C 
ENDROOT
BRANCH   1  14
ATOM     10  C1  UNL     1      19.610  11.900  36.325  0.00  0.00    +0.086 C 
ATOM     11  C2  UNL     1      20.371  10.860  35.576  0.00  0.00    +0.103 A 
ATOM     12  C3  UNL     1      20.686  10.903  34.232  0.00  0.00    +0.045 A 
ATOM     13  C4  UNL     1      21.413   9.756  33.983  0.00  0.00    +0.055 A 
ATOM     14  C5  UNL     1      21.499   9.095  35.194  0.00  0.00    +0.190 A 
ATOM     15  O2  UNL     1      20.871   9.777  36.125  0.00  0.00    -0.455 OA
ENDBRANCH   1  14
BRANCH   6  16
ATOM     16  N2  UNL     1      21.279   3.311  32.029  0.00  0.00    -0.325 N 
ATOM     17  H11 UNL     1      21.051   2.536  32.694  0.00  0.00    +0.148 HD
BRANCH  16  18
ATOM     18  C10 UNL     1      21.623   2.917  30.687  0.00  0.00    +0.138 A 
ATOM     19  C11 UNL     1      21.139   3.577  29.545  0.00  0.00    +0.154 A 
ATOM     20  N3  UNL     1      21.501   3.140  28.312  0.00  0.00    -0.258 NA
ATOM     21  C12 UNL     1      22.321   2.070  28.152  0.00  0.00    +0.142 A 
ATOM     22  C13 UNL     1      22.801   1.397  29.281  0.00  0.00    +0.131 A 
ATOM     23  N8  UNL     1      22.436   1.839  30.514  0.00  0.00    -0.226 NA
BRANCH  22  24
ATOM     24  C14 UNL     1      23.688   0.229  29.159  0.00  0.00    +0.224 A 
ATOM     25  N4  UNL     1      23.258  -1.017  28.872  0.00  0.00    -0.106 NA
ATOM     26  N5  UNL     1      24.354  -1.758  28.854  0.00  0.00    -0.048 NA
ATOM     27  N6  UNL     1      25.399  -0.992  29.119  0.00  0.00    -0.176 N 
ATOM     28  N7  UNL     1      25.026   0.260  29.315  0.00  0.00    -0.131 NA
ATOM     29  H14 UNL     1      26.384  -1.330  29.164  0.00  0.00    +0.214 HD
ENDBRANCH  22  24
ENDBRANCH  16  18
ENDBRANCH   6  16
TORSDOF 4
ENDMDL
MODEL 4
REMARK VINA RESULT:    -6.966      2.097      2.825
REMARK INTER + INTRA:          -9.268
REMARK INTER:                  -8.641
REMARK INTRA:                  -0.627
REMARK UNBOUND:                -0.673
REMARK  Name = /home/qwerty/github/datacon2025hack/step_04_hit_selection/docking/ligands/lig_610.pdb
REMARK  6 active torsions:
REMARK  status: ('A' for Active; 'I' for Inactive)
REMARK    1  A    between atoms: C1_1  and  C2_2
REMARK    2  A    between atoms: C5_5  and  C6_6
REMARK    3  A    between atoms: C9_11  and  N2_12
REMARK    4  A    between atoms: N2_12  and  C10_13
REMARK    5  A    between atoms: C13_17  and  C14_18
REMARK    6  A    between atoms: C16_25  and  C17_26
REMARK                            x       y       z     vdW  Elec       q    Type
REMARK                         _______ _______ _______ _____ _____    ______ ____
ROOT
ATOM      1  C6  UNL     1      15.713  -0.472  22.950  0.00  0.00    +0.282 C 
ATOM      2  O1  UNL     1      15.972  -1.491  22.254  0.00  0.00    -0.267 OA
ATOM      3  N1  UNL     1      16.730   0.097  23.794  0.00  0.00    -0.292 N 
ATOM      4  C7  UNL     1      17.145   1.476  23.478  0.00  0.00    +0.110 C 
ATOM      5  C8  UNL     1      18.526   1.803  24.049  0.00  0.00    +0.041 C 
ATOM      6  C9  UNL     1      18.550   1.484  25.548  0.00  0.00    +0.075 C 
ATOM      7  C15 UNL     1      18.117   0.035  25.879  0.00  0.00    +0.044 C 
ATOM      8  C16 UNL     1      17.565  -0.761  24.667  0.00  0.00    +0.075 C 
ATOM      9  C17 UNL     1      16.794  -1.989  25.191  0.00  0.00    +0.028 C 
ENDROOT
BRANCH   1  14
ATOM     10  C1  UNL     1      11.263   1.072  24.335  0.00  0.00    +0.086 C 
ATOM     11  C2  UNL     1      12.442   0.799  23.466  0.00  0.00    +0.103 A 
ATOM     12  C3  UNL     1      12.570   1.167  22.140  0.00  0.00    +0.045 A 
ATOM     13  C4  UNL     1      13.823   0.737  21.754  0.00  0.00    +0.055 A 
ATOM     14  C5  UNL     1      14.379   0.142  22.871  0.00  0.00    +0.190 A 
ATOM     15  O2  UNL     1      13.534   0.196  23.876  0.00  0.00    -0.455 OA
ENDBRANCH   1  14
BRANCH   6  16
ATOM     16  N2  UNL     1      19.840   1.835  26.162  0.00  0.00    -0.325 N 
ATOM     17  H11 UNL     1      20.540   2.290  25.533  0.00  0.00    +0.148 HD
BRANCH  16  18
ATOM     18  C10 UNL     1      20.295   1.511  27.491  0.00  0.00    +0.138 A 
ATOM     19  C11 UNL     1      19.636   1.943  28.654  0.00  0.00    +0.154 A 
ATOM     20  N3  UNL     1      20.133   1.604  29.872  0.00  0.00    -0.258 NA
ATOM     21  C12 UNL     1      21.260   0.858  29.995  0.00  0.00    +0.142 A 
ATOM     22  C13 UNL     1      21.931   0.432  28.844  0.00  0.00    +0.131 A 
ATOM     23  N8  UNL     1      21.430   0.773  27.627  0.00  0.00    -0.226 NA
BRANCH  22  24
ATOM     24  C14 UNL     1      23.160  -0.373  28.926  0.00  0.00    +0.224 A 
ATOM     25  N4  UNL     1      24.375   0.133  29.219  0.00  0.00    -0.106 NA
ATOM     26  N5  UNL     1      25.192  -0.907  29.192  0.00  0.00    -0.048 NA
ATOM     27  N6  UNL     1      24.500  -1.994  28.897  0.00  0.00    -0.176 N 
ATOM     28  N7  UNL     1      23.222  -1.704  28.724  0.00  0.00    -0.131 NA
ATOM     29  H14 UNL     1      24.905  -2.951  28.815  0.00  0.00    +0.214 HD
ENDBRANCH  22  24
ENDBRANCH  16  18
ENDBRANCH   6  16
TORSDOF 4
ENDMDL
MODEL 5
REMARK VINA RESULT:    -6.964      8.483     11.879
REMARK INTER + INTRA:          -9.266
REMARK INTER:                  -8.733
REMARK INTRA:                  -0.533
REMARK UNBOUND:                -0.673
REMARK  Name = /home/qwerty/github/datacon2025hack/step_04_hit_selection/docking/ligands/lig_610.pdb
REMARK  6 active torsions:
REMARK  status: ('A' for Active; 'I' for Inactive)
REMARK    1  A    between atoms: C1_1  and  C2_2
REMARK    2  A    between atoms: C5_5  and  C6_6
REMARK    3  A    between atoms: C9_11  and  N2_12
REMARK    4  A    between atoms: N2_12  and  C10_13
REMARK    5  A    between atoms: C13_17  and  C14_18
REMARK    6  A    between atoms: C16_25  and  C17_26
REMARK                            x       y       z     vdW  Elec       q    Type
REMARK                         _______ _______ _______ _____ _____    ______ ____
ROOT
ATOM      1  C6  UNL     1       7.812   7.026  21.467  0.00  0.00    +0.282 C 
ATOM      2  O1  UNL     1       6.648   6.919  20.992  0.00  0.00    -0.267 OA
ATOM      3  N1  UNL     1       8.766   5.967  21.272  0.00  0.00    -0.292 N 
ATOM      4  C7  UNL     1       9.975   6.310  20.501  0.00  0.00    +0.110 C 
ATOM      5  C8  UNL     1      10.650   5.070  19.912  0.00  0.00    +0.041 C 
ATOM      6  C9  UNL     1      10.903   4.048  21.025  0.00  0.00    +0.075 C 
ATOM      7  C15 UNL     1       9.632   3.685  21.833  0.00  0.00    +0.044 C 
ATOM      8  C16 UNL     1       8.390   4.551  21.496  0.00  0.00    +0.075 C 
ATOM      9  C17 UNL     1       7.354   4.392  22.626  0.00  0.00    +0.028 C 
ENDROOT
BRANCH   1  14
ATOM     10  C1  UNL     1       9.155   9.955  25.171  0.00  0.00    +0.086 C 
ATOM     11  C2  UNL     1       8.758   9.522  23.801  0.00  0.00    +0.103 A 
ATOM     12  C3  UNL     1       8.674  10.339  22.690  0.00  0.00    +0.045 A 
ATOM     13  C4  UNL     1       8.302   9.514  21.649  0.00  0.00    +0.055 A 
ATOM     14  C5  UNL     1       8.190   8.248  22.192  0.00  0.00    +0.190 A 
ATOM     15  O2  UNL     1       8.470   8.284  23.476  0.00  0.00    -0.455 OA
ENDBRANCH   1  14
BRANCH   6  16
ATOM     16  N2  UNL     1      11.606   2.856  20.525  0.00  0.00    -0.325 N 
ATOM     17  H11 UNL     1      11.002   2.043  20.261  0.00  0.00    +0.148 HD
BRANCH  16  18
ATOM     18  C10 UNL     1      13.028   2.632  20.478  0.00  0.00    +0.138 A 
ATOM     19  C11 UNL     1      13.919   3.497  19.820  0.00  0.00    +0.154 A 
ATOM     20  N3  UNL     1      15.247   3.213  19.811  0.00  0.00    -0.258 NA
ATOM     21  C12 UNL     1      15.740   2.106  20.423  0.00  0.00    +0.142 A 
ATOM     22  C13 UNL     1      14.861   1.231  21.072  0.00  0.00    +0.131 A 
ATOM     23  N8  UNL     1      13.532   1.520  21.078  0.00  0.00    -0.226 NA
BRANCH  22  24
ATOM     24  C14 UNL     1      15.346   0.015  21.743  0.00  0.00    +0.224 A 
ATOM     25  N4  UNL     1      16.491  -0.620  21.419  0.00  0.00    -0.106 NA
ATOM     26  N5  UNL     1      16.555  -1.648  22.249  0.00  0.00    -0.048 NA
ATOM     27  N6  UNL     1      15.496  -1.634  23.040  0.00  0.00    -0.176 N 
ATOM     28  N7  UNL     1      14.713  -0.607  22.757  0.00  0.00    -0.131 NA
ATOM     29  H14 UNL     1      15.305  -2.335  23.787  0.00  0.00    +0.214 HD
ENDBRANCH  22  24
ENDBRANCH  16  18
ENDBRANCH   6  16
TORSDOF 4
ENDMDL
MODEL 6
REMARK VINA RESULT:    -6.452     14.521     15.990
REMARK INTER + INTRA:          -8.635
REMARK INTER:                  -8.031
REMARK INTRA:                  -0.603
REMARK UNBOUND:                -0.673
REMARK  Name = /home/qwerty/github/datacon2025hack/step_04_hit_selection/docking/ligands/lig_610.pdb
REMARK  6 active torsions:
REMARK  status: ('A' for Active; 'I' for Inactive)
REMARK    1  A    between atoms: C1_1  and  C2_2
REMARK    2  A    between atoms: C5_5  and  C6_6
REMARK    3  A    between atoms: C9_11  and  N2_12
REMARK    4  A    between atoms: N2_12  and  C10_13
REMARK    5  A    between atoms: C13_17  and  C14_18
REMARK    6  A    between atoms: C16_25  and  C17_26
REMARK                            x       y       z     vdW  Elec       q    Type
REMARK                         _______ _______ _______ _____ _____    ______ ____
ROOT
ATOM      1  C6  UNL     1      11.217  12.250  30.215  0.00  0.00    +0.282 C 
ATOM      2  O1  UNL     1      12.191  11.714  29.619  0.00  0.00    -0.267 OA
ATOM      3  N1  UNL     1      11.374  12.726  31.564  0.00  0.00    -0.292 N 
ATOM      4  C7  UNL     1      11.191  14.174  31.771  0.00  0.00    +0.110 C 
ATOM      5  C8  UNL     1      11.861  14.658  33.058  0.00  0.00    +0.041 C 
ATOM      6  C9  UNL     1      11.381  13.804  34.237  0.00  0.00    +0.075 C 
ATOM      7  C15 UNL     1      11.577  12.283  34.020  0.00  0.00    +0.044 C 
ATOM      8  C16 UNL     1      12.043  11.895  32.593  0.00  0.00    +0.075 C 
ATOM      9  C17 UNL     1      11.792  10.389  32.383  0.00  0.00    +0.028 C 
ENDROOT
BRANCH   1  14
ATOM     10  C1  UNL     1       7.754  14.185  27.323  0.00  0.00    +0.086 C 
ATOM     11  C2  UNL     1       8.425  13.252  28.272  0.00  0.00    +0.103 A 
ATOM     12  C3  UNL     1       7.885  12.083  28.771  0.00  0.00    +0.045 A 
ATOM     13  C4  UNL     1       8.861  11.537  29.580  0.00  0.00    +0.055 A 
ATOM     14  C5  UNL     1       9.934  12.406  29.513  0.00  0.00    +0.190 A 
ATOM     15  O2  UNL     1       9.646  13.417  28.726  0.00  0.00    -0.455 OA
ENDBRANCH   1  14
BRANCH   6  16
ATOM     16  N2  UNL     1      11.949  14.264  35.514  0.00  0.00    -0.325 N 
ATOM     17  H11 UNL     1      11.307  14.811  36.132  0.00  0.00    +0.148 HD
BRANCH  16  18
ATOM     18  C10 UNL     1      13.318  14.160  35.952  0.00  0.00    +0.138 A 
ATOM     19  C11 UNL     1      14.196  15.256  35.992  0.00  0.00    +0.154 A 
ATOM     20  N3  UNL     1      15.476  15.077  36.409  0.00  0.00    -0.258 NA
ATOM     21  C12 UNL     1      15.934  13.856  36.786  0.00  0.00    +0.142 A 
ATOM     22  C13 UNL     1      15.072  12.754  36.741  0.00  0.00    +0.131 A 
ATOM     23  N8  UNL     1      13.791  12.939  36.323  0.00  0.00    -0.226 NA
BRANCH  22  24
ATOM     24  C14 UNL     1      15.524  11.411  37.135  0.00  0.00    +0.224 A 
ATOM     25  N4  UNL     1      16.612  11.173  37.894  0.00  0.00    -0.106 NA
ATOM     26  N5  UNL     1      16.663   9.856  38.012  0.00  0.00    -0.048 NA
ATOM     27  N6  UNL     1      15.649   9.323  37.353  0.00  0.00    -0.176 N 
ATOM     28  N7  UNL     1      14.909  10.262  36.789  0.00  0.00    -0.131 NA
ATOM     29  H14 UNL     1      15.457   8.300  37.289  0.00  0.00    +0.214 HD
ENDBRANCH  22  24
ENDBRANCH  16  18
ENDBRANCH   6  16
TORSDOF 4
ENDMDL
MODEL 7
REMARK VINA RESULT:    -6.443     11.942     15.666
REMARK INTER + INTRA:          -8.624
REMARK INTER:                  -7.968
REMARK INTRA:                  -0.655
REMARK UNBOUND:                -0.673
REMARK  Name = /home/qwerty/github/datacon2025hack/step_04_hit_selection/docking/ligands/lig_610.pdb
REMARK  6 active torsions:
REMARK  status: ('A' for Active; 'I' for Inactive)
REMARK    1  A    between atoms: C1_1  and  C2_2
REMARK    2  A    between atoms: C5_5  and  C6_6
REMARK    3  A    between atoms: C9_11  and  N2_12
REMARK    4  A    between atoms: N2_12  and  C10_13
REMARK    5  A    between atoms: C13_17  and  C14_18
REMARK    6  A    between atoms: C16_25  and  C17_26
REMARK                            x       y       z     vdW  Elec       q    Type
REMARK                         _______ _______ _______ _____ _____    ______ ____
ROOT
ATOM      1  C6  UNL     1      21.002   8.626  36.273  0.00  0.00    +0.282 C 
ATOM      2  O1  UNL     1      21.693   8.165  37.221  0.00  0.00    -0.267 OA
ATOM      3  N1  UNL     1      19.904   9.514  36.551  0.00  0.00    -0.292 N 
ATOM      4  C7  UNL     1      20.010  10.877  36.000  0.00  0.00    +0.110 C 
ATOM      5  C8  UNL     1      19.112  11.867  36.743  0.00  0.00    +0.041 C 
ATOM      6  C9  UNL     1      17.676  11.329  36.778  0.00  0.00    +0.075 C 
ATOM      7  C15 UNL     1      17.565   9.899  37.360  0.00  0.00    +0.044 C 
ATOM      8  C16 UNL     1      18.928   9.207  37.624  0.00  0.00    +0.075 C 
ATOM      9  C17 UNL     1      18.691   7.692  37.785  0.00  0.00    +0.028 C 
ENDROOT
BRANCH   1  14
ATOM     10  C1  UNL     1      23.670   7.997  32.200  0.00  0.00    +0.086 C 
ATOM     11  C2  UNL     1      22.494   8.013  33.115  0.00  0.00    +0.103 A 
ATOM     12  C3  UNL     1      21.220   7.581  32.798  0.00  0.00    +0.045 A 
ATOM     13  C4  UNL     1      20.472   7.753  33.944  0.00  0.00    +0.055 A 
ATOM     14  C5  UNL     1      21.341   8.272  34.887  0.00  0.00    +0.190 A 
ATOM     15  O2  UNL     1      22.538   8.413  34.364  0.00  0.00    -0.455 OA
ENDBRANCH   1  14
BRANCH   6  16
ATOM     16  N2  UNL     1      16.754  12.272  37.431  0.00  0.00    -0.325 N 
ATOM     17  H11 UNL     1      17.084  12.688  38.332  0.00  0.00    +0.148 HD
BRANCH  16  18
ATOM     18  C10 UNL     1      15.403  12.588  37.042  0.00  0.00    +0.138 A 
ATOM     19  C11 UNL     1      14.976  13.893  36.747  0.00  0.00    +0.154 A 
ATOM     20  N3  UNL     1      13.682  14.113  36.397  0.00  0.00    -0.258 NA
ATOM     21  C12 UNL     1      12.783  13.098  36.329  0.00  0.00    +0.142 A 
ATOM     22  C13 UNL     1      13.195  11.795  36.632  0.00  0.00    +0.131 A 
ATOM     23  N8  UNL     1      14.491  11.580  36.982  0.00  0.00    -0.226 NA
BRANCH  22  24
ATOM     24  C14 UNL     1      12.256  10.663  36.578  0.00  0.00    +0.224 A 
ATOM     25  N4  UNL     1      11.225  10.497  37.431  0.00  0.00    -0.106 NA
ATOM     26  N5  UNL     1      10.641   9.375  37.044  0.00  0.00    -0.048 NA
ATOM     27  N6  UNL     1      11.292   8.885  36.003  0.00  0.00    -0.176 N 
ATOM     28  N7  UNL     1      12.311   9.662  35.678  0.00  0.00    -0.131 NA
ATOM     29  H14 UNL     1      11.036   8.006  35.504  0.00  0.00    +0.214 HD
ENDBRANCH  22  24
ENDBRANCH  16  18
ENDBRANCH   6  16
TORSDOF 4
ENDMDL
MODEL 8
REMARK VINA RESULT:    -6.404      6.136     11.213
REMARK INTER + INTRA:          -8.575
REMARK INTER:                  -8.070
REMARK INTRA:                  -0.505
REMARK UNBOUND:                -0.673
REMARK  Name = /home/qwerty/github/datacon2025hack/step_04_hit_selection/docking/ligands/lig_610.pdb
REMARK  6 active torsions:
REMARK  status: ('A' for Active; 'I' for Inactive)
REMARK    1  A    between atoms: C1_1  and  C2_2
REMARK    2  A    between atoms: C5_5  and  C6_6
REMARK    3  A    between atoms: C9_11  and  N2_12
REMARK    4  A    between atoms: N2_12  and  C10_13
REMARK    5  A    between atoms: C13_17  and  C14_18
REMARK    6  A    between atoms: C16_25  and  C17_26
REMARK                            x       y       z     vdW  Elec       q    Type
REMARK                         _______ _______ _______ _____ _____    ______ ____
ROOT
ATOM      1  C6  UNL     1      16.352  -1.052  24.890  0.00  0.00    +0.282 C 
ATOM      2  O1  UNL     1      16.474  -2.308  24.905  0.00  0.00    -0.267 OA
ATOM      3  N1  UNL     1      15.487  -0.427  23.925  0.00  0.00    -0.292 N 
ATOM      4  C7  UNL     1      14.340   0.325  24.466  0.00  0.00    +0.110 C 
ATOM      5  C8  UNL     1      13.230   0.502  23.428  0.00  0.00    +0.041 C 
ATOM      6  C9  UNL     1      13.816   1.112  22.150  0.00  0.00    +0.075 C 
ATOM      7  C15 UNL     1      15.018   0.319  21.581  0.00  0.00    +0.044 C 
ATOM      8  C16 UNL     1      15.522  -0.826  22.498  0.00  0.00    +0.075 C 
ATOM      9  C17 UNL     1      16.935  -1.240  22.041  0.00  0.00    +0.028 C 
ENDROOT
BRANCH   1  14
ATOM     10  C1  UNL     1      19.889   1.704  26.887  0.00  0.00    +0.086 C 
ATOM     11  C2  UNL     1      18.615   0.943  26.753  0.00  0.00    +0.103 A 
ATOM     12  C3  UNL     1      17.630   0.843  27.716  0.00  0.00    +0.045 A 
ATOM     13  C4  UNL     1      16.634   0.073  27.152  0.00  0.00    +0.055 A 
ATOM     14  C5  UNL     1      17.075  -0.240  25.880  0.00  0.00    +0.190 A 
ATOM     15  O2  UNL     1      18.257   0.293  25.670  0.00  0.00    -0.455 OA
ENDBRANCH   1  14
BRANCH   6  16
ATOM     16  N2  UNL     1      12.779   1.360  21.136  0.00  0.00    -0.325 N 
ATOM     17  H11 UNL     1      12.559   0.560  20.499  0.00  0.00    +0.148 HD
BRANCH  16  18
ATOM     18  C10 UNL     1      12.127   2.609  20.836  0.00  0.00    +0.138 A 
ATOM     19  C11 UNL     1      12.732   3.628  20.081  0.00  0.00    +0.154 A 
ATOM     20  N3  UNL     1      12.056   4.783  19.848  0.00  0.00    -0.258 NA
ATOM     21  C12 UNL     1      10.803   4.981  20.334  0.00  0.00    +0.142 A 
ATOM     22  C13 UNL     1      10.195   3.978  21.096  0.00  0.00    +0.131 A 
ATOM     23  N8  UNL     1      10.876   2.823  21.326  0.00  0.00    -0.226 NA
BRANCH  22  24
ATOM     24  C14 UNL     1       8.842   4.148  21.648  0.00  0.00    +0.224 A 
ATOM     25  N4  UNL     1       8.467   3.720  22.871  0.00  0.00    -0.106 NA
ATOM     26  N5  UNL     1       7.194   4.066  22.975  0.00  0.00    -0.048 NA
ATOM     27  N6  UNL     1       6.818   4.676  21.865  0.00  0.00    -0.176 N 
ATOM     28  N7  UNL     1       7.821   4.750  21.007  0.00  0.00    -0.131 NA
ATOM     29  H14 UNL     1       5.861   5.051  21.690  0.00  0.00    +0.214 HD
ENDBRANCH  22  24
ENDBRANCH  16  18
ENDBRANCH   6  16
TORSDOF 4
ENDMDL
MODEL 9
REMARK VINA RESULT:    -6.334     14.023     17.234
REMARK INTER + INTRA:          -8.489
REMARK INTER:                  -7.751
REMARK INTRA:                  -0.738
REMARK UNBOUND:                -0.673
REMARK  Name = /home/qwerty/github/datacon2025hack/step_04_hit_selection/docking/ligands/lig_610.pdb
REMARK  6 active torsions:
REMARK  status: ('A' for Active; 'I' for Inactive)
REMARK    1  A    between atoms: C1_1  and  C2_2
REMARK    2  A    between atoms: C5_5  and  C6_6
REMARK    3  A    between atoms: C9_11  and  N2_12
REMARK    4  A    between atoms: N2_12  and  C10_13
REMARK    5  A    between atoms: C13_17  and  C14_18
REMARK    6  A    between atoms: C16_25  and  C17_26
REMARK                            x       y       z     vdW  Elec       q    Type
REMARK                         _______ _______ _______ _____ _____    ______ ____
ROOT
ATOM      1  C6  UNL     1      10.820  13.762  28.700  0.00  0.00    +0.282 C 
ATOM      2  O1  UNL     1      10.973  14.626  27.794  0.00  0.00    -0.267 OA
ATOM      3  N1  UNL     1      10.127  12.535  28.411  0.00  0.00    -0.292 N 
ATOM      4  C7  UNL     1      10.910  11.294  28.550  0.00  0.00    +0.110 C 
ATOM      5  C8  UNL     1      10.298  10.139  27.756  0.00  0.00    +0.041 C 
ATOM      6  C9  UNL     1       8.823   9.979  28.141  0.00  0.00    +0.075 C 
ATOM      7  C15 UNL     1       7.999  11.282  27.992  0.00  0.00    +0.044 C 
ATOM      8  C16 UNL     1       8.846  12.540  27.666  0.00  0.00    +0.075 C 
ATOM      9  C17 UNL     1       8.001  13.795  27.962  0.00  0.00    +0.028 C 
ENDROOT
BRANCH   1  14
ATOM     10  C1  UNL     1      11.127  13.963  33.596  0.00  0.00    +0.086 C 
ATOM     11  C2  UNL     1      11.506  14.110  32.162  0.00  0.00    +0.103 A 
ATOM     12  C3  UNL     1      12.720  14.573  31.692  0.00  0.00    +0.045 A 
ATOM     13  C4  UNL     1      12.634  14.511  30.316  0.00  0.00    +0.055 A 
ATOM     14  C5  UNL     1      11.377  14.007  30.039  0.00  0.00    +0.190 A 
ATOM     15  O2  UNL     1      10.729  13.776  31.158  0.00  0.00    -0.455 OA
ENDBRANCH   1  14
BRANCH   6  16
ATOM     16  N2  UNL     1       8.196   8.841  27.449  0.00  0.00    -0.325 N 
ATOM     17  H11 UNL     1       7.646   8.184  28.050  0.00  0.00    +0.148 HD
BRANCH  16  18
ATOM     18  C10 UNL     1       8.358   8.456  26.070  0.00  0.00    +0.138 A 
ATOM     19  C11 UNL     1       8.792   7.179  25.676  0.00  0.00    +0.154 A 
ATOM     20  N3  UNL     1       8.930   6.894  24.355  0.00  0.00    -0.258 NA
ATOM     21  C12 UNL     1       8.661   7.819  23.399  0.00  0.00    +0.142 A 
ATOM     22  C13 UNL     1       8.238   9.098  23.780  0.00  0.00    +0.131 A 
ATOM     23  N8  UNL     1       8.102   9.378  25.103  0.00  0.00    -0.226 NA
BRANCH  22  24
ATOM     24  C14 UNL     1       7.940  10.136  22.780  0.00  0.00    +0.224 A 
ATOM     25  N4  UNL     1       7.126  11.187  23.005  0.00  0.00    -0.106 NA
ATOM     26  N5  UNL     1       7.130  11.868  21.870  0.00  0.00    -0.048 NA
ATOM     27  N6  UNL     1       7.912  11.254  20.999  0.00  0.00    -0.176 N 
ATOM     28  N7  UNL     1       8.441  10.164  21.530  0.00  0.00    -0.131 NA
ATOM     29  H14 UNL     1       8.091  11.585  20.027  0.00  0.00    +0.214 HD
ENDBRANCH  22  24
ENDBRANCH  16  18
ENDBRANCH   6  16
TORSDOF 4
ENDMDL
