MODEL 1
REMARK VINA RESULT:    -6.648      0.000      0.000
REMARK INTER + INTRA:          -7.814
REMARK INTER:                  -7.814
REMARK INTRA:                  -0.000
REMARK UNBOUND:                -0.000
REMARK  Name = /home/qwerty/github/datacon2025hack/step_04_hit_selection/docking/ligands/lig_640.pdb
REMARK  4 active torsions:
REMARK  status: ('A' for Active; 'I' for Inactive)
REMARK    1  A    between atoms: C5_5  and  C6_6
REMARK    2  A    between atoms: C9_11  and  C10_12
REMARK    3  A    between atoms: C9_11  and  N2_13
REMARK    4  A    between atoms: C11_14  and  C12_16
REMARK                            x       y       z     vdW  Elec       q    Type
REMARK                         _______ _______ _______ _____ _____    ______ ____
ROOT
ATOM      1  C6  UNL     1      15.349  11.769  34.610  0.00  0.00    +0.219 C 
ATOM      2  O1  UNL     1      14.926  11.197  33.567  0.00  0.00    -0.275 OA
ATOM      3  N1  UNL     1      16.563  11.294  35.242  0.00  0.00    -0.301 N 
ATOM      4  C7  UNL     1      17.229  12.092  36.286  0.00  0.00    +0.110 C 
ATOM      5  C8  UNL     1      18.545  11.452  36.751  0.00  0.00    +0.044 C 
ATOM      6  C9  UNL     1      18.387   9.939  37.079  0.00  0.00    +0.035 C 
ATOM      7  C10 UNL     1      17.614   9.801  38.414  0.00  0.00    +0.031 C 
ATOM      8  C16 UNL     1      17.600   9.173  35.961  0.00  0.00    +0.044 C 
ATOM      9  C17 UNL     1      17.204  10.056  34.770  0.00  0.00    +0.110 C 
ENDROOT
BRANCH   1  14
ATOM     10  C1  UNL     1      10.377  14.119  35.153  0.00  0.00    +0.007 C 
ATOM     11  C2  UNL     1      11.626  13.632  35.151  0.00  0.00    -0.077 C 
ATOM     12  C3  UNL     1      12.266  13.175  36.440  0.00  0.00    +0.031 C 
ATOM     13  C4  UNL     1      13.444  12.235  36.156  0.00  0.00    +0.017 C 
ATOM     14  C5  UNL     1      14.501  12.871  35.221  0.00  0.00    +0.076 C 
ATOM     15  C18 UNL     1      13.889  13.801  34.131  0.00  0.00    +0.017 C 
ATOM     16  C19 UNL     1      12.406  13.523  33.862  0.00  0.00    +0.031 C 
ENDBRANCH   1  14
BRANCH   6  17
ATOM     17  N2  UNL     1      19.728   9.340  37.260  0.00  0.00    -0.305 N 
ATOM     18  C11 UNL     1      19.970   7.948  37.549  0.00  0.00    +0.261 C 
ATOM     19  O2  UNL     1      19.015   7.192  37.872  0.00  0.00    -0.269 OA
ATOM     20  H15 UNL     1      20.560   9.966  37.183  0.00  0.00    +0.150 HD
BRANCH  18  21
ATOM     21  C12 UNL     1      21.335   7.385  37.490  0.00  0.00    +0.105 A 
ATOM     22  C13 UNL     1      21.993   7.029  36.325  0.00  0.00    +0.070 A 
ATOM     23  C14 UNL     1      23.230   6.571  36.722  0.00  0.00    +0.141 A 
ATOM     24  F1  UNL     1      24.214   6.117  35.909  0.00  0.00    -0.204 F 
ATOM     25  C15 UNL     1      23.289   6.666  38.094  0.00  0.00    +0.121 A 
ATOM     26  N3  UNL     1      22.128   7.164  38.561  0.00  0.00    -0.355 N 
ATOM     27  H18 UNL     1      21.917   7.357  39.563  0.00  0.00    +0.166 HD
ENDBRANCH  18  21
ENDBRANCH   6  17
TORSDOF 3
ENDMDL
MODEL 2
REMARK VINA RESULT:    -6.632     16.611     19.216
REMARK INTER + INTRA:          -7.795
REMARK INTER:                  -8.009
REMARK INTRA:                   0.214
REMARK UNBOUND:                -0.000
REMARK  Name = /home/qwerty/github/datacon2025hack/step_04_hit_selection/docking/ligands/lig_640.pdb
REMARK  4 active torsions:
REMARK  status: ('A' for Active; 'I' for Inactive)
REMARK    1  A    between atoms: C5_5  and  C6_6
REMARK    2  A    between atoms: C9_11  and  C10_12
REMARK    3  A    between atoms: C9_11  and  N2_13
REMARK    4  A    between atoms: C11_14  and  C12_16
REMARK                            x       y       z     vdW  Elec       q    Type
REMARK                         _______ _______ _______ _____ _____    ______ ____
ROOT
ATOM      1  C6  UNL     1      15.598   1.980  20.276  0.00  0.00    +0.219 C 
ATOM      2  O1  UNL     1      16.823   2.104  19.996  0.00  0.00    -0.275 OA
ATOM      3  N1  UNL     1      14.727   3.135  20.190  0.00  0.00    -0.301 N 
ATOM      4  C7  UNL     1      13.264   2.978  20.243  0.00  0.00    +0.110 C 
ATOM      5  C8  UNL     1      12.531   4.312  20.040  0.00  0.00    +0.044 C 
ATOM      6  C9  UNL     1      13.105   5.448  20.936  0.00  0.00    +0.035 C 
ATOM      7  C10 UNL     1      12.659   5.195  22.399  0.00  0.00    +0.031 C 
ATOM      8  C16 UNL     1      14.670   5.501  20.890  0.00  0.00    +0.044 C 
ATOM      9  C17 UNL     1      15.295   4.469  19.940  0.00  0.00    +0.110 C 
ENDROOT
BRANCH   1  14
ATOM     10  C1  UNL     1      16.320  -2.253  23.754  0.00  0.00    +0.007 C 
ATOM     11  C2  UNL     1      15.996  -1.279  22.892  0.00  0.00    -0.077 C 
ATOM     12  C3  UNL     1      14.677  -0.554  23.025  0.00  0.00    +0.031 C 
ATOM     13  C4  UNL     1      14.722   0.790  22.290  0.00  0.00    +0.017 C 
ATOM     14  C5  UNL     1      15.111   0.641  20.799  0.00  0.00    +0.076 C 
ATOM     15  C18 UNL     1      16.146  -0.493  20.536  0.00  0.00    +0.017 C 
ATOM     16  C19 UNL     1      16.945  -0.885  21.784  0.00  0.00    +0.031 C 
ENDBRANCH   1  14
BRANCH   6  17
ATOM     17  N2  UNL     1      12.537   6.742  20.501  0.00  0.00    -0.305 N 
ATOM     18  C11 UNL     1      11.129   7.053  20.479  0.00  0.00    +0.261 C 
ATOM     19  O2  UNL     1      10.276   6.139  20.642  0.00  0.00    -0.269 OA
ATOM     20  H15 UNL     1      13.196   7.484  20.177  0.00  0.00    +0.150 HD
BRANCH  18  21
ATOM     21  C12 UNL     1      10.657   8.434  20.250  0.00  0.00    +0.105 A 
ATOM     22  C13 UNL     1       9.578   9.017  20.895  0.00  0.00    +0.070 A 
ATOM     23  C14 UNL     1       9.502  10.301  20.402  0.00  0.00    +0.141 A 
ATOM     24  F1  UNL     1       8.591  11.241  20.755  0.00  0.00    -0.204 F 
ATOM     25  C15 UNL     1      10.523  10.460  19.492  0.00  0.00    +0.121 A 
ATOM     26  N3  UNL     1      11.227   9.317  19.402  0.00  0.00    -0.355 N 
ATOM     27  H18 UNL     1      12.067   9.174  18.801  0.00  0.00    +0.166 HD
ENDBRANCH  18  21
ENDBRANCH   6  17
TORSDOF 3
ENDMDL
MODEL 3
REMARK VINA RESULT:    -6.552     16.294     18.773
REMARK INTER + INTRA:          -7.701
REMARK INTER:                  -7.618
REMARK INTRA:                  -0.083
REMARK UNBOUND:                -0.000
REMARK  Name = /home/qwerty/github/datacon2025hack/step_04_hit_selection/docking/ligands/lig_640.pdb
REMARK  4 active torsions:
REMARK  status: ('A' for Active; 'I' for Inactive)
REMARK    1  A    between atoms: C5_5  and  C6_6
REMARK    2  A    between atoms: C9_11  and  C10_12
REMARK    3  A    between atoms: C9_11  and  N2_13
REMARK    4  A    between atoms: C11_14  and  C12_16
REMARK                            x       y       z     vdW  Elec       q    Type
REMARK                         _______ _______ _______ _____ _____    ______ ____
ROOT
ATOM      1  C6  UNL     1      13.409   1.141  22.369  0.00  0.00    +0.219 C 
ATOM      2  O1  UNL     1      12.566   0.268  22.021  0.00  0.00    -0.275 OA
ATOM      3  N1  UNL     1      13.197   2.525  21.995  0.00  0.00    -0.301 N 
ATOM      4  C7  UNL     1      14.000   3.599  22.605  0.00  0.00    +0.110 C 
ATOM      5  C8  UNL     1      13.550   4.992  22.140  0.00  0.00    +0.044 C 
ATOM      6  C9  UNL     1      13.394   5.082  20.594  0.00  0.00    +0.035 C 
ATOM      7  C10 UNL     1      14.806   5.104  19.956  0.00  0.00    +0.031 C 
ATOM      8  C16 UNL     1      12.599   3.865  20.011  0.00  0.00    +0.044 C 
ATOM      9  C17 UNL     1      12.102   2.882  21.081  0.00  0.00    +0.110 C 
ENDROOT
BRANCH   1  14
ATOM     10  C1  UNL     1      16.219  -2.964  24.775  0.00  0.00    +0.007 C 
ATOM     11  C2  UNL     1      15.677  -1.890  24.183  0.00  0.00    -0.077 C 
ATOM     12  C3  UNL     1      16.368  -1.239  23.009  0.00  0.00    +0.031 C 
ATOM     13  C4  UNL     1      15.381  -0.383  22.206  0.00  0.00    +0.017 C 
ATOM     14  C5  UNL     1      14.671   0.682  23.077  0.00  0.00    +0.076 C 
ATOM     15  C18 UNL     1      14.376   0.203  24.530  0.00  0.00    +0.017 C 
ATOM     16  C19 UNL     1      14.365  -1.323  24.673  0.00  0.00    +0.031 C 
ENDBRANCH   1  14
BRANCH   6  17
ATOM     17  N2  UNL     1      12.714   6.349  20.249  0.00  0.00    -0.305 N 
ATOM     18  C11 UNL     1      11.381   6.703  20.668  0.00  0.00    +0.261 C 
ATOM     19  O2  UNL     1      10.631   5.837  21.194  0.00  0.00    -0.269 OA
ATOM     20  H15 UNL     1      13.228   7.036  19.653  0.00  0.00    +0.150 HD
BRANCH  18  21
ATOM     21  C12 UNL     1      10.860   8.072  20.476  0.00  0.00    +0.105 A 
ATOM     22  C13 UNL     1       9.870   8.656  21.248  0.00  0.00    +0.070 A 
ATOM     23  C14 UNL     1       9.707   9.928  20.744  0.00  0.00    +0.141 A 
ATOM     24  F1  UNL     1       8.838  10.863  21.198  0.00  0.00    -0.204 F 
ATOM     25  C15 UNL     1      10.592  10.079  19.700  0.00  0.00    +0.121 A 
ATOM     26  N3  UNL     1      11.296   8.943  19.540  0.00  0.00    -0.355 N 
ATOM     27  H18 UNL     1      12.048   8.796  18.832  0.00  0.00    +0.166 HD
ENDBRANCH  18  21
ENDBRANCH   6  17
TORSDOF 3
ENDMDL
MODEL 4
REMARK VINA RESULT:    -6.451     12.065     15.005
REMARK INTER + INTRA:          -7.583
REMARK INTER:                  -7.723
REMARK INTRA:                   0.140
REMARK UNBOUND:                -0.000
REMARK  Name = /home/qwerty/github/datacon2025hack/step_04_hit_selection/docking/ligands/lig_640.pdb
REMARK  4 active torsions:
REMARK  status: ('A' for Active; 'I' for Inactive)
REMARK    1  A    between atoms: C5_5  and  C6_6
REMARK    2  A    between atoms: C9_11  and  C10_12
REMARK    3  A    between atoms: C9_11  and  N2_13
REMARK    4  A    between atoms: C11_14  and  C12_16
REMARK                            x       y       z     vdW  Elec       q    Type
REMARK                         _______ _______ _______ _____ _____    ______ ____
ROOT
ATOM      1  C6  UNL     1      21.529   3.702  29.076  0.00  0.00    +0.219 C 
ATOM      2  O1  UNL     1      21.032   4.693  29.680  0.00  0.00    -0.275 OA
ATOM      3  N1  UNL     1      21.677   3.747  27.635  0.00  0.00    -0.301 N 
ATOM      4  C7  UNL     1      22.490   2.740  26.932  0.00  0.00    +0.110 C 
ATOM      5  C8  UNL     1      22.591   3.026  25.426  0.00  0.00    +0.044 C 
ATOM      6  C9  UNL     1      21.204   3.319  24.784  0.00  0.00    +0.035 C 
ATOM      7  C10 UNL     1      20.416   1.989  24.682  0.00  0.00    +0.031 C 
ATOM      8  C16 UNL     1      20.366   4.337  25.630  0.00  0.00    +0.044 C 
ATOM      9  C17 UNL     1      21.102   4.864  26.869  0.00  0.00    +0.110 C 
ENDROOT
BRANCH   1  14
ATOM     10  C1  UNL     1      19.955   0.034  32.898  0.00  0.00    +0.007 C 
ATOM     11  C2  UNL     1      20.448   0.817  31.928  0.00  0.00    -0.077 C 
ATOM     12  C3  UNL     1      20.776   0.235  30.574  0.00  0.00    +0.031 C 
ATOM     13  C4  UNL     1      20.846   1.340  29.512  0.00  0.00    +0.017 C 
ATOM     14  C5  UNL     1      21.853   2.456  29.881  0.00  0.00    +0.076 C 
ATOM     15  C18 UNL     1      21.919   2.756  31.408  0.00  0.00    +0.017 C 
ATOM     16  C19 UNL     1      20.672   2.292  32.170  0.00  0.00    +0.031 C 
ENDBRANCH   1  14
BRANCH   6  17
ATOM     17  N2  UNL     1      21.406   3.839  23.413  0.00  0.00    -0.305 N 
ATOM     18  C11 UNL     1      20.348   4.297  22.548  0.00  0.00    +0.261 C 
ATOM     19  O2  UNL     1      19.143   4.081  22.850  0.00  0.00    -0.269 OA
ATOM     20  H15 UNL     1      22.380   3.871  23.038  0.00  0.00    +0.150 HD
BRANCH  18  21
ATOM     21  C12 UNL     1      20.648   5.010  21.289  0.00  0.00    +0.105 A 
ATOM     22  C13 UNL     1      19.769   5.853  20.629  0.00  0.00    +0.070 A 
ATOM     23  C14 UNL     1      20.453   6.312  19.525  0.00  0.00    +0.141 A 
ATOM     24  F1  UNL     1      19.978   7.169  18.589  0.00  0.00    -0.204 F 
ATOM     25  C15 UNL     1      21.709   5.749  19.549  0.00  0.00    +0.121 A 
ATOM     26  N3  UNL     1      21.825   4.954  20.629  0.00  0.00    -0.355 N 
ATOM     27  H18 UNL     1      22.683   4.425  20.896  0.00  0.00    +0.166 HD
ENDBRANCH  18  21
ENDBRANCH   6  17
TORSDOF 3
ENDMDL
MODEL 5
REMARK VINA RESULT:    -6.450     15.927     17.107
REMARK INTER + INTRA:          -7.582
REMARK INTER:                  -7.741
REMARK INTRA:                   0.159
REMARK UNBOUND:                -0.000
REMARK  Name = /home/qwerty/github/datacon2025hack/step_04_hit_selection/docking/ligands/lig_640.pdb
REMARK  4 active torsions:
REMARK  status: ('A' for Active; 'I' for Inactive)
REMARK    1  A    between atoms: C5_5  and  C6_6
REMARK    2  A    between atoms: C9_11  and  C10_12
REMARK    3  A    between atoms: C9_11  and  N2_13
REMARK    4  A    between atoms: C11_14  and  C12_16
REMARK                            x       y       z     vdW  Elec       q    Type
REMARK                         _______ _______ _______ _____ _____    ______ ____
ROOT
ATOM      1  C6  UNL     1      10.641   6.751  22.317  0.00  0.00    +0.219 C 
ATOM      2  O1  UNL     1      10.921   7.169  23.475  0.00  0.00    -0.275 OA
ATOM      3  N1  UNL     1      11.284   5.552  21.817  0.00  0.00    -0.301 N 
ATOM      4  C7  UNL     1      10.790   4.888  20.598  0.00  0.00    +0.110 C 
ATOM      5  C8  UNL     1      11.552   3.588  20.299  0.00  0.00    +0.044 C 
ATOM      6  C9  UNL     1      13.095   3.773  20.370  0.00  0.00    +0.035 C 
ATOM      7  C10 UNL     1      13.555   4.565  19.121  0.00  0.00    +0.031 C 
ATOM      8  C16 UNL     1      13.536   4.557  21.653  0.00  0.00    +0.044 C 
ATOM      9  C17 UNL     1      12.371   4.924  22.583  0.00  0.00    +0.110 C 
ENDROOT
BRANCH   1  14
ATOM     10  C1  UNL     1       7.638  11.354  21.741  0.00  0.00    +0.007 C 
ATOM     11  C2  UNL     1       8.355  10.221  21.722  0.00  0.00    -0.077 C 
ATOM     12  C3  UNL     1       9.426  10.016  20.677  0.00  0.00    +0.031 C 
ATOM     13  C4  UNL     1      10.414   8.932  21.121  0.00  0.00    +0.017 C 
ATOM     14  C5  UNL     1       9.717   7.590  21.452  0.00  0.00    +0.076 C 
ATOM     15  C18 UNL     1       8.314   7.763  22.106  0.00  0.00    +0.017 C 
ATOM     16  C19 UNL     1       8.111   9.140  22.749  0.00  0.00    +0.031 C 
ENDBRANCH   1  14
BRANCH   6  17
ATOM     17  N2  UNL     1      13.744   2.444  20.336  0.00  0.00    -0.305 N 
ATOM     18  C11 UNL     1      15.140   2.222  20.049  0.00  0.00    +0.261 C 
ATOM     19  O2  UNL     1      15.851   3.160  19.600  0.00  0.00    -0.269 OA
ATOM     20  H15 UNL     1      13.154   1.604  20.524  0.00  0.00    +0.150 HD
BRANCH  18  21
ATOM     21  C12 UNL     1      15.759   0.897  20.256  0.00  0.00    +0.105 A 
ATOM     22  C13 UNL     1      16.267   0.443  21.462  0.00  0.00    +0.070 A 
ATOM     23  C14 UNL     1      16.726  -0.833  21.215  0.00  0.00    +0.141 A 
ATOM     24  F1  UNL     1      17.305  -1.664  22.114  0.00  0.00    -0.204 F 
ATOM     25  C15 UNL     1      16.481  -1.114  19.889  0.00  0.00    +0.121 A 
ATOM     26  N3  UNL     1      15.889  -0.055  19.306  0.00  0.00    -0.355 N 
ATOM     27  H18 UNL     1      15.578  -0.011  18.312  0.00  0.00    +0.166 HD
ENDBRANCH  18  21
ENDBRANCH   6  17
TORSDOF 3
ENDMDL
MODEL 6
REMARK VINA RESULT:    -6.421      3.846      9.287
REMARK INTER + INTRA:          -7.548
REMARK INTER:                  -7.413
REMARK INTRA:                  -0.135
REMARK UNBOUND:                -0.000
REMARK  Name = /home/qwerty/github/datacon2025hack/step_04_hit_selection/docking/ligands/lig_640.pdb
REMARK  4 active torsions:
REMARK  status: ('A' for Active; 'I' for Inactive)
REMARK    1  A    between atoms: C5_5  and  C6_6
REMARK    2  A    between atoms: C9_11  and  C10_12
REMARK    3  A    between atoms: C9_11  and  N2_13
REMARK    4  A    between atoms: C11_14  and  C12_16
REMARK                            x       y       z     vdW  Elec       q    Type
REMARK                         _______ _______ _______ _____ _____    ______ ____
ROOT
ATOM      1  C6  UNL     1      20.613   9.242  35.740  0.00  0.00    +0.219 C 
ATOM      2  O1  UNL     1      21.413  10.123  36.162  0.00  0.00    -0.275 OA
ATOM      3  N1  UNL     1      19.191   9.403  35.964  0.00  0.00    -0.301 N 
ATOM      4  C7  UNL     1      18.218   8.550  35.261  0.00  0.00    +0.110 C 
ATOM      5  C8  UNL     1      16.767   8.950  35.571  0.00  0.00    +0.044 C 
ATOM      6  C9  UNL     1      16.512   9.123  37.096  0.00  0.00    +0.035 C 
ATOM      7  C10 UNL     1      16.477   7.719  37.752  0.00  0.00    +0.031 C 
ATOM      8  C16 UNL     1      17.630   9.974  37.789  0.00  0.00    +0.044 C 
ATOM      9  C17 UNL     1      18.699  10.496  36.818  0.00  0.00    +0.110 C 
ENDROOT
BRANCH   1  14
ATOM     10  C1  UNL     1      24.988   6.678  33.544  0.00  0.00    +0.007 C 
ATOM     11  C2  UNL     1      23.861   7.155  34.091  0.00  0.00    -0.077 C 
ATOM     12  C3  UNL     1      23.248   6.470  35.289  0.00  0.00    +0.031 C 
ATOM     13  C4  UNL     1      22.296   7.419  36.026  0.00  0.00    +0.017 C 
ATOM     14  C5  UNL     1      21.191   7.990  35.104  0.00  0.00    +0.076 C 
ATOM     15  C18 UNL     1      21.672   8.252  33.646  0.00  0.00    +0.017 C 
ATOM     16  C19 UNL     1      23.194   8.387  33.525  0.00  0.00    +0.031 C 
ENDBRANCH   1  14
BRANCH   6  17
ATOM     17  N2  UNL     1      15.190   9.756  37.297  0.00  0.00    -0.305 N 
ATOM     18  C11 UNL     1      14.762  10.977  36.660  0.00  0.00    +0.261 C 
ATOM     19  O2  UNL     1      15.594  11.693  36.039  0.00  0.00    -0.269 OA
ATOM     20  H15 UNL     1      14.519   9.296  37.951  0.00  0.00    +0.150 HD
BRANCH  18  21
ATOM     21  C12 UNL     1      13.355  11.422  36.732  0.00  0.00    +0.105 A 
ATOM     22  C13 UNL     1      12.798  12.413  35.941  0.00  0.00    +0.070 A 
ATOM     23  C14 UNL     1      11.477  12.493  36.321  0.00  0.00    +0.141 A 
ATOM     24  F1  UNL     1      10.546  13.332  35.808  0.00  0.00    -0.204 F 
ATOM     25  C15 UNL     1      11.271  11.559  37.312  0.00  0.00    +0.121 A 
ATOM     26  N3  UNL     1      12.421  10.906  37.560  0.00  0.00    -0.355 N 
ATOM     27  H18 UNL     1      12.537  10.133  38.251  0.00  0.00    +0.166 HD
ENDBRANCH  18  21
ENDBRANCH   6  17
TORSDOF 3
ENDMDL
MODEL 7
REMARK VINA RESULT:    -6.366     12.838     15.495
REMARK INTER + INTRA:          -7.483
REMARK INTER:                  -7.579
REMARK INTRA:                   0.096
REMARK UNBOUND:                -0.000
REMARK  Name = /home/qwerty/github/datacon2025hack/step_04_hit_selection/docking/ligands/lig_640.pdb
REMARK  4 active torsions:
REMARK  status: ('A' for Active; 'I' for Inactive)
REMARK    1  A    between atoms: C5_5  and  C6_6
REMARK    2  A    between atoms: C9_11  and  C10_12
REMARK    3  A    between atoms: C9_11  and  N2_13
REMARK    4  A    between atoms: C11_14  and  C12_16
REMARK                            x       y       z     vdW  Elec       q    Type
REMARK                         _______ _______ _______ _____ _____    ______ ____
ROOT
ATOM      1  C6  UNL     1      21.833   1.776  27.699  0.00  0.00    +0.219 C 
ATOM      2  O1  UNL     1      22.853   2.106  28.365  0.00  0.00    -0.275 OA
ATOM      3  N1  UNL     1      21.681   2.258  26.341  0.00  0.00    -0.301 N 
ATOM      4  C7  UNL     1      20.659   1.685  25.449  0.00  0.00    +0.110 C 
ATOM      5  C8  UNL     1      20.733   2.272  24.031  0.00  0.00    +0.044 C 
ATOM      6  C9  UNL     1      20.807   3.826  24.035  0.00  0.00    +0.035 C 
ATOM      7  C10 UNL     1      19.413   4.386  24.411  0.00  0.00    +0.031 C 
ATOM      8  C16 UNL     1      21.859   4.363  25.065  0.00  0.00    +0.044 C 
ATOM      9  C17 UNL     1      22.622   3.254  25.803  0.00  0.00    +0.110 C 
ENDROOT
BRANCH   1  14
ATOM     10  C1  UNL     1      18.977   0.731  32.313  0.00  0.00    +0.007 C 
ATOM     11  C2  UNL     1      19.554   0.906  31.116  0.00  0.00    -0.077 C 
ATOM     12  C3  UNL     1      18.723   1.318  29.924  0.00  0.00    +0.031 C 
ATOM     13  C4  UNL     1      19.610   1.922  28.828  0.00  0.00    +0.017 C 
ATOM     14  C5  UNL     1      20.749   0.969  28.392  0.00  0.00    +0.076 C 
ATOM     15  C18 UNL     1      21.325   0.111  29.558  0.00  0.00    +0.017 C 
ATOM     16  C19 UNL     1      21.042   0.705  30.943  0.00  0.00    +0.031 C 
ENDBRANCH   1  14
BRANCH   6  17
ATOM     17  N2  UNL     1      21.140   4.298  22.673  0.00  0.00    -0.305 N 
ATOM     18  C11 UNL     1      21.650   5.610  22.363  0.00  0.00    +0.261 C 
ATOM     19  O2  UNL     1      21.645   6.516  23.240  0.00  0.00    -0.269 OA
ATOM     20  H15 UNL     1      20.989   3.642  21.875  0.00  0.00    +0.150 HD
BRANCH  18  21
ATOM     21  C12 UNL     1      22.170   5.928  21.017  0.00  0.00    +0.105 A 
ATOM     22  C13 UNL     1      22.959   7.025  20.713  0.00  0.00    +0.070 A 
ATOM     23  C14 UNL     1      23.230   6.926  19.366  0.00  0.00    +0.141 A 
ATOM     24  F1  UNL     1      23.975   7.788  18.634  0.00  0.00    -0.204 F 
ATOM     25  C15 UNL     1      22.612   5.787  18.899  0.00  0.00    +0.121 A 
ATOM     26  N3  UNL     1      21.966   5.179  19.911  0.00  0.00    -0.355 N 
ATOM     27  H18 UNL     1      21.434   4.285  19.834  0.00  0.00    +0.166 HD
ENDBRANCH  18  21
ENDBRANCH   6  17
TORSDOF 3
ENDMDL
MODEL 8
REMARK VINA RESULT:    -6.320     15.880     16.844
REMARK INTER + INTRA:          -7.429
REMARK INTER:                  -7.350
REMARK INTRA:                  -0.078
REMARK UNBOUND:                -0.000
REMARK  Name = /home/qwerty/github/datacon2025hack/step_04_hit_selection/docking/ligands/lig_640.pdb
REMARK  4 active torsions:
REMARK  status: ('A' for Active; 'I' for Inactive)
REMARK    1  A    between atoms: C5_5  and  C6_6
REMARK    2  A    between atoms: C9_11  and  C10_12
REMARK    3  A    between atoms: C9_11  and  N2_13
REMARK    4  A    between atoms: C11_14  and  C12_16
REMARK                            x       y       z     vdW  Elec       q    Type
REMARK                         _______ _______ _______ _____ _____    ______ ____
ROOT
ATOM      1  C6  UNL     1      11.227   7.114  21.228  0.00  0.00    +0.219 C 
ATOM      2  O1  UNL     1      11.016   7.638  20.099  0.00  0.00    -0.275 OA
ATOM      3  N1  UNL     1      11.876   5.820  21.304  0.00  0.00    -0.301 N 
ATOM      4  C7  UNL     1      12.379   5.307  22.589  0.00  0.00    +0.110 C 
ATOM      5  C8  UNL     1      13.113   3.967  22.429  0.00  0.00    +0.044 C 
ATOM      6  C9  UNL     1      12.303   2.943  21.582  0.00  0.00    +0.035 C 
ATOM      7  C10 UNL     1      11.119   2.423  22.437  0.00  0.00    +0.031 C 
ATOM      8  C16 UNL     1      11.732   3.584  20.271  0.00  0.00    +0.044 C 
ATOM      9  C17 UNL     1      12.134   5.052  20.076  0.00  0.00    +0.110 C 
ENDROOT
BRANCH   1  14
ATOM     10  C1  UNL     1       7.432  10.459  23.452  0.00  0.00    +0.007 C 
ATOM     11  C2  UNL     1       8.387   9.603  23.062  0.00  0.00    -0.077 C 
ATOM     12  C3  UNL     1       8.471   8.226  23.677  0.00  0.00    +0.031 C 
ATOM     13  C4  UNL     1       9.276   7.280  22.778  0.00  0.00    +0.017 C 
ATOM     14  C5  UNL     1      10.691   7.820  22.461  0.00  0.00    +0.076 C 
ATOM     15  C18 UNL     1      10.747   9.369  22.310  0.00  0.00    +0.017 C 
ATOM     16  C19 UNL     1       9.384   9.996  21.997  0.00  0.00    +0.031 C 
ENDBRANCH   1  14
BRANCH   6  17
ATOM     17  N2  UNL     1      13.172   1.792  21.252  0.00  0.00    -0.305 N 
ATOM     18  C11 UNL     1      14.383   1.878  20.474  0.00  0.00    +0.261 C 
ATOM     19  O2  UNL     1      14.660   2.936  19.848  0.00  0.00    -0.269 OA
ATOM     20  H15 UNL     1      12.889   0.848  21.596  0.00  0.00    +0.150 HD
BRANCH  18  21
ATOM     21  C12 UNL     1      15.311   0.732  20.381  0.00  0.00    +0.105 A 
ATOM     22  C13 UNL     1      15.973   0.162  21.455  0.00  0.00    +0.070 A 
ATOM     23  C14 UNL     1      16.710  -0.876  20.929  0.00  0.00    +0.141 A 
ATOM     24  F1  UNL     1      17.516  -1.717  21.621  0.00  0.00    -0.204 F 
ATOM     25  C15 UNL     1      16.474  -0.909  19.573  0.00  0.00    +0.121 A 
ATOM     26  N3  UNL     1      15.617   0.075  19.241  0.00  0.00    -0.355 N 
ATOM     27  H18 UNL     1      15.255   0.259  18.281  0.00  0.00    +0.166 HD
ENDBRANCH  18  21
ENDBRANCH   6  17
TORSDOF 3
ENDMDL
MODEL 9
REMARK VINA RESULT:    -6.229      3.657      9.488
REMARK INTER + INTRA:          -7.321
REMARK INTER:                  -7.365
REMARK INTRA:                   0.044
REMARK UNBOUND:                -0.000
REMARK  Name = /home/qwerty/github/datacon2025hack/step_04_hit_selection/docking/ligands/lig_640.pdb
REMARK  4 active torsions:
REMARK  status: ('A' for Active; 'I' for Inactive)
REMARK    1  A    between atoms: C5_5  and  C6_6
REMARK    2  A    between atoms: C9_11  and  C10_12
REMARK    3  A    between atoms: C9_11  and  N2_13
REMARK    4  A    between atoms: C11_14  and  C12_16
REMARK                            x       y       z     vdW  Elec       q    Type
REMARK                         _______ _______ _______ _____ _____    ______ ____
ROOT
ATOM      1  C6  UNL     1      20.998   8.119  36.148  0.00  0.00    +0.219 C 
ATOM      2  O1  UNL     1      20.573   7.018  36.595  0.00  0.00    -0.275 OA
ATOM      3  N1  UNL     1      20.068   9.211  35.939  0.00  0.00    -0.301 N 
ATOM      4  C7  UNL     1      20.557  10.576  35.682  0.00  0.00    +0.110 C 
ATOM      5  C8  UNL     1      19.410  11.593  35.584  0.00  0.00    +0.044 C 
ATOM      6  C9  UNL     1      18.270  11.113  34.639  0.00  0.00    +0.035 C 
ATOM      7  C10 UNL     1      18.763  11.225  33.174  0.00  0.00    +0.031 C 
ATOM      8  C16 UNL     1      17.859   9.627  34.919  0.00  0.00    +0.044 C 
ATOM      9  C17 UNL     1      18.622   8.985  36.087  0.00  0.00    +0.110 C 
ENDROOT
BRANCH   1  14
ATOM     10  C1  UNL     1      25.278   5.940  33.415  0.00  0.00    +0.007 C 
ATOM     11  C2  UNL     1      24.323   6.605  34.082  0.00  0.00    -0.077 C 
ATOM     12  C3  UNL     1      23.937   8.003  33.662  0.00  0.00    +0.031 C 
ATOM     13  C4  UNL     1      22.551   8.368  34.208  0.00  0.00    +0.017 C 
ATOM     14  C5  UNL     1      22.459   8.218  35.747  0.00  0.00    +0.076 C 
ATOM     15  C18 UNL     1      23.294   7.029  36.307  0.00  0.00    +0.017 C 
ATOM     16  C19 UNL     1      23.614   5.964  35.252  0.00  0.00    +0.031 C 
ENDBRANCH   1  14
BRANCH   6  17
ATOM     17  N2  UNL     1      17.100  12.004  34.799  0.00  0.00    -0.305 N 
ATOM     18  C11 UNL     1      16.557  12.421  36.068  0.00  0.00    +0.261 C 
ATOM     19  O2  UNL     1      16.938  11.867  37.134  0.00  0.00    -0.269 OA
ATOM     20  H15 UNL     1      16.626  12.353  33.937  0.00  0.00    +0.150 HD
BRANCH  18  21
ATOM     21  C12 UNL     1      15.537  13.488  36.146  0.00  0.00    +0.105 A 
ATOM     22  C13 UNL     1      15.811  14.845  36.136  0.00  0.00    +0.070 A 
ATOM     23  C14 UNL     1      14.586  15.472  36.207  0.00  0.00    +0.141 A 
ATOM     24  F1  UNL     1      14.371  16.809  36.222  0.00  0.00    -0.204 F 
ATOM     25  C15 UNL     1      13.619  14.492  36.253  0.00  0.00    +0.121 A 
ATOM     26  N3  UNL     1      14.204  13.281  36.215  0.00  0.00    -0.355 N 
ATOM     27  H18 UNL     1      13.699  12.369  36.215  0.00  0.00    +0.166 HD
ENDBRANCH  18  21
ENDBRANCH   6  17
TORSDOF 3
ENDMDL
