REMARK  Name = /home/qwerty/github/datacon2025hack/step_04_hit_selection/docking/ligands/lig_566.pdb
REMARK  3 active torsions:
REMARK  status: ('A' for Active; 'I' for Inactive)
REMARK    1  A    between atoms: C1_1  and  C2_2
REMARK    2  A    between atoms: C3_3  and  C4_4
REMARK    3  A    between atoms: C12_15  and  C13_17
REMARK                            x       y       z     vdW  Elec       q    Type
REMARK                         _______ _______ _______ _____ _____    ______ ____
ROOT
ATOM      1  C1  UNL     1      -1.164   0.821  -1.866  0.00  0.00    +0.031 C 
ATOM      2  C2  UNL     1      -0.930  -0.253  -0.786  0.00  0.00    +0.107 C 
ATOM      3  C3  UNL     1      -2.152  -1.229  -0.706  0.00  0.00    +0.168 C 
ATOM      4  O1  UNL     1      -1.955  -2.437   0.029  0.00  0.00    -0.369 OA
ATOM      5  C10 UNL     1      -0.653  -2.598   0.554  0.00  0.00    +0.179 C 
ATOM      6  C11 UNL     1       0.416  -2.378  -0.513  0.00  0.00    +0.136 C 
ATOM      7  N1  UNL     1       0.299  -1.022  -1.049  0.00  0.00    -0.290 N 
ATOM      8  C12 UNL     1       1.483  -0.388  -1.559  0.00  0.00    +0.247 C 
ATOM      9  O2  UNL     1       1.649  -0.323  -2.807  0.00  0.00    -0.270 OA
ENDROOT
BRANCH   8  10
ATOM     10  C13 UNL     1       2.508   0.174  -0.644  0.00  0.00    +0.041 A 
ATOM     11  C14 UNL     1       2.302   0.181   0.763  0.00  0.00    +0.017 A 
ATOM     12  C15 UNL     1       3.279   0.702   1.630  0.00  0.00    +0.050 A 
ATOM     13  C16 UNL     1       4.447   1.203   1.067  0.00  0.00    +0.166 A 
ATOM     14  C17 UNL     1       4.653   1.208  -0.273  0.00  0.00    +0.167 A 
ATOM     15  C18 UNL     1       3.710   0.709  -1.167  0.00  0.00    +0.062 A 
ATOM     16  O3  UNL     1       5.890   1.760  -0.546  0.00  0.00    -0.453 OA
ATOM     17  C19 UNL     1       6.499   2.122   0.701  0.00  0.00    +0.466 C 
ATOM     18  O4  UNL     1       5.542   1.753   1.704  0.00  0.00    -0.453 OA
ENDBRANCH   8  10
BRANCH   3  19
ATOM     19  C4  UNL     1      -3.371  -0.526  -0.150  0.00  0.00    -0.017 A 
ATOM     20  C5  UNL     1      -4.463  -0.221  -0.985  0.00  0.00    +0.007 A 
ATOM     21  C6  UNL     1      -5.579   0.446  -0.471  0.00  0.00    +0.015 A 
ATOM     22  C7  UNL     1      -5.619   0.816   0.876  0.00  0.00    +0.018 A 
ATOM     23 BR1  UNL     1      -7.135   1.738   1.575  0.00  0.00    -0.050 Br
ATOM     24  C8  UNL     1      -4.545   0.506   1.715  0.00  0.00    +0.015 A 
ATOM     25  C9  UNL     1      -3.425  -0.163   1.208  0.00  0.00    +0.007 A 
ENDBRANCH   3  19
TORSDOF 2
