REMARK  Name = /home/qwerty/github/datacon2025hack/step_04_hit_selection/docking/ligands/lig_8.pdb
REMARK  3 active torsions:
REMARK  status: ('A' for Active; 'I' for Inactive)
REMARK    1  A    between atoms: C1_2  and  C12_15
REMARK    2  A    between atoms: N1_3  and  C2_4
REMARK    3  A    between atoms: N2_7  and  C5_8
REMARK                            x       y       z     vdW  Elec       q    Type
REMARK                         _______ _______ _______ _____ _____    ______ ____
ROOT
ATOM      1  O1  UNL     1       2.833   1.464   1.575  0.00  0.00    -0.270 OA
ATOM      2  C1  UNL     1       3.088   0.779   0.547  0.00  0.00    +0.244 C 
ATOM      3  N1  UNL     1       2.017   0.387  -0.329  0.00  0.00    -0.308 N 
ATOM      4  H1  UNL     1       2.248   0.027  -1.282  0.00  0.00    +0.149 HD
ENDROOT
BRANCH   2   5
ATOM      5  C12 UNL     1       4.493   0.407   0.252  0.00  0.00    +0.037 A 
ATOM      6  C13 UNL     1       5.549   1.171   0.783  0.00  0.00    +0.014 A 
ATOM      7  C14 UNL     1       6.877   0.825   0.517  0.00  0.00    +0.016 A 
ATOM      8  C15 UNL     1       7.168  -0.289  -0.275  0.00  0.00    +0.018 A 
ATOM      9 BR1  UNL     1       8.983  -0.760  -0.635  0.00  0.00    -0.050 Br
ATOM     10  C16 UNL     1       6.127  -1.062  -0.797  0.00  0.00    +0.016 A 
ATOM     11  C17 UNL     1       4.797  -0.720  -0.534  0.00  0.00    +0.014 A 
ENDBRANCH   2   5
BRANCH   3  12
ATOM     12  C2  UNL     1       0.608   0.566   0.041  0.00  0.00    +0.076 C 
ATOM     13  C3  UNL     1      -0.302   0.353  -1.176  0.00  0.00    +0.037 C 
ATOM     14  C4  UNL     1      -1.774   0.614  -0.799  0.00  0.00    +0.086 C 
ATOM     15  N2  UNL     1      -2.108   0.201   0.593  0.00  0.00    -0.299 NA
ATOM     16  C10 UNL     1      -1.234  -0.877   1.101  0.00  0.00    +0.086 C 
ATOM     17  C11 UNL     1       0.226  -0.401   1.184  0.00  0.00    +0.037 C 
BRANCH  15  18
ATOM     18  C5  UNL     1      -3.545  -0.115   0.823  0.00  0.00    +0.057 C 
ATOM     19  C6  UNL     1      -4.078  -1.319   0.020  0.00  0.00    +0.019 C 
ATOM     20  C7  UNL     1      -5.336  -0.837  -0.694  0.00  0.00    +0.002 C 
ATOM     21  C8  UNL     1      -5.768   0.429   0.025  0.00  0.00    +0.002 C 
ATOM     22  C9  UNL     1      -4.483   1.063   0.525  0.00  0.00    +0.019 C 
ENDBRANCH  15  18
ENDBRANCH   3  12
TORSDOF 3
