MODEL 1
REMARK VINA RESULT:    -6.414      0.000      0.000
REMARK INTER + INTRA:          -9.202
REMARK INTER:                  -7.538
REMARK INTRA:                  -1.663
REMARK UNBOUND:                -1.663
REMARK  Name = /home/qwerty/github/datacon2025hack/step_04_hit_selection/docking/ligands/lig_733.pdb
REMARK  5 active torsions:
REMARK  status: ('A' for Active; 'I' for Inactive)
REMARK    1  A    between atoms: C1_1  and  C2_2
REMARK    2  A    between atoms: C5_5  and  N1_6
REMARK    3  A    between atoms: C9_10  and  N2_11
REMARK    4  A    between atoms: C14_18  and  C15_19
REMARK    5  A    between atoms: C19_23  and  C20_24
REMARK                            x       y       z     vdW  Elec       q    Type
REMARK                         _______ _______ _______ _____ _____    ______ ____
ROOT
ATOM      1  N2  UNL     1      13.253   0.831  23.468  0.00  0.00    -0.288 N 
ATOM      2  C10 UNL     1      13.076   0.736  24.891  0.00  0.00    +0.303 C 
ATOM      3  O1  UNL     1      12.613   1.714  25.532  0.00  0.00    -0.253 OA
ATOM      4  N3  UNL     1      13.429  -0.469  25.595  0.00  0.00    -0.277 N 
ATOM      5  C11 UNL     1      13.279  -0.613  27.033  0.00  0.00    +0.110 C 
ATOM      6  C12 UNL     1      13.919  -1.950  27.389  0.00  0.00    +0.021 C 
ATOM      7  C13 UNL     1      14.033  -2.721  26.078  0.00  0.00    +0.030 C 
ATOM      8  C14 UNL     1      13.975  -1.668  24.966  0.00  0.00    +0.126 C 
ATOM      9  H13 UNL     1      13.498  -0.029  22.930  0.00  0.00    +0.151 HD
ENDROOT
BRANCH   1  14
ATOM     10  N1  UNL     1      15.450   2.683  21.857  0.00  0.00    -0.270 N 
ATOM     11  C6  UNL     1      15.125   2.259  20.488  0.00  0.00    +0.114 C 
ATOM     12  C7  UNL     1      13.981   1.243  20.474  0.00  0.00    +0.022 C 
ATOM     13  C8  UNL     1      12.773   1.783  21.251  0.00  0.00    +0.033 C 
ATOM     14  C9  UNL     1      13.119   2.081  22.719  0.00  0.00    +0.161 C 
ATOM     15  C21 UNL     1      14.406   2.854  22.838  0.00  0.00    +0.240 C 
ATOM     16  O2  UNL     1      14.607   3.553  23.872  0.00  0.00    -0.273 OA
BRANCH  10  21
ATOM     17  C1  UNL     1      20.830   4.295  23.060  0.00  0.00    +0.044 C 
ATOM     18  C2  UNL     1      19.440   3.839  22.720  0.00  0.00    -0.050 A 
ATOM     19  C3  UNL     1      18.745   4.422  21.647  0.00  0.00    +0.005 A 
ATOM     20  C4  UNL     1      17.430   4.039  21.368  0.00  0.00    +0.024 A 
ATOM     21  C5  UNL     1      16.794   3.072  22.158  0.00  0.00    +0.036 A 
ATOM     22  C22 UNL     1      17.480   2.498  23.240  0.00  0.00    +0.024 A 
ATOM     23  C23 UNL     1      18.794   2.884  23.523  0.00  0.00    +0.005 A 
ENDBRANCH  10  21
ENDBRANCH   1  14
BRANCH   8  24
ATOM     24  C15 UNL     1      15.351  -1.390  24.398  0.00  0.00    +0.062 A 
ATOM     25  C16 UNL     1      16.444  -1.182  25.251  0.00  0.00    +0.025 A 
ATOM     26  C17 UNL     1      17.701  -0.922  24.701  0.00  0.00    +0.004 A 
ATOM     27  C18 UNL     1      17.859  -0.867  23.314  0.00  0.00    +0.023 A 
ATOM     28  C19 UNL     1      16.749  -1.082  22.489  0.00  0.00    +0.039 A 
ATOM     29  C20 UNL     1      16.878  -0.999  21.001  0.00  0.00    +0.065 C 
ATOM     30  N4  UNL     1      15.532  -1.327  23.046  0.00  0.00    -0.255 NA
ENDBRANCH   8  24
TORSDOF 3
ENDMDL
MODEL 2
REMARK VINA RESULT:    -6.346      4.457      6.518
REMARK INTER + INTRA:          -9.123
REMARK INTER:                  -7.479
REMARK INTRA:                  -1.643
REMARK UNBOUND:                -1.663
REMARK  Name = /home/qwerty/github/datacon2025hack/step_04_hit_selection/docking/ligands/lig_733.pdb
REMARK  5 active torsions:
REMARK  status: ('A' for Active; 'I' for Inactive)
REMARK    1  A    between atoms: C1_1  and  C2_2
REMARK    2  A    between atoms: C5_5  and  N1_6
REMARK    3  A    between atoms: C9_10  and  N2_11
REMARK    4  A    between atoms: C14_18  and  C15_19
REMARK    5  A    between atoms: C19_23  and  C20_24
REMARK                            x       y       z     vdW  Elec       q    Type
REMARK                         _______ _______ _______ _____ _____    ______ ____
ROOT
ATOM      1  N2  UNL     1      18.846   1.114  27.234  0.00  0.00    -0.288 N 
ATOM      2  C10 UNL     1      19.035   1.263  28.650  0.00  0.00    +0.303 C 
ATOM      3  O1  UNL     1      18.039   1.278  29.419  0.00  0.00    -0.253 OA
ATOM      4  N3  UNL     1      20.358   1.401  29.203  0.00  0.00    -0.277 N 
ATOM      5  C11 UNL     1      20.602   1.564  30.626  0.00  0.00    +0.110 C 
ATOM      6  C12 UNL     1      22.094   1.845  30.764  0.00  0.00    +0.021 C 
ATOM      7  C13 UNL     1      22.726   1.408  29.446  0.00  0.00    +0.030 C 
ATOM      8  C14 UNL     1      21.589   1.400  28.419  0.00  0.00    +0.126 C 
ATOM      9  H13 UNL     1      19.679   0.957  26.626  0.00  0.00    +0.151 HD
ENDROOT
BRANCH   1  14
ATOM     10  N1  UNL     1      17.949   1.884  24.159  0.00  0.00    -0.270 N 
ATOM     11  C6  UNL     1      17.717   0.522  23.656  0.00  0.00    +0.114 C 
ATOM     12  C7  UNL     1      17.968  -0.525  24.743  0.00  0.00    +0.022 C 
ATOM     13  C8  UNL     1      17.162  -0.193  26.006  0.00  0.00    +0.033 C 
ATOM     14  C9  UNL     1      17.537   1.182  26.583  0.00  0.00    +0.161 C 
ATOM     15  C21 UNL     1      17.586   2.237  25.510  0.00  0.00    +0.240 C 
ATOM     16  O2  UNL     1      17.432   3.449  25.836  0.00  0.00    -0.273 OA
BRANCH  10  21
ATOM     17  C1  UNL     1      19.776   5.897  20.478  0.00  0.00    +0.044 C 
ATOM     18  C2  UNL     1      19.284   4.881  21.469  0.00  0.00    -0.050 A 
ATOM     19  C3  UNL     1      20.171   4.311  22.399  0.00  0.00    +0.005 A 
ATOM     20  C4  UNL     1      19.726   3.323  23.282  0.00  0.00    +0.024 A 
ATOM     21  C5  UNL     1      18.394   2.891  23.244  0.00  0.00    +0.036 A 
ATOM     22  C22 UNL     1      17.509   3.448  22.308  0.00  0.00    +0.024 A 
ATOM     23  C23 UNL     1      17.954   4.432  21.420  0.00  0.00    +0.005 A 
ENDBRANCH  10  21
ENDBRANCH   1  14
BRANCH   8  24
ATOM     24  C15 UNL     1      21.648   2.619  27.522  0.00  0.00    +0.062 A 
ATOM     25  C16 UNL     1      22.596   2.699  26.492  0.00  0.00    +0.025 A 
ATOM     26  C17 UNL     1      22.632   3.837  25.683  0.00  0.00    +0.004 A 
ATOM     27  C18 UNL     1      21.732   4.882  25.907  0.00  0.00    +0.023 A 
ATOM     28  C19 UNL     1      20.795   4.771  26.940  0.00  0.00    +0.039 A 
ATOM     29  C20 UNL     1      19.838   5.885  27.226  0.00  0.00    +0.065 C 
ATOM     30  N4  UNL     1      20.782   3.656  27.722  0.00  0.00    -0.255 NA
ENDBRANCH   8  24
TORSDOF 3
ENDMDL
MODEL 3
REMARK VINA RESULT:    -6.249      9.280     11.695
REMARK INTER + INTRA:          -9.008
REMARK INTER:                  -7.434
REMARK INTRA:                  -1.574
REMARK UNBOUND:                -1.663
REMARK  Name = /home/qwerty/github/datacon2025hack/step_04_hit_selection/docking/ligands/lig_733.pdb
REMARK  5 active torsions:
REMARK  status: ('A' for Active; 'I' for Inactive)
REMARK    1  A    between atoms: C1_1  and  C2_2
REMARK    2  A    between atoms: C5_5  and  N1_6
REMARK    3  A    between atoms: C9_10  and  N2_11
REMARK    4  A    between atoms: C14_18  and  C15_19
REMARK    5  A    between atoms: C19_23  and  C20_24
REMARK                            x       y       z     vdW  Elec       q    Type
REMARK                         _______ _______ _______ _____ _____    ______ ____
ROOT
ATOM      1  N2  UNL     1      21.536   4.256  31.036  0.00  0.00    -0.288 N 
ATOM      2  C10 UNL     1      21.523   3.969  29.628  0.00  0.00    +0.303 C 
ATOM      3  O1  UNL     1      21.442   4.909  28.797  0.00  0.00    -0.253 OA
ATOM      4  N3  UNL     1      21.599   2.611  29.156  0.00  0.00    -0.277 N 
ATOM      5  C11 UNL     1      21.581   2.266  27.744  0.00  0.00    +0.110 C 
ATOM      6  C12 UNL     1      21.504   0.745  27.686  0.00  0.00    +0.021 C 
ATOM      7  C13 UNL     1      21.914   0.252  29.071  0.00  0.00    +0.030 C 
ATOM      8  C14 UNL     1      21.696   1.437  30.018  0.00  0.00    +0.126 C 
ATOM      9  H13 UNL     1      21.751   3.487  31.708  0.00  0.00    +0.151 HD
ENDROOT
BRANCH   1  14
ATOM     10  N1  UNL     1      20.480   5.220  34.004  0.00  0.00    -0.270 N 
ATOM     11  C6  UNL     1      21.767   5.673  34.552  0.00  0.00    +0.114 C 
ATOM     12  C7  UNL     1      22.897   5.508  33.535  0.00  0.00    +0.022 C 
ATOM     13  C8  UNL     1      22.527   6.180  32.206  0.00  0.00    +0.033 C 
ATOM     14  C9  UNL     1      21.252   5.580  31.593  0.00  0.00    +0.161 C 
ATOM     15  C21 UNL     1      20.156   5.446  32.616  0.00  0.00    +0.240 C 
ATOM     16  O2  UNL     1      18.954   5.406  32.225  0.00  0.00    -0.273 OA
BRANCH  10  21
ATOM     17  C1  UNL     1      16.499   3.147  37.588  0.00  0.00    +0.044 C 
ATOM     18  C2  UNL     1      17.573   3.674  36.679  0.00  0.00    -0.050 A 
ATOM     19  C3  UNL     1      17.958   5.025  36.746  0.00  0.00    +0.005 A 
ATOM     20  C4  UNL     1      18.915   5.529  35.862  0.00  0.00    +0.024 A 
ATOM     21  C5  UNL     1      19.495   4.693  34.899  0.00  0.00    +0.036 A 
ATOM     22  C22 UNL     1      19.104   3.347  34.820  0.00  0.00    +0.024 A 
ATOM     23  C23 UNL     1      18.142   2.843  35.701  0.00  0.00    +0.005 A 
ENDBRANCH  10  21
ENDBRANCH   1  14
BRANCH   8  24
ATOM     24  C15 UNL     1      20.429   1.268  30.830  0.00  0.00    +0.062 A 
ATOM     25  C16 UNL     1      20.356   0.302  31.843  0.00  0.00    +0.025 A 
ATOM     26  C17 UNL     1      19.174   0.164  32.573  0.00  0.00    +0.004 A 
ATOM     27  C18 UNL     1      18.077   0.981  32.287  0.00  0.00    +0.023 A 
ATOM     28  C19 UNL     1      18.181   1.938  31.271  0.00  0.00    +0.039 A 
ATOM     29  C20 UNL     1      17.015   2.807  30.919  0.00  0.00    +0.065 C 
ATOM     30  N4  UNL     1      19.341   2.051  30.567  0.00  0.00    -0.255 NA
ENDBRANCH   8  24
TORSDOF 3
ENDMDL
MODEL 4
REMARK VINA RESULT:    -6.189     12.181     14.949
REMARK INTER + INTRA:          -8.938
REMARK INTER:                  -7.273
REMARK INTRA:                  -1.664
REMARK UNBOUND:                -1.663
REMARK  Name = /home/qwerty/github/datacon2025hack/step_04_hit_selection/docking/ligands/lig_733.pdb
REMARK  5 active torsions:
REMARK  status: ('A' for Active; 'I' for Inactive)
REMARK    1  A    between atoms: C1_1  and  C2_2
REMARK    2  A    between atoms: C5_5  and  N1_6
REMARK    3  A    between atoms: C9_10  and  N2_11
REMARK    4  A    between atoms: C14_18  and  C15_19
REMARK    5  A    between atoms: C19_23  and  C20_24
REMARK                            x       y       z     vdW  Elec       q    Type
REMARK                         _______ _______ _______ _____ _____    ______ ____
ROOT
ATOM      1  N2  UNL     1      21.027   9.729  34.211  0.00  0.00    -0.288 N 
ATOM      2  C10 UNL     1      21.143  10.007  32.806  0.00  0.00    +0.303 C 
ATOM      3  O1  UNL     1      20.127  10.349  32.148  0.00  0.00    -0.253 OA
ATOM      4  N3  UNL     1      22.414   9.895  32.138  0.00  0.00    -0.277 N 
ATOM      5  C11 UNL     1      22.582  10.156  30.719  0.00  0.00    +0.110 C 
ATOM      6  C12 UNL     1      24.016   9.759  30.388  0.00  0.00    +0.021 C 
ATOM      7  C13 UNL     1      24.749   9.687  31.725  0.00  0.00    +0.030 C 
ATOM      8  C14 UNL     1      23.662   9.507  32.789  0.00  0.00    +0.126 C 
ATOM      9  H13 UNL     1      21.896   9.591  34.773  0.00  0.00    +0.151 HD
ENDROOT
BRANCH   1  14
ATOM     10  N1  UNL     1      19.495   7.169  35.609  0.00  0.00    -0.270 N 
ATOM     11  C6  UNL     1      19.813   7.470  37.012  0.00  0.00    +0.114 C 
ATOM     12  C7  UNL     1      20.631   8.757  37.137  0.00  0.00    +0.022 C 
ATOM     13  C8  UNL     1      19.932   9.911  36.406  0.00  0.00    +0.033 C 
ATOM     14  C9  UNL     1      19.746   9.616  34.909  0.00  0.00    +0.161 C 
ATOM     15  C21 UNL     1      19.194   8.234  34.683  0.00  0.00    +0.240 C 
ATOM     16  O2  UNL     1      18.574   7.990  33.608  0.00  0.00    -0.273 OA
BRANCH  10  21
ATOM     17  C1  UNL     1      18.811   1.689  34.032  0.00  0.00    +0.044 C 
ATOM     18  C2  UNL     1      19.027   3.110  34.469  0.00  0.00    -0.050 A 
ATOM     19  C3  UNL     1      18.318   3.629  35.567  0.00  0.00    +0.005 A 
ATOM     20  C4  UNL     1      18.475   4.967  35.937  0.00  0.00    +0.024 A 
ATOM     21  C5  UNL     1      19.338   5.803  35.215  0.00  0.00    +0.036 A 
ATOM     22  C22 UNL     1      20.037   5.292  34.110  0.00  0.00    +0.024 A 
ATOM     23  C23 UNL     1      19.876   3.954  33.735  0.00  0.00    +0.005 A 
ENDBRANCH  10  21
ENDBRANCH   1  14
BRANCH   8  24
ATOM     24  C15 UNL     1      23.588   8.072  33.266  0.00  0.00    +0.062 A 
ATOM     25  C16 UNL     1      23.608   7.015  32.345  0.00  0.00    +0.025 A 
ATOM     26  C17 UNL     1      23.534   5.700  32.812  0.00  0.00    +0.004 A 
ATOM     27  C18 UNL     1      23.436   5.450  34.183  0.00  0.00    +0.023 A 
ATOM     28  C19 UNL     1      23.422   6.526  35.077  0.00  0.00    +0.039 A 
ATOM     29  C20 UNL     1      23.287   6.294  36.548  0.00  0.00    +0.065 C 
ATOM     30  N4  UNL     1      23.488   7.800  34.600  0.00  0.00    -0.255 NA
ENDBRANCH   8  24
TORSDOF 3
ENDMDL
MODEL 5
REMARK VINA RESULT:    -6.152      5.159      7.278
REMARK INTER + INTRA:          -8.894
REMARK INTER:                  -7.376
REMARK INTRA:                  -1.518
REMARK UNBOUND:                -1.663
REMARK  Name = /home/qwerty/github/datacon2025hack/step_04_hit_selection/docking/ligands/lig_733.pdb
REMARK  5 active torsions:
REMARK  status: ('A' for Active; 'I' for Inactive)
REMARK    1  A    between atoms: C1_1  and  C2_2
REMARK    2  A    between atoms: C5_5  and  N1_6
REMARK    3  A    between atoms: C9_10  and  N2_11
REMARK    4  A    between atoms: C14_18  and  C15_19
REMARK    5  A    between atoms: C19_23  and  C20_24
REMARK                            x       y       z     vdW  Elec       q    Type
REMARK                         _______ _______ _______ _____ _____    ______ ____
ROOT
ATOM      1  N2  UNL     1       9.470   3.553  23.189  0.00  0.00    -0.288 N 
ATOM      2  C10 UNL     1      10.277   2.756  24.069  0.00  0.00    +0.303 C 
ATOM      3  O1  UNL     1      10.074   2.789  25.310  0.00  0.00    -0.253 OA
ATOM      4  N3  UNL     1      11.324   1.917  23.546  0.00  0.00    -0.277 N 
ATOM      5  C11 UNL     1      12.175   1.099  24.395  0.00  0.00    +0.110 C 
ATOM      6  C12 UNL     1      13.244   0.516  23.477  0.00  0.00    +0.021 C 
ATOM      7  C13 UNL     1      12.711   0.681  22.057  0.00  0.00    +0.030 C 
ATOM      8  C14 UNL     1      11.658   1.792  22.131  0.00  0.00    +0.126 C 
ATOM      9  H13 UNL     1       9.548   3.407  22.158  0.00  0.00    +0.151 HD
ENDROOT
BRANCH   1  14
ATOM     10  N1  UNL     1       8.901   6.638  22.183  0.00  0.00    -0.270 N 
ATOM     11  C6  UNL     1       7.669   6.391  21.421  0.00  0.00    +0.114 C 
ATOM     12  C7  UNL     1       7.262   4.918  21.479  0.00  0.00    +0.022 C 
ATOM     13  C8  UNL     1       7.188   4.437  22.934  0.00  0.00    +0.033 C 
ATOM     14  C9  UNL     1       8.537   4.580  23.656  0.00  0.00    +0.161 C 
ATOM     15  C21 UNL     1       9.152   5.933  23.417  0.00  0.00    +0.240 C 
ATOM     16  O2  UNL     1       9.989   6.383  24.252  0.00  0.00    -0.273 OA
BRANCH  10  21
ATOM     17  C1  UNL     1      12.410  10.885  20.556  0.00  0.00    +0.044 C 
ATOM     18  C2  UNL     1      11.458   9.794  20.959  0.00  0.00    -0.050 A 
ATOM     19  C3  UNL     1      10.799   9.851  22.198  0.00  0.00    +0.005 A 
ATOM     20  C4  UNL     1       9.959   8.808  22.598  0.00  0.00    +0.024 A 
ATOM     21  C5  UNL     1       9.770   7.696  21.766  0.00  0.00    +0.036 A 
ATOM     22  C22 UNL     1      10.438   7.629  20.533  0.00  0.00    +0.024 A 
ATOM     23  C23 UNL     1      11.283   8.670  20.135  0.00  0.00    +0.005 A 
ENDBRANCH  10  21
ENDBRANCH   1  14
BRANCH   8  24
ATOM     24  C15 UNL     1      12.200   3.101  21.596  0.00  0.00    +0.062 A 
ATOM     25  C16 UNL     1      12.475   3.252  20.230  0.00  0.00    +0.025 A 
ATOM     26  C17 UNL     1      12.980   4.468  19.764  0.00  0.00    +0.004 A 
ATOM     27  C18 UNL     1      13.209   5.518  20.657  0.00  0.00    +0.023 A 
ATOM     28  C19 UNL     1      12.921   5.338  22.015  0.00  0.00    +0.039 A 
ATOM     29  C20 UNL     1      13.185   6.430  23.002  0.00  0.00    +0.065 C 
ATOM     30  N4  UNL     1      12.437   4.141  22.448  0.00  0.00    -0.255 NA
ENDBRANCH   8  24
TORSDOF 3
ENDMDL
MODEL 6
REMARK VINA RESULT:    -6.042      9.554     12.297
REMARK INTER + INTRA:          -8.765
REMARK INTER:                  -7.196
REMARK INTRA:                  -1.568
REMARK UNBOUND:                -1.663
REMARK  Name = /home/qwerty/github/datacon2025hack/step_04_hit_selection/docking/ligands/lig_733.pdb
REMARK  5 active torsions:
REMARK  status: ('A' for Active; 'I' for Inactive)
REMARK    1  A    between atoms: C1_1  and  C2_2
REMARK    2  A    between atoms: C5_5  and  N1_6
REMARK    3  A    between atoms: C9_10  and  N2_11
REMARK    4  A    between atoms: C14_18  and  C15_19
REMARK    5  A    between atoms: C19_23  and  C20_24
REMARK                            x       y       z     vdW  Elec       q    Type
REMARK                         _______ _______ _______ _____ _____    ______ ____
ROOT
ATOM      1  N2  UNL     1       9.802  10.443  26.026  0.00  0.00    -0.288 N 
ATOM      2  C10 UNL     1      10.454  11.478  26.779  0.00  0.00    +0.303 C 
ATOM      3  O1  UNL     1      11.633  11.812  26.497  0.00  0.00    -0.253 OA
ATOM      4  N3  UNL     1       9.771  12.138  27.862  0.00  0.00    -0.277 N 
ATOM      5  C11 UNL     1      10.389  13.184  28.660  0.00  0.00    +0.110 C 
ATOM      6  C12 UNL     1       9.408  13.483  29.788  0.00  0.00    +0.021 C 
ATOM      7  C13 UNL     1       8.071  12.896  29.346  0.00  0.00    +0.030 C 
ATOM      8  C14 UNL     1       8.406  11.842  28.286  0.00  0.00    +0.126 C 
ATOM      9  H13 UNL     1       8.782  10.277  26.171  0.00  0.00    +0.151 HD
ENDROOT
BRANCH   1  14
ATOM     10  N1  UNL     1       9.124   7.439  24.856  0.00  0.00    -0.270 N 
ATOM     11  C6  UNL     1       8.575   7.837  23.551  0.00  0.00    +0.114 C 
ATOM     12  C7  UNL     1       8.603   9.356  23.372  0.00  0.00    +0.022 C 
ATOM     13  C8  UNL     1      10.012   9.902  23.635  0.00  0.00    +0.033 C 
ATOM     14  C9  UNL     1      10.494   9.588  25.061  0.00  0.00    +0.161 C 
ATOM     15  C21 UNL     1      10.243   8.149  25.425  0.00  0.00    +0.240 C 
ATOM     16  O2  UNL     1      10.947   7.615  26.330  0.00  0.00    -0.273 OA
BRANCH  10  21
ATOM     17  C1  UNL     1       7.113   2.675  27.356  0.00  0.00    +0.044 C 
ATOM     18  C2  UNL     1       7.679   3.914  26.722  0.00  0.00    -0.050 A 
ATOM     19  C3  UNL     1       7.472   5.172  27.316  0.00  0.00    +0.005 A 
ATOM     20  C4  UNL     1       7.948   6.330  26.696  0.00  0.00    +0.024 A 
ATOM     21  C5  UNL     1       8.634   6.247  25.477  0.00  0.00    +0.036 A 
ATOM     22  C22 UNL     1       8.831   4.994  24.874  0.00  0.00    +0.024 A 
ATOM     23  C23 UNL     1       8.350   3.835  25.491  0.00  0.00    +0.005 A 
ENDBRANCH  10  21
ENDBRANCH   1  14
BRANCH   8  24
ATOM     24  C15 UNL     1       8.320  10.441  28.855  0.00  0.00    +0.062 A 
ATOM     25  C16 UNL     1       7.076   9.869  29.154  0.00  0.00    +0.025 A 
ATOM     26  C17 UNL     1       7.025   8.578  29.683  0.00  0.00    +0.004 A 
ATOM     27  C18 UNL     1       8.208   7.870  29.913  0.00  0.00    +0.023 A 
ATOM     28  C19 UNL     1       9.435   8.466  29.601  0.00  0.00    +0.039 A 
ATOM     29  C20 UNL     1      10.720   7.748  29.864  0.00  0.00    +0.065 C 
ATOM     30  N4  UNL     1       9.461   9.730  29.093  0.00  0.00    -0.255 NA
ENDBRANCH   8  24
TORSDOF 3
ENDMDL
MODEL 7
REMARK VINA RESULT:    -6.041      6.510     10.366
REMARK INTER + INTRA:          -8.764
REMARK INTER:                  -7.124
REMARK INTRA:                  -1.640
REMARK UNBOUND:                -1.663
REMARK  Name = /home/qwerty/github/datacon2025hack/step_04_hit_selection/docking/ligands/lig_733.pdb
REMARK  5 active torsions:
REMARK  status: ('A' for Active; 'I' for Inactive)
REMARK    1  A    between atoms: C1_1  and  C2_2
REMARK    2  A    between atoms: C5_5  and  N1_6
REMARK    3  A    between atoms: C9_10  and  N2_11
REMARK    4  A    between atoms: C14_18  and  C15_19
REMARK    5  A    between atoms: C19_23  and  C20_24
REMARK                            x       y       z     vdW  Elec       q    Type
REMARK                         _______ _______ _______ _____ _____    ______ ____
ROOT
ATOM      1  N2  UNL     1      11.794   6.083  21.256  0.00  0.00    -0.288 N 
ATOM      2  C10 UNL     1      12.656   7.192  21.554  0.00  0.00    +0.303 C 
ATOM      3  O1  UNL     1      13.674   7.020  22.273  0.00  0.00    -0.253 OA
ATOM      4  N3  UNL     1      12.366   8.506  21.040  0.00  0.00    -0.277 N 
ATOM      5  C11 UNL     1      13.201   9.662  21.320  0.00  0.00    +0.110 C 
ATOM      6  C12 UNL     1      12.458  10.863  20.745  0.00  0.00    +0.021 C 
ATOM      7  C13 UNL     1      11.426  10.292  19.777  0.00  0.00    +0.030 C 
ATOM      8  C14 UNL     1      11.220   8.833  20.198  0.00  0.00    +0.126 C 
ATOM      9  H13 UNL     1      11.041   6.204  20.544  0.00  0.00    +0.151 HD
ENDROOT
BRANCH   1  14
ATOM     10  N1  UNL     1       9.853   4.527  23.416  0.00  0.00    -0.270 N 
ATOM     11  C6  UNL     1       9.201   3.595  22.485  0.00  0.00    +0.114 C 
ATOM     12  C7  UNL     1       9.722   3.774  21.058  0.00  0.00    +0.022 C 
ATOM     13  C8  UNL     1      11.254   3.693  21.031  0.00  0.00    +0.033 C 
ATOM     14  C9  UNL     1      11.903   4.777  21.908  0.00  0.00    +0.161 C 
ATOM     15  C21 UNL     1      11.249   4.858  23.261  0.00  0.00    +0.240 C 
ATOM     16  O2  UNL     1      11.903   5.341  24.229  0.00  0.00    -0.273 OA
BRANCH  10  21
ATOM     17  C1  UNL     1       6.966   6.301  28.054  0.00  0.00    +0.044 C 
ATOM     18  C2  UNL     1       7.683   5.838  26.816  0.00  0.00    -0.050 A 
ATOM     19  C3  UNL     1       7.902   4.467  26.595  0.00  0.00    +0.005 A 
ATOM     20  C4  UNL     1       8.619   4.041  25.474  0.00  0.00    +0.024 A 
ATOM     21  C5  UNL     1       9.127   4.977  24.564  0.00  0.00    +0.036 A 
ATOM     22  C22 UNL     1       8.922   6.347  24.789  0.00  0.00    +0.024 A 
ATOM     23  C23 UNL     1       8.209   6.776  25.913  0.00  0.00    +0.005 A 
ENDBRANCH  10  21
ENDBRANCH   1  14
BRANCH   8  24
ATOM     24  C15 UNL     1       9.928   8.659  20.969  0.00  0.00    +0.062 A 
ATOM     25  C16 UNL     1       9.584   9.554  21.991  0.00  0.00    +0.025 A 
ATOM     26  C17 UNL     1       8.389   9.367  22.690  0.00  0.00    +0.004 A 
ATOM     27  C18 UNL     1       7.553   8.294  22.371  0.00  0.00    +0.023 A 
ATOM     28  C19 UNL     1       7.923   7.420  21.343  0.00  0.00    +0.039 A 
ATOM     29  C20 UNL     1       7.066   6.243  20.998  0.00  0.00    +0.065 C 
ATOM     30  N4  UNL     1       9.096   7.616  20.680  0.00  0.00    -0.255 NA
ENDBRANCH   8  24
TORSDOF 3
ENDMDL
MODEL 8
REMARK VINA RESULT:    -6.015      2.807      6.197
REMARK INTER + INTRA:          -8.733
REMARK INTER:                  -7.076
REMARK INTRA:                  -1.657
REMARK UNBOUND:                -1.663
REMARK  Name = /home/qwerty/github/datacon2025hack/step_04_hit_selection/docking/ligands/lig_733.pdb
REMARK  5 active torsions:
REMARK  status: ('A' for Active; 'I' for Inactive)
REMARK    1  A    between atoms: C1_1  and  C2_2
REMARK    2  A    between atoms: C5_5  and  N1_6
REMARK    3  A    between atoms: C9_10  and  N2_11
REMARK    4  A    between atoms: C14_18  and  C15_19
REMARK    5  A    between atoms: C19_23  and  C20_24
REMARK                            x       y       z     vdW  Elec       q    Type
REMARK                         _______ _______ _______ _____ _____    ______ ____
ROOT
ATOM      1  N2  UNL     1      11.906   3.092  23.493  0.00  0.00    -0.288 N 
ATOM      2  C10 UNL     1      10.842   3.406  22.581  0.00  0.00    +0.303 C 
ATOM      3  O1  UNL     1       9.891   2.597  22.423  0.00  0.00    -0.253 OA
ATOM      4  N3  UNL     1      10.851   4.640  21.839  0.00  0.00    -0.277 N 
ATOM      5  C11 UNL     1       9.804   5.001  20.898  0.00  0.00    +0.110 C 
ATOM      6  C12 UNL     1      10.279   6.277  20.213  0.00  0.00    +0.021 C 
ATOM      7  C13 UNL     1      11.390   6.837  21.096  0.00  0.00    +0.030 C 
ATOM      8  C14 UNL     1      11.894   5.657  21.933  0.00  0.00    +0.126 C 
ATOM      9  H13 UNL     1      12.608   3.829  23.725  0.00  0.00    +0.151 HD
ENDROOT
BRANCH   1  14
ATOM     10  N1  UNL     1      14.279   0.820  23.244  0.00  0.00    -0.270 N 
ATOM     11  C6  UNL     1      14.976   1.099  24.508  0.00  0.00    +0.114 C 
ATOM     12  C7  UNL     1      14.291   2.224  25.287  0.00  0.00    +0.022 C 
ATOM     13  C8  UNL     1      12.798   1.923  25.465  0.00  0.00    +0.033 C 
ATOM     14  C9  UNL     1      12.075   1.778  24.116  0.00  0.00    +0.161 C 
ATOM     15  C21 UNL     1      12.840   0.891  23.171  0.00  0.00    +0.240 C 
ATOM     16  O2  UNL     1      12.217   0.312  22.235  0.00  0.00    -0.273 OA
BRANCH  10  21
ATOM     17  C1  UNL     1      17.321  -1.110  18.771  0.00  0.00    +0.044 C 
ATOM     18  C2  UNL     1      16.495  -0.639  19.934  0.00  0.00    -0.050 A 
ATOM     19  C3  UNL     1      15.554   0.391  19.764  0.00  0.00    +0.005 A 
ATOM     20  C4  UNL     1      14.828   0.869  20.858  0.00  0.00    +0.024 A 
ATOM     21  C5  UNL     1      15.035   0.327  22.133  0.00  0.00    +0.036 A 
ATOM     22  C22 UNL     1      15.983  -0.693  22.310  0.00  0.00    +0.024 A 
ATOM     23  C23 UNL     1      16.715  -1.168  21.217  0.00  0.00    +0.005 A 
ENDBRANCH  10  21
ENDBRANCH   1  14
BRANCH   8  24
ATOM     24  C15 UNL     1      13.207   5.122  21.398  0.00  0.00    +0.062 A 
ATOM     25  C16 UNL     1      13.391   4.937  20.021  0.00  0.00    +0.025 A 
ATOM     26  C17 UNL     1      14.609   4.438  19.555  0.00  0.00    +0.004 A 
ATOM     27  C18 UNL     1      15.627   4.124  20.459  0.00  0.00    +0.023 A 
ATOM     28  C19 UNL     1      15.414   4.323  21.827  0.00  0.00    +0.039 A 
ATOM     29  C20 UNL     1      16.472   3.968  22.823  0.00  0.00    +0.065 C 
ATOM     30  N4  UNL     1      14.216   4.804  22.261  0.00  0.00    -0.255 NA
ENDBRANCH   8  24
TORSDOF 3
ENDMDL
MODEL 9
REMARK VINA RESULT:    -5.956      8.451     11.191
REMARK INTER + INTRA:          -8.664
REMARK INTER:                  -7.200
REMARK INTRA:                  -1.464
REMARK UNBOUND:                -1.663
REMARK  Name = /home/qwerty/github/datacon2025hack/step_04_hit_selection/docking/ligands/lig_733.pdb
REMARK  5 active torsions:
REMARK  status: ('A' for Active; 'I' for Inactive)
REMARK    1  A    between atoms: C1_1  and  C2_2
REMARK    2  A    between atoms: C5_5  and  N1_6
REMARK    3  A    between atoms: C9_10  and  N2_11
REMARK    4  A    between atoms: C14_18  and  C15_19
REMARK    5  A    between atoms: C19_23  and  C20_24
REMARK                            x       y       z     vdW  Elec       q    Type
REMARK                         _______ _______ _______ _____ _____    ______ ____
ROOT
ATOM      1  N2  UNL     1       8.783   5.758  25.407  0.00  0.00    -0.288 N 
ATOM      2  C10 UNL     1       9.412   4.945  24.403  0.00  0.00    +0.303 C 
ATOM      3  O1  UNL     1      10.214   4.037  24.743  0.00  0.00    -0.253 OA
ATOM      4  N3  UNL     1       9.138   5.161  23.006  0.00  0.00    -0.277 N 
ATOM      5  C11 UNL     1       9.755   4.373  21.952  0.00  0.00    +0.110 C 
ATOM      6  C12 UNL     1       9.337   5.029  20.641  0.00  0.00    +0.021 C 
ATOM      7  C13 UNL     1       8.144   5.917  20.979  0.00  0.00    +0.030 C 
ATOM      8  C14 UNL     1       8.231   6.179  22.486  0.00  0.00    +0.126 C 
ATOM      9  H13 UNL     1       8.014   6.405  25.125  0.00  0.00    +0.151 HD
ENDROOT
BRANCH   1  14
ATOM     10  N1  UNL     1       8.221   7.869  27.872  0.00  0.00    -0.270 N 
ATOM     11  C6  UNL     1       7.138   7.134  28.541  0.00  0.00    +0.114 C 
ATOM     12  C7  UNL     1       6.831   5.817  27.825  0.00  0.00    +0.022 C 
ATOM     13  C8  UNL     1       8.111   4.991  27.646  0.00  0.00    +0.033 C 
ATOM     14  C9  UNL     1       9.169   5.740  26.819  0.00  0.00    +0.161 C 
ATOM     15  C21 UNL     1       9.335   7.160  27.290  0.00  0.00    +0.240 C 
ATOM     16  O2  UNL     1      10.422   7.761  27.052  0.00  0.00    -0.273 OA
BRANCH  10  21
ATOM     17  C1  UNL     1       8.232  13.607  28.126  0.00  0.00    +0.044 C 
ATOM     18  C2  UNL     1       8.275  12.106  28.064  0.00  0.00    -0.050 A 
ATOM     19  C3  UNL     1       8.281  11.449  26.822  0.00  0.00    +0.005 A 
ATOM     20  C4  UNL     1       8.261  10.053  26.764  0.00  0.00    +0.024 A 
ATOM     21  C5  UNL     1       8.233   9.298  27.945  0.00  0.00    +0.036 A 
ATOM     22  C22 UNL     1       8.213   9.952  29.187  0.00  0.00    +0.024 A 
ATOM     23  C23 UNL     1       8.227  11.349  29.246  0.00  0.00    +0.005 A 
ENDBRANCH  10  21
ENDBRANCH   1  14
BRANCH   8  24
ATOM     24  C15 UNL     1       8.769   7.566  22.774  0.00  0.00    +0.062 A 
ATOM     25  C16 UNL     1       7.986   8.700  22.518  0.00  0.00    +0.025 A 
ATOM     26  C17 UNL     1       8.508   9.967  22.787  0.00  0.00    +0.004 A 
ATOM     27  C18 UNL     1       9.800  10.094  23.303  0.00  0.00    +0.023 A 
ATOM     28  C19 UNL     1      10.556   8.943  23.552  0.00  0.00    +0.039 A 
ATOM     29  C20 UNL     1      11.954   9.046  24.075  0.00  0.00    +0.065 C 
ATOM     30  N4  UNL     1      10.030   7.718  23.275  0.00  0.00    -0.255 NA
ENDBRANCH   8  24
TORSDOF 3
ENDMDL
