REMARK  Name = /home/qwerty/github/datacon2025hack/step_04_hit_selection/docking/ligands/lig_533.pdb
REMARK  7 active torsions:
REMARK  status: ('A' for Active; 'I' for Inactive)
REMARK    1  A    between atoms: C1_1  and  C2_2
REMARK    2  A    between atoms: C2_2  and  O1_3
REMARK    3  A    between atoms: C2_2  and  C3_4
REMARK    4  A    between atoms: C3_4  and  N1_5
REMARK    5  A    between atoms: N1_5  and  C4_6
REMARK    6  A    between atoms: N2_9  and  C6_10
REMARK    7  A    between atoms: C11_16  and  C12_17
REMARK                            x       y       z     vdW  Elec       q    Type
REMARK                         _______ _______ _______ _____ _____    ______ ____
ROOT
ATOM      1  C6  UNL     1       0.534  -1.897  -1.480  0.00  0.00    +0.045 A 
ATOM      2  C7  UNL     1       1.268  -2.917  -2.103  0.00  0.00    +0.027 A 
ATOM      3  C8  UNL     1       0.616  -3.943  -2.790  0.00  0.00    +0.040 A 
ATOM      4  C9  UNL     1      -0.776  -3.959  -2.864  0.00  0.00    +0.124 A 
ATOM      5  F1  UNL     1      -1.408  -4.960  -3.525  0.00  0.00    -0.205 F 
ATOM      6  C10 UNL     1      -1.521  -2.935  -2.273  0.00  0.00    +0.050 A 
ATOM      7  C11 UNL     1      -0.879  -1.882  -1.598  0.00  0.00    +0.031 A 
ENDROOT
BRANCH   7   8
ATOM      8  C12 UNL     1      -1.704  -0.770  -1.079  0.00  0.00    +0.111 A 
ATOM      9  N3  UNL     1      -2.932  -0.955  -0.533  0.00  0.00    -0.239 NA
ATOM     10  C13 UNL     1      -3.497   0.228  -0.181  0.00  0.00    +0.079 A 
ATOM     11  C14 UNL     1      -4.753   0.357   0.415  0.00  0.00    +0.029 A 
ATOM     12  C15 UNL     1      -5.223   1.644   0.728  0.00  0.00    +0.002 A 
ATOM     13  C16 UNL     1      -4.439   2.780   0.442  0.00  0.00    +0.001 A 
ATOM     14  C17 UNL     1      -3.179   2.639  -0.161  0.00  0.00    +0.017 A 
ATOM     15  C18 UNL     1      -2.737   1.352  -0.459  0.00  0.00    +0.040 A 
ATOM     16  S1  UNL     1      -1.298   0.877  -1.176  0.00  0.00    -0.067 S 
ENDBRANCH   7   8
BRANCH   1  21
ATOM     17  N1  UNL     1       1.421   0.503   1.361  0.00  0.00    -0.286 N 
ATOM     18  C4  UNL     1       1.228   0.606   2.811  0.00  0.00    +0.133 C 
ATOM     19  C5  UNL     1       0.941  -0.677   0.679  0.00  0.00    +0.306 C 
ATOM     20  O2  UNL     1       0.243  -1.518   1.311  0.00  0.00    -0.252 OA
ATOM     21  N2  UNL     1       1.242  -0.916  -0.706  0.00  0.00    -0.269 N 
ATOM     22  H11 UNL     1       2.135  -0.550  -1.099  0.00  0.00    +0.156 HD
BRANCH  17  23
ATOM     23  C3  UNL     1       2.006   1.645   0.637  0.00  0.00    +0.140 C 
BRANCH  23  25
ATOM     24  C1  UNL     1       4.309   0.598   0.372  0.00  0.00    +0.039 C 
ATOM     25  C2  UNL     1       3.512   1.786   0.919  0.00  0.00    +0.129 C 
BRANCH  25  26
ATOM     26  O1  UNL     1       3.973   2.972   0.325  0.00  0.00    -0.391 OA
ATOM     27  H5  UNL     1       4.841   3.191   0.754  0.00  0.00    +0.210 HD
ENDBRANCH  25  26
ENDBRANCH  23  25
ENDBRANCH  17  23
ENDBRANCH   1  21
TORSDOF 5
