MODEL 1
REMARK VINA RESULT:    -7.650      0.000      0.000
REMARK INTER + INTRA:          -9.676
REMARK INTER:                  -8.992
REMARK INTRA:                  -0.684
REMARK UNBOUND:                -0.684
REMARK  Name = /home/qwerty/github/datacon2025hack/step_04_hit_selection/docking/ligands/lig_433.pdb
REMARK  4 active torsions:
REMARK  status: ('A' for Active; 'I' for Inactive)
REMARK    1  A    between atoms: C1_1  and  C2_2
REMARK    2  A    between atoms: C3_4  and  C4_5
REMARK    3  A    between atoms: C10_12  and  N2_13
REMARK    4  A    between atoms: C15_20  and  C16_21
REMARK                            x       y       z     vdW  Elec       q    Type
REMARK                         _______ _______ _______ _____ _____    ______ ____
ROOT
ATOM      1  N2  UNL     1      11.161   6.895  22.711  0.00  0.00    -0.262 N 
ATOM      2  C11 UNL     1      10.777   8.119  22.061  0.00  0.00    +0.307 C 
ATOM      3  O1  UNL     1      11.231   8.373  20.911  0.00  0.00    -0.252 OA
ATOM      4  N3  UNL     1       9.900   9.064  22.713  0.00  0.00    -0.285 N 
ATOM      5  C12 UNL     1       9.437  10.267  22.003  0.00  0.00    +0.109 C 
ATOM      6  C13 UNL     1       7.920  10.447  22.174  0.00  0.00    +0.020 C 
ATOM      7  C14 UNL     1       7.424  10.208  23.618  0.00  0.00    +0.013 C 
ATOM      8  C15 UNL     1       8.567   9.972  24.617  0.00  0.00    +0.058 C 
ATOM      9  C22 UNL     1       9.491   8.849  24.112  0.00  0.00    +0.119 C 
ATOM     10  H9  UNL     1      11.207   6.862  23.752  0.00  0.00    +0.157 HD
ENDROOT
BRANCH   8  11
ATOM     11  C16 UNL     1       8.015   9.658  25.984  0.00  0.00    +0.077 A 
ATOM     12  N4  UNL     1       7.225   8.589  26.270  0.00  0.00    -0.176 NA
ATOM     13  N5  UNL     1       6.862   8.666  27.547  0.00  0.00    -0.260 N 
ATOM     14  C17 UNL     1       7.400   9.779  28.064  0.00  0.00    +0.156 A 
ATOM     15  N6  UNL     1       7.256  10.244  29.329  0.00  0.00    -0.236 NA
ATOM     16  C18 UNL     1       7.865  11.422  29.669  0.00  0.00    +0.113 A 
ATOM     17  C19 UNL     1       8.623  12.142  28.715  0.00  0.00    +0.020 A 
ATOM     18  C20 UNL     1       8.756  11.644  27.405  0.00  0.00    +0.015 A 
ATOM     19  C21 UNL     1       8.124  10.438  27.119  0.00  0.00    +0.042 A 
ATOM     20  H17 UNL     1       6.251   7.976  28.036  0.00  0.00    +0.191 HD
ENDBRANCH   8  11
BRANCH   1  26
ATOM     21  C1  UNL     1       9.563   4.929  20.891  0.00  0.00    +0.068 C 
ATOM     22  C2  UNL     1      11.030   4.876  21.182  0.00  0.00    +0.068 A 
ATOM     23  N1  UNL     1      11.812   3.886  20.672  0.00  0.00    -0.242 NA
ATOM     24  C3  UNL     1      13.097   3.969  21.091  0.00  0.00    +0.110 A 
ATOM     25  S1  UNL     1      13.314   5.287  22.126  0.00  0.00    -0.052 S 
ATOM     26  C10 UNL     1      11.714   5.782  21.999  0.00  0.00    +0.096 A 
BRANCH  24  27
ATOM     27  C4  UNL     1      14.148   3.009  20.685  0.00  0.00    +0.007 A 
ATOM     28  C5  UNL     1      15.450   3.464  20.400  0.00  0.00    +0.010 A 
ATOM     29  C6  UNL     1      16.448   2.562  20.017  0.00  0.00    +0.001 A 
ATOM     30  C7  UNL     1      16.161   1.200  19.916  0.00  0.00    +0.000 A 
ATOM     31  C8  UNL     1      14.874   0.735  20.196  0.00  0.00    +0.001 A 
ATOM     32  C9  UNL     1      13.871   1.632  20.578  0.00  0.00    +0.010 A 
ENDBRANCH  24  27
ENDBRANCH   1  26
TORSDOF 3
ENDMDL
MODEL 2
REMARK VINA RESULT:    -7.431     10.222     13.748
REMARK INTER + INTRA:          -9.418
REMARK INTER:                  -8.778
REMARK INTRA:                  -0.640
REMARK UNBOUND:                -0.684
REMARK  Name = /home/qwerty/github/datacon2025hack/step_04_hit_selection/docking/ligands/lig_433.pdb
REMARK  4 active torsions:
REMARK  status: ('A' for Active; 'I' for Inactive)
REMARK    1  A    between atoms: C1_1  and  C2_2
REMARK    2  A    between atoms: C3_4  and  C4_5
REMARK    3  A    between atoms: C10_12  and  N2_13
REMARK    4  A    between atoms: C15_20  and  C16_21
REMARK                            x       y       z     vdW  Elec       q    Type
REMARK                         _______ _______ _______ _____ _____    ______ ____
ROOT
ATOM      1  N2  UNL     1      15.086  11.118  34.689  0.00  0.00    -0.262 N 
ATOM      2  C11 UNL     1      13.797  11.266  35.307  0.00  0.00    +0.307 C 
ATOM      3  O1  UNL     1      13.585  10.721  36.425  0.00  0.00    -0.252 OA
ATOM      4  N3  UNL     1      12.742  12.011  34.658  0.00  0.00    -0.285 N 
ATOM      5  C12 UNL     1      11.458  12.237  35.342  0.00  0.00    +0.109 C 
ATOM      6  C13 UNL     1      11.038  13.711  35.231  0.00  0.00    +0.020 C 
ATOM      7  C14 UNL     1      11.237  14.311  33.821  0.00  0.00    +0.013 C 
ATOM      8  C15 UNL     1      11.687  13.273  32.781  0.00  0.00    +0.058 C 
ATOM      9  C22 UNL     1      12.930  12.518  33.288  0.00  0.00    +0.119 C 
ATOM     10  H9  UNL     1      15.158  11.130  33.648  0.00  0.00    +0.157 HD
ENDROOT
BRANCH   8  11
ATOM     11  C16 UNL     1      11.949  13.936  31.454  0.00  0.00    +0.077 A 
ATOM     12  N4  UNL     1      12.863  14.922  31.250  0.00  0.00    -0.176 NA
ATOM     13  N5  UNL     1      12.772  15.323  29.986  0.00  0.00    -0.260 N 
ATOM     14  C17 UNL     1      11.800  14.614  29.396  0.00  0.00    +0.156 A 
ATOM     15  N6  UNL     1      11.369  14.728  28.115  0.00  0.00    -0.236 NA
ATOM     16  C18 UNL     1      10.340  13.929  27.695  0.00  0.00    +0.113 A 
ATOM     17  C19 UNL     1       9.736  13.008  28.583  0.00  0.00    +0.020 A 
ATOM     18  C20 UNL     1      10.195  12.908  29.910  0.00  0.00    +0.015 A 
ATOM     19  C21 UNL     1      11.250  13.737  30.279  0.00  0.00    +0.042 A 
ATOM     20  H17 UNL     1      13.356  16.072  29.555  0.00  0.00    +0.191 HD
ENDBRANCH   8  11
BRANCH   1  26
ATOM     21  C1  UNL     1      16.597  12.856  36.792  0.00  0.00    +0.068 C 
ATOM     22  C2  UNL     1      16.960  11.470  36.360  0.00  0.00    +0.068 A 
ATOM     23  N1  UNL     1      18.062  10.845  36.857  0.00  0.00    -0.242 NA
ATOM     24  C3  UNL     1      18.261   9.623  36.306  0.00  0.00    +0.110 A 
ATOM     25  S1  UNL     1      17.066   9.270  35.165  0.00  0.00    -0.052 S 
ATOM     26  C10 UNL     1      16.252  10.718  35.417  0.00  0.00    +0.096 A 
BRANCH  24  27
ATOM     27  C4  UNL     1      19.393   8.742  36.672  0.00  0.00    +0.007 A 
ATOM     28  C5  UNL     1      20.695   9.040  36.225  0.00  0.00    +0.010 A 
ATOM     29  C6  UNL     1      21.769   8.213  36.569  0.00  0.00    +0.001 A 
ATOM     30  C7  UNL     1      21.558   7.083  37.360  0.00  0.00    +0.000 A 
ATOM     31  C8  UNL     1      20.272   6.775  37.810  0.00  0.00    +0.001 A 
ATOM     32  C9  UNL     1      19.193   7.597  37.469  0.00  0.00    +0.010 A 
ENDBRANCH  24  27
ENDBRANCH   1  26
TORSDOF 3
ENDMDL
MODEL 3
REMARK VINA RESULT:    -7.421      6.238     11.628
REMARK INTER + INTRA:          -9.407
REMARK INTER:                  -8.689
REMARK INTRA:                  -0.718
REMARK UNBOUND:                -0.684
REMARK  Name = /home/qwerty/github/datacon2025hack/step_04_hit_selection/docking/ligands/lig_433.pdb
REMARK  4 active torsions:
REMARK  status: ('A' for Active; 'I' for Inactive)
REMARK    1  A    between atoms: C1_1  and  C2_2
REMARK    2  A    between atoms: C3_4  and  C4_5
REMARK    3  A    between atoms: C10_12  and  N2_13
REMARK    4  A    between atoms: C15_20  and  C16_21
REMARK                            x       y       z     vdW  Elec       q    Type
REMARK                         _______ _______ _______ _____ _____    ______ ____
ROOT
ATOM      1  N2  UNL     1      14.297   1.662  24.146  0.00  0.00    -0.262 N 
ATOM      2  C11 UNL     1      14.495   0.362  24.726  0.00  0.00    +0.307 C 
ATOM      3  O1  UNL     1      13.498  -0.392  24.903  0.00  0.00    -0.252 OA
ATOM      4  N3  UNL     1      15.811  -0.082  25.125  0.00  0.00    -0.285 N 
ATOM      5  C12 UNL     1      16.017  -1.450  25.629  0.00  0.00    +0.109 C 
ATOM      6  C13 UNL     1      17.230  -2.101  24.946  0.00  0.00    +0.020 C 
ATOM      7  C14 UNL     1      18.456  -1.167  24.829  0.00  0.00    +0.013 C 
ATOM      8  C15 UNL     1      18.258   0.179  25.543  0.00  0.00    +0.058 C 
ATOM      9  C22 UNL     1      16.954   0.846  25.067  0.00  0.00    +0.119 C 
ATOM     10  H9  UNL     1      14.944   2.440  24.402  0.00  0.00    +0.157 HD
ENDROOT
BRANCH   8  11
ATOM     11  C16 UNL     1      19.448   1.075  25.316  0.00  0.00    +0.077 A 
ATOM     12  N4  UNL     1      19.851   1.530  24.100  0.00  0.00    -0.176 NA
ATOM     13  N5  UNL     1      20.972   2.226  24.264  0.00  0.00    -0.260 N 
ATOM     14  C17 UNL     1      21.289   2.200  25.566  0.00  0.00    +0.156 A 
ATOM     15  N6  UNL     1      22.372   2.766  26.154  0.00  0.00    -0.236 NA
ATOM     16  C18 UNL     1      22.542   2.611  27.503  0.00  0.00    +0.113 A 
ATOM     17  C19 UNL     1      21.609   1.868  28.266  0.00  0.00    +0.020 A 
ATOM     18  C20 UNL     1      20.495   1.285  27.634  0.00  0.00    +0.015 A 
ATOM     19  C21 UNL     1      20.367   1.483  26.264  0.00  0.00    +0.042 A 
ATOM     20  H17 UNL     1      21.503   2.690  23.495  0.00  0.00    +0.191 HD
ENDBRANCH   8  11
BRANCH   1  26
ATOM     21  C1  UNL     1      13.777   1.043  21.133  0.00  0.00    +0.068 C 
ATOM     22  C2  UNL     1      12.851   1.759  22.066  0.00  0.00    +0.068 A 
ATOM     23  N1  UNL     1      11.659   2.252  21.631  0.00  0.00    -0.242 NA
ATOM     24  C3  UNL     1      10.986   2.917  22.600  0.00  0.00    +0.110 A 
ATOM     25  S1  UNL     1      11.855   2.923  24.048  0.00  0.00    -0.052 S 
ATOM     26  C10 UNL     1      13.116   2.011  23.416  0.00  0.00    +0.096 A 
BRANCH  24  27
ATOM     27  C4  UNL     1       9.666   3.553  22.382  0.00  0.00    +0.007 A 
ATOM     28  C5  UNL     1       9.412   4.266  21.195  0.00  0.00    +0.010 A 
ATOM     29  C6  UNL     1       8.167   4.867  20.982  0.00  0.00    +0.001 A 
ATOM     30  C7  UNL     1       7.164   4.763  21.948  0.00  0.00    +0.000 A 
ATOM     31  C8  UNL     1       7.403   4.058  23.130  0.00  0.00    +0.001 A 
ATOM     32  C9  UNL     1       8.646   3.456  23.349  0.00  0.00    +0.010 A 
ENDBRANCH  24  27
ENDBRANCH   1  26
TORSDOF 3
ENDMDL
MODEL 4
REMARK VINA RESULT:    -7.167      5.636     10.353
REMARK INTER + INTRA:          -9.108
REMARK INTER:                  -8.527
REMARK INTRA:                  -0.582
REMARK UNBOUND:                -0.684
REMARK  Name = /home/qwerty/github/datacon2025hack/step_04_hit_selection/docking/ligands/lig_433.pdb
REMARK  4 active torsions:
REMARK  status: ('A' for Active; 'I' for Inactive)
REMARK    1  A    between atoms: C1_1  and  C2_2
REMARK    2  A    between atoms: C3_4  and  C4_5
REMARK    3  A    between atoms: C10_12  and  N2_13
REMARK    4  A    between atoms: C15_20  and  C16_21
REMARK                            x       y       z     vdW  Elec       q    Type
REMARK                         _______ _______ _______ _____ _____    ______ ____
ROOT
ATOM      1  N2  UNL     1      12.400  12.022  26.725  0.00  0.00    -0.262 N 
ATOM      2  C11 UNL     1      11.581  10.990  27.297  0.00  0.00    +0.307 C 
ATOM      3  O1  UNL     1      11.755  10.664  28.504  0.00  0.00    -0.252 OA
ATOM      4  N3  UNL     1      10.581  10.310  26.506  0.00  0.00    -0.285 N 
ATOM      5  C12 UNL     1       9.683   9.322  27.125  0.00  0.00    +0.109 C 
ATOM      6  C13 UNL     1       8.226   9.577  26.709  0.00  0.00    +0.020 C 
ATOM      7  C14 UNL     1       8.053   9.888  25.205  0.00  0.00    +0.013 C 
ATOM      8  C15 UNL     1       9.358   9.743  24.406  0.00  0.00    +0.058 C 
ATOM      9  C22 UNL     1      10.477  10.574  25.060  0.00  0.00    +0.119 C 
ATOM     10  H9  UNL     1      12.617  11.997  25.705  0.00  0.00    +0.157 HD
ENDROOT
BRANCH   8  11
ATOM     11  C16 UNL     1       9.142  10.145  22.969  0.00  0.00    +0.077 A 
ATOM     12  N4  UNL     1       7.939  10.481  22.434  0.00  0.00    -0.176 NA
ATOM     13  N5  UNL     1       8.106  10.703  21.134  0.00  0.00    -0.260 N 
ATOM     14  C17 UNL     1       9.396  10.494  20.841  0.00  0.00    +0.156 A 
ATOM     15  N6  UNL     1       9.982  10.588  19.621  0.00  0.00    -0.236 NA
ATOM     16  C18 UNL     1      11.318  10.311  19.512  0.00  0.00    +0.113 A 
ATOM     17  C19 UNL     1      12.069   9.927  20.648  0.00  0.00    +0.020 A 
ATOM     18  C20 UNL     1      11.441   9.831  21.904  0.00  0.00    +0.015 A 
ATOM     19  C21 UNL     1      10.084  10.134  21.958  0.00  0.00    +0.042 A 
ATOM     20  H17 UNL     1       7.346  10.977  20.474  0.00  0.00    +0.191 HD
ENDBRANCH   8  11
BRANCH   1  26
ATOM     21  C1  UNL     1      11.199  14.521  28.155  0.00  0.00    +0.068 C 
ATOM     22  C2  UNL     1      12.633  14.092  28.171  0.00  0.00    +0.068 A 
ATOM     23  N1  UNL     1      13.578  14.826  28.820  0.00  0.00    -0.242 NA
ATOM     24  C3  UNL     1      14.824  14.315  28.676  0.00  0.00    +0.110 A 
ATOM     25  S1  UNL     1      14.801  12.920  27.722  0.00  0.00    -0.052 S 
ATOM     26  C10 UNL     1      13.134  12.959  27.523  0.00  0.00    +0.096 A 
BRANCH  24  27
ATOM     27  C4  UNL     1      16.029  14.928  29.280  0.00  0.00    +0.007 A 
ATOM     28  C5  UNL     1      16.876  14.161  30.103  0.00  0.00    +0.010 A 
ATOM     29  C6  UNL     1      18.017  14.734  30.675  0.00  0.00    +0.001 A 
ATOM     30  C7  UNL     1      18.326  16.073  30.432  0.00  0.00    +0.000 A 
ATOM     31  C8  UNL     1      17.494  16.844  29.617  0.00  0.00    +0.001 A 
ATOM     32  C9  UNL     1      16.351  16.279  29.043  0.00  0.00    +0.010 A 
ENDBRANCH  24  27
ENDBRANCH   1  26
TORSDOF 3
ENDMDL
MODEL 5
REMARK VINA RESULT:    -6.953     13.116     14.356
REMARK INTER + INTRA:          -8.857
REMARK INTER:                  -8.267
REMARK INTRA:                  -0.590
REMARK UNBOUND:                -0.684
REMARK  Name = /home/qwerty/github/datacon2025hack/step_04_hit_selection/docking/ligands/lig_433.pdb
REMARK  4 active torsions:
REMARK  status: ('A' for Active; 'I' for Inactive)
REMARK    1  A    between atoms: C1_1  and  C2_2
REMARK    2  A    between atoms: C3_4  and  C4_5
REMARK    3  A    between atoms: C10_12  and  N2_13
REMARK    4  A    between atoms: C15_20  and  C16_21
REMARK                            x       y       z     vdW  Elec       q    Type
REMARK                         _______ _______ _______ _____ _____    ______ ____
ROOT
ATOM      1  N2  UNL     1      18.641  14.086  31.591  0.00  0.00    -0.262 N 
ATOM      2  C11 UNL     1      19.007  13.075  32.544  0.00  0.00    +0.307 C 
ATOM      3  O1  UNL     1      20.082  12.434  32.378  0.00  0.00    -0.252 OA
ATOM      4  N3  UNL     1      18.155  12.771  33.671  0.00  0.00    -0.285 N 
ATOM      5  C12 UNL     1      18.585  11.801  34.692  0.00  0.00    +0.109 C 
ATOM      6  C13 UNL     1      18.358  12.365  36.103  0.00  0.00    +0.020 C 
ATOM      7  C14 UNL     1      16.992  13.066  36.282  0.00  0.00    +0.013 C 
ATOM      8  C15 UNL     1      16.082  12.937  35.050  0.00  0.00    +0.058 C 
ATOM      9  C22 UNL     1      16.829  13.402  33.786  0.00  0.00    +0.119 C 
ATOM     10  H9  UNL     1      17.631  14.287  31.421  0.00  0.00    +0.157 HD
ENDROOT
BRANCH   8  11
ATOM     11  C16 UNL     1      14.807  13.715  35.254  0.00  0.00    +0.077 A 
ATOM     12  N4  UNL     1      14.751  15.018  35.635  0.00  0.00    -0.176 NA
ATOM     13  N5  UNL     1      13.474  15.354  35.790  0.00  0.00    -0.260 N 
ATOM     14  C17 UNL     1      12.727  14.274  35.528  0.00  0.00    +0.156 A 
ATOM     15  N6  UNL     1      11.375  14.180  35.593  0.00  0.00    -0.236 NA
ATOM     16  C18 UNL     1      10.787  12.977  35.311  0.00  0.00    +0.113 A 
ATOM     17  C19 UNL     1      11.574  11.853  34.966  0.00  0.00    +0.020 A 
ATOM     18  C20 UNL     1      12.976  11.971  34.909  0.00  0.00    +0.015 A 
ATOM     19  C21 UNL     1      13.519  13.219  35.195  0.00  0.00    +0.042 A 
ATOM     20  H17 UNL     1      13.138  16.298  36.081  0.00  0.00    +0.191 HD
ENDBRANCH   8  11
BRANCH   1  26
ATOM     21  C1  UNL     1      19.666  17.031  31.696  0.00  0.00    +0.068 C 
ATOM     22  C2  UNL     1      20.058  15.988  30.696  0.00  0.00    +0.068 A 
ATOM     23  N1  UNL     1      20.914  16.279  29.678  0.00  0.00    -0.242 NA
ATOM     24  C3  UNL     1      21.104  15.230  28.842  0.00  0.00    +0.110 A 
ATOM     25  S1  UNL     1      20.204  13.889  29.337  0.00  0.00    -0.052 S 
ATOM     26  C10 UNL     1      19.582  14.674  30.685  0.00  0.00    +0.096 A 
BRANCH  24  27
ATOM     27  C4  UNL     1      21.986  15.287  27.654  0.00  0.00    +0.007 A 
ATOM     28  C5  UNL     1      22.828  14.202  27.345  0.00  0.00    +0.010 A 
ATOM     29  C6  UNL     1      23.662  14.249  26.223  0.00  0.00    +0.001 A 
ATOM     30  C7  UNL     1      23.663  15.374  25.397  0.00  0.00    +0.000 A 
ATOM     31  C8  UNL     1      22.832  16.457  25.692  0.00  0.00    +0.001 A 
ATOM     32  C9  UNL     1      21.997  16.418  26.813  0.00  0.00    +0.010 A 
ENDBRANCH  24  27
ENDBRANCH   1  26
TORSDOF 3
ENDMDL
MODEL 6
REMARK VINA RESULT:    -6.888     13.671     14.843
REMARK INTER + INTRA:          -8.780
REMARK INTER:                  -8.156
REMARK INTRA:                  -0.624
REMARK UNBOUND:                -0.684
REMARK  Name = /home/qwerty/github/datacon2025hack/step_04_hit_selection/docking/ligands/lig_433.pdb
REMARK  4 active torsions:
REMARK  status: ('A' for Active; 'I' for Inactive)
REMARK    1  A    between atoms: C1_1  and  C2_2
REMARK    2  A    between atoms: C3_4  and  C4_5
REMARK    3  A    between atoms: C10_12  and  N2_13
REMARK    4  A    between atoms: C15_20  and  C16_21
REMARK                            x       y       z     vdW  Elec       q    Type
REMARK                         _______ _______ _______ _____ _____    ______ ____
ROOT
ATOM      1  N2  UNL     1      16.997   0.396  34.461  0.00  0.00    -0.262 N 
ATOM      2  C11 UNL     1      17.266   1.010  35.732  0.00  0.00    +0.307 C 
ATOM      3  O1  UNL     1      18.318   1.693  35.876  0.00  0.00    -0.252 OA
ATOM      4  N3  UNL     1      16.362   0.839  36.847  0.00  0.00    -0.285 N 
ATOM      5  C12 UNL     1      16.597   1.550  38.114  0.00  0.00    +0.109 C 
ATOM      6  C13 UNL     1      15.302   2.210  38.612  0.00  0.00    +0.020 C 
ATOM      7  C14 UNL     1      14.055   1.304  38.496  0.00  0.00    +0.013 C 
ATOM      8  C15 UNL     1      14.388  -0.123  38.033  0.00  0.00    +0.058 C 
ATOM      9  C22 UNL     1      15.216  -0.080  36.735  0.00  0.00    +0.119 C 
ATOM     10  H9  UNL     1      16.452  -0.493  34.427  0.00  0.00    +0.157 HD
ENDROOT
BRANCH   8  11
ATOM     11  C16 UNL     1      13.126  -0.926  37.853  0.00  0.00    +0.077 A 
ATOM     12  N4  UNL     1      12.903  -2.148  38.406  0.00  0.00    -0.176 NA
ATOM     13  N5  UNL     1      11.726  -2.593  37.978  0.00  0.00    -0.260 N 
ATOM     14  C17 UNL     1      11.212  -1.675  37.149  0.00  0.00    +0.156 A 
ATOM     15  N6  UNL     1      10.037  -1.748  36.476  0.00  0.00    -0.236 NA
ATOM     16  C18 UNL     1       9.689  -0.714  35.649  0.00  0.00    +0.113 A 
ATOM     17  C19 UNL     1      10.543   0.404  35.495  0.00  0.00    +0.020 A 
ATOM     18  C20 UNL     1      11.760   0.458  36.200  0.00  0.00    +0.015 A 
ATOM     19  C21 UNL     1      12.058  -0.615  37.033  0.00  0.00    +0.042 A 
ATOM     20  H17 UNL     1      11.303  -3.509  38.244  0.00  0.00    +0.191 HD
ENDBRANCH   8  11
BRANCH   1  26
ATOM     21  C1  UNL     1      16.180   2.854  32.723  0.00  0.00    +0.068 C 
ATOM     22  C2  UNL     1      17.298   1.899  32.442  0.00  0.00    +0.068 A 
ATOM     23  N1  UNL     1      18.061   2.022  31.321  0.00  0.00    -0.242 NA
ATOM     24  C3  UNL     1      18.983   1.035  31.208  0.00  0.00    +0.110 A 
ATOM     25  S1  UNL     1      18.881  -0.042  32.505  0.00  0.00    -0.052 S 
ATOM     26  C10 UNL     1      17.640   0.811  33.250  0.00  0.00    +0.096 A 
BRANCH  24  27
ATOM     27  C4  UNL     1      19.933   0.937  30.076  0.00  0.00    +0.007 A 
ATOM     28  C5  UNL     1      21.202   0.359  30.268  0.00  0.00    +0.010 A 
ATOM     29  C6  UNL     1      22.104   0.261  29.203  0.00  0.00    +0.001 A 
ATOM     30  C7  UNL     1      21.751   0.736  27.939  0.00  0.00    +0.000 A 
ATOM     31  C8  UNL     1      20.494   1.311  27.736  0.00  0.00    +0.001 A 
ATOM     32  C9  UNL     1      19.589   1.414  28.796  0.00  0.00    +0.010 A 
ENDBRANCH  24  27
ENDBRANCH   1  26
TORSDOF 3
ENDMDL
MODEL 7
REMARK VINA RESULT:    -6.872      8.401     11.604
REMARK INTER + INTRA:          -8.761
REMARK INTER:                  -8.233
REMARK INTRA:                  -0.528
REMARK UNBOUND:                -0.684
REMARK  Name = /home/qwerty/github/datacon2025hack/step_04_hit_selection/docking/ligands/lig_433.pdb
REMARK  4 active torsions:
REMARK  status: ('A' for Active; 'I' for Inactive)
REMARK    1  A    between atoms: C1_1  and  C2_2
REMARK    2  A    between atoms: C3_4  and  C4_5
REMARK    3  A    between atoms: C10_12  and  N2_13
REMARK    4  A    between atoms: C15_20  and  C16_21
REMARK                            x       y       z     vdW  Elec       q    Type
REMARK                         _______ _______ _______ _____ _____    ______ ____
ROOT
ATOM      1  N2  UNL     1      18.459   1.270  24.588  0.00  0.00    -0.262 N 
ATOM      2  C11 UNL     1      19.745   1.902  24.486  0.00  0.00    +0.307 C 
ATOM      3  O1  UNL     1      20.137   2.322  23.362  0.00  0.00    -0.252 OA
ATOM      4  N3  UNL     1      20.598   2.044  25.645  0.00  0.00    -0.285 N 
ATOM      5  C12 UNL     1      21.871   2.777  25.549  0.00  0.00    +0.109 C 
ATOM      6  C13 UNL     1      22.013   3.768  26.715  0.00  0.00    +0.020 C 
ATOM      7  C14 UNL     1      21.602   3.182  28.085  0.00  0.00    +0.013 C 
ATOM      8  C15 UNL     1      21.264   1.684  28.022  0.00  0.00    +0.058 C 
ATOM      9  C22 UNL     1      20.217   1.421  26.924  0.00  0.00    +0.119 C 
ATOM     10  H9  UNL     1      18.304   0.539  25.316  0.00  0.00    +0.157 HD
ENDROOT
BRANCH   8  11
ATOM     11  C16 UNL     1      20.786   1.196  29.366  0.00  0.00    +0.077 A 
ATOM     12  N4  UNL     1      21.346   0.169  30.058  0.00  0.00    -0.176 NA
ATOM     13  N5  UNL     1      20.627  -0.036  31.157  0.00  0.00    -0.260 N 
ATOM     14  C17 UNL     1      19.611   0.837  31.157  0.00  0.00    +0.156 A 
ATOM     15  N6  UNL     1      18.629   0.947  32.086  0.00  0.00    -0.236 NA
ATOM     16  C18 UNL     1      17.654   1.890  31.901  0.00  0.00    +0.113 A 
ATOM     17  C19 UNL     1      17.669   2.727  30.760  0.00  0.00    +0.020 A 
ATOM     18  C20 UNL     1      18.695   2.592  29.805  0.00  0.00    +0.015 A 
ATOM     19  C21 UNL     1      19.664   1.625  30.049  0.00  0.00    +0.042 A 
ATOM     20  H17 UNL     1      20.830  -0.767  31.874  0.00  0.00    +0.191 HD
ENDBRANCH   8  11
BRANCH   1  26
ATOM     21  C1  UNL     1      17.348  -1.012  22.774  0.00  0.00    +0.068 C 
ATOM     22  C2  UNL     1      16.925   0.423  22.755  0.00  0.00    +0.068 A 
ATOM     23  N1  UNL     1      15.996   0.869  21.866  0.00  0.00    -0.242 NA
ATOM     24  C3  UNL     1      15.785   2.205  21.959  0.00  0.00    +0.110 A 
ATOM     25  S1  UNL     1      16.759   2.891  23.157  0.00  0.00    -0.052 S 
ATOM     26  C10 UNL     1      17.442   1.418  23.590  0.00  0.00    +0.096 A 
BRANCH  24  27
ATOM     27  C4  UNL     1      14.827   2.938  21.101  0.00  0.00    +0.007 A 
ATOM     28  C5  UNL     1      15.267   4.017  20.312  0.00  0.00    +0.010 A 
ATOM     29  C6  UNL     1      14.368   4.713  19.497  0.00  0.00    +0.001 A 
ATOM     30  C7  UNL     1      13.024   4.340  19.459  0.00  0.00    +0.000 A 
ATOM     31  C8  UNL     1      12.574   3.270  20.237  0.00  0.00    +0.001 A 
ATOM     32  C9  UNL     1      13.467   2.572  21.054  0.00  0.00    +0.010 A 
ENDBRANCH  24  27
ENDBRANCH   1  26
TORSDOF 3
ENDMDL
MODEL 8
REMARK VINA RESULT:    -6.855     13.298     17.366
REMARK INTER + INTRA:          -8.741
REMARK INTER:                  -8.032
REMARK INTRA:                  -0.709
REMARK UNBOUND:                -0.684
REMARK  Name = /home/qwerty/github/datacon2025hack/step_04_hit_selection/docking/ligands/lig_433.pdb
REMARK  4 active torsions:
REMARK  status: ('A' for Active; 'I' for Inactive)
REMARK    1  A    between atoms: C1_1  and  C2_2
REMARK    2  A    between atoms: C3_4  and  C4_5
REMARK    3  A    between atoms: C10_12  and  N2_13
REMARK    4  A    between atoms: C15_20  and  C16_21
REMARK                            x       y       z     vdW  Elec       q    Type
REMARK                         _______ _______ _______ _____ _____    ______ ____
ROOT
ATOM      1  N2  UNL     1      19.841   8.382  33.911  0.00  0.00    -0.262 N 
ATOM      2  C11 UNL     1      21.151   8.575  33.354  0.00  0.00    +0.307 C 
ATOM      3  O1  UNL     1      21.621   9.744  33.275  0.00  0.00    -0.252 OA
ATOM      4  N3  UNL     1      21.924   7.455  32.867  0.00  0.00    -0.285 N 
ATOM      5  C12 UNL     1      23.302   7.651  32.386  0.00  0.00    +0.109 C 
ATOM      6  C13 UNL     1      24.242   6.597  32.992  0.00  0.00    +0.020 C 
ATOM      7  C14 UNL     1      23.657   5.166  32.989  0.00  0.00    +0.013 C 
ATOM      8  C15 UNL     1      22.310   5.066  32.257  0.00  0.00    +0.058 C 
ATOM      9  C22 UNL     1      21.324   6.111  32.813  0.00  0.00    +0.119 C 
ATOM     10  H9  UNL     1      19.259   7.580  33.586  0.00  0.00    +0.157 HD
ENDROOT
BRANCH   8  11
ATOM     11  C16 UNL     1      21.753   3.670  32.367  0.00  0.00    +0.077 A 
ATOM     12  N4  UNL     1      21.445   3.053  33.538  0.00  0.00    -0.176 NA
ATOM     13  N5  UNL     1      21.054   1.811  33.267  0.00  0.00    -0.260 N 
ATOM     14  C17 UNL     1      21.129   1.634  31.940  0.00  0.00    +0.156 A 
ATOM     15  N6  UNL     1      20.843   0.502  31.250  0.00  0.00    -0.236 NA
ATOM     16  C18 UNL     1      21.004   0.504  29.891  0.00  0.00    +0.113 A 
ATOM     17  C19 UNL     1      21.467   1.663  29.222  0.00  0.00    +0.020 A 
ATOM     18  C20 UNL     1      21.762   2.826  29.958  0.00  0.00    +0.015 A 
ATOM     19  C21 UNL     1      21.570   2.770  31.335  0.00  0.00    +0.042 A 
ATOM     20  H17 UNL     1      20.759   1.110  33.980  0.00  0.00    +0.191 HD
ENDBRANCH   8  11
BRANCH   1  26
ATOM     21  C1  UNL     1      20.343   8.851  36.954  0.00  0.00    +0.068 C 
ATOM     22  C2  UNL     1      19.384   9.604  36.086  0.00  0.00    +0.068 A 
ATOM     23  N1  UNL     1      18.589  10.581  36.601  0.00  0.00    -0.242 NA
ATOM     24  C3  UNL     1      17.748  11.108  35.679  0.00  0.00    +0.110 A 
ATOM     25  S1  UNL     1      17.957  10.369  34.174  0.00  0.00    -0.052 S 
ATOM     26  C10 UNL     1      19.191   9.370  34.721  0.00  0.00    +0.096 A 
BRANCH  24  27
ATOM     27  C4  UNL     1      16.777  12.183  35.985  0.00  0.00    +0.007 A 
ATOM     28  C5  UNL     1      16.902  13.445  35.372  0.00  0.00    +0.010 A 
ATOM     29  C6  UNL     1      15.987  14.464  35.655  0.00  0.00    +0.001 A 
ATOM     30  C7  UNL     1      14.939  14.237  36.549  0.00  0.00    +0.000 A 
ATOM     31  C8  UNL     1      14.803  12.990  37.163  0.00  0.00    +0.001 A 
ATOM     32  C9  UNL     1      15.715  11.967  36.886  0.00  0.00    +0.010 A 
ENDBRANCH  24  27
ENDBRANCH   1  26
TORSDOF 3
ENDMDL
MODEL 9
REMARK VINA RESULT:    -6.733      8.313     12.166
REMARK INTER + INTRA:          -8.598
REMARK INTER:                  -7.999
REMARK INTRA:                  -0.599
REMARK UNBOUND:                -0.684
REMARK  Name = /home/qwerty/github/datacon2025hack/step_04_hit_selection/docking/ligands/lig_433.pdb
REMARK  4 active torsions:
REMARK  status: ('A' for Active; 'I' for Inactive)
REMARK    1  A    between atoms: C1_1  and  C2_2
REMARK    2  A    between atoms: C3_4  and  C4_5
REMARK    3  A    between atoms: C10_12  and  N2_13
REMARK    4  A    between atoms: C15_20  and  C16_21
REMARK                            x       y       z     vdW  Elec       q    Type
REMARK                         _______ _______ _______ _____ _____    ______ ____
ROOT
ATOM      1  N2  UNL     1      12.775  13.170  32.463  0.00  0.00    -0.262 N 
ATOM      2  C11 UNL     1      12.664  13.981  31.281  0.00  0.00    +0.307 C 
ATOM      3  O1  UNL     1      13.426  14.977  31.145  0.00  0.00    -0.252 OA
ATOM      4  N3  UNL     1      11.682  13.682  30.264  0.00  0.00    -0.285 N 
ATOM      5  C12 UNL     1      11.640  14.460  29.015  0.00  0.00    +0.109 C 
ATOM      6  C13 UNL     1      11.542  13.526  27.799  0.00  0.00    +0.020 C 
ATOM      7  C14 UNL     1      10.532  12.370  27.980  0.00  0.00    +0.013 C 
ATOM      8  C15 UNL     1       9.732  12.469  29.288  0.00  0.00    +0.058 C 
ATOM      9  C22 UNL     1      10.687  12.618  30.487  0.00  0.00    +0.119 C 
ATOM     10  H9  UNL     1      11.931  12.676  32.826  0.00  0.00    +0.157 HD
ENDROOT
BRANCH   8  11
ATOM     11  C16 UNL     1       8.833  11.269  29.447  0.00  0.00    +0.077 A 
ATOM     12  N4  UNL     1       7.480  11.328  29.563  0.00  0.00    -0.176 NA
ATOM     13  N5  UNL     1       7.023  10.096  29.764  0.00  0.00    -0.260 N 
ATOM     14  C17 UNL     1       8.073   9.264  29.794  0.00  0.00    +0.156 A 
ATOM     15  N6  UNL     1       8.048   7.924  30.000  0.00  0.00    -0.236 NA
ATOM     16  C18 UNL     1       9.234   7.241  30.021  0.00  0.00    +0.113 A 
ATOM     17  C19 UNL     1      10.460   7.922  29.837  0.00  0.00    +0.020 A 
ATOM     18  C20 UNL     1      10.465   9.315  29.629  0.00  0.00    +0.015 A 
ATOM     19  C21 UNL     1       9.230   9.955  29.608  0.00  0.00    +0.042 A 
ATOM     20  H17 UNL     1       6.017   9.846  29.889  0.00  0.00    +0.191 HD
ENDBRANCH   8  11
BRANCH   1  26
ATOM     21  C1  UNL     1      12.955  14.545  35.257  0.00  0.00    +0.068 C 
ATOM     22  C2  UNL     1      14.051  13.801  34.561  0.00  0.00    +0.068 A 
ATOM     23  N1  UNL     1      15.290  13.696  35.115  0.00  0.00    -0.242 NA
ATOM     24  C3  UNL     1      16.164  13.039  34.315  0.00  0.00    +0.110 A 
ATOM     25  S1  UNL     1      15.426  12.564  32.872  0.00  0.00    -0.052 S 
ATOM     26  C10 UNL     1      13.930  13.190  33.309  0.00  0.00    +0.096 A 
BRANCH  24  27
ATOM     27  C4  UNL     1      17.577  12.796  34.683  0.00  0.00    +0.007 A 
ATOM     28  C5  UNL     1      17.923  12.524  36.021  0.00  0.00    +0.010 A 
ATOM     29  C6  UNL     1      19.256  12.291  36.375  0.00  0.00    +0.001 A 
ATOM     30  C7  UNL     1      20.256  12.325  35.402  0.00  0.00    +0.000 A 
ATOM     31  C8  UNL     1      19.927  12.593  34.072  0.00  0.00    +0.001 A 
ATOM     32  C9  UNL     1      18.596  12.828  33.711  0.00  0.00    +0.010 A 
ENDBRANCH  24  27
ENDBRANCH   1  26
TORSDOF 3
ENDMDL
