REMARK  Name = /home/qwerty/github/datacon2025hack/step_04_hit_selection/docking/ligands/lig_247.pdb
REMARK  6 active torsions:
REMARK  status: ('A' for Active; 'I' for Inactive)
REMARK    1  A    between atoms: C1_1  and  C2_2
REMARK    2  A    between atoms: N1_4  and  C4_5
REMARK    3  A    between atoms: C7_8  and  N2_9
REMARK    4  A    between atoms: N3_12  and  C9_13
REMARK    5  A    between atoms: C9_13  and  C10_14
REMARK    6  A    between atoms: C15_19  and  O2_20
REMARK                            x       y       z     vdW  Elec       q    Type
REMARK                         _______ _______ _______ _____ _____    ______ ____
ROOT
ATOM      1  N2  UNL     1       0.399  -0.358   1.082  0.00  0.00    -0.269 N 
ATOM      2  C8  UNL     1       1.464  -0.053   0.168  0.00  0.00    +0.304 C 
ATOM      3  O1  UNL     1       1.246  -0.002  -1.073  0.00  0.00    -0.253 OA
ATOM      4  N3  UNL     1       2.790   0.151   0.671  0.00  0.00    -0.299 N 
ATOM      5  H9  UNL     1       0.664  -0.665   2.046  0.00  0.00    +0.156 HD
ATOM      6  H10 UNL     1       2.945   0.084   1.702  0.00  0.00    +0.150 HD
ENDROOT
BRANCH   1  10
ATOM      7  C4  UNL     1      -3.752  -0.386   0.126  0.00  0.00    +0.030 A 
ATOM      8  C5  UNL     1      -2.887   0.515  -0.519  0.00  0.00    +0.025 A 
ATOM      9  C6  UNL     1      -1.523   0.528  -0.215  0.00  0.00    +0.025 A 
ATOM     10  C7  UNL     1      -0.995  -0.368   0.731  0.00  0.00    +0.035 A 
ATOM     11  C16 UNL     1      -1.864  -1.248   1.393  0.00  0.00    +0.025 A 
ATOM     12  C17 UNL     1      -3.228  -1.262   1.090  0.00  0.00    +0.025 A 
BRANCH   7  16
ATOM     13  C1  UNL     1      -8.161   1.919  -0.429  0.00  0.00    +0.039 C 
ATOM     14  C2  UNL     1      -7.358   0.684  -0.027  0.00  0.00    +0.132 C 
ATOM     15  C3  UNL     1      -5.881   0.851  -0.425  0.00  0.00    +0.136 C 
ATOM     16  N1  UNL     1      -5.160  -0.402  -0.179  0.00  0.00    -0.325 N 
ATOM     17  C18 UNL     1      -5.805  -1.649  -0.602  0.00  0.00    +0.133 C 
ATOM     18  C19 UNL     1      -7.281  -1.629  -0.196  0.00  0.00    +0.179 C 
ATOM     19  O3  UNL     1      -7.915  -0.453  -0.663  0.00  0.00    -0.374 OA
ENDBRANCH   7  16
ENDBRANCH   1  10
BRANCH   4  20
ATOM     20  C9  UNL     1       3.904   0.479  -0.221  0.00  0.00    +0.111 C 
BRANCH  20  21
ATOM     21  C10 UNL     1       5.237   0.593   0.554  0.00  0.00    +0.035 C 
ATOM     22  C11 UNL     1       5.689  -0.790   1.105  0.00  0.00    +0.007 C 
ATOM     23  C12 UNL     1       6.672  -1.491   0.162  0.00  0.00    +0.000 C 
ATOM     24  C13 UNL     1       7.958  -0.665  -0.033  0.00  0.00    +0.003 C 
ATOM     25  C14 UNL     1       7.737   0.854   0.107  0.00  0.00    +0.031 C 
ATOM     26  C15 UNL     1       6.326   1.265  -0.336  0.00  0.00    +0.119 C 
BRANCH  26  27
ATOM     27  O2  UNL     1       6.218   2.663  -0.255  0.00  0.00    -0.391 OA
ATOM     28  H23 UNL     1       5.522   2.941  -0.905  0.00  0.00    +0.210 HD
ENDBRANCH  26  27
ENDBRANCH  20  21
ENDBRANCH   4  20
TORSDOF 5
