REMARK  Name = /home/qwerty/github/datacon2025hack/step_04_hit_selection/docking/ligands/lig_279.pdb
REMARK  10 active torsions:
REMARK  status: ('A' for Active; 'I' for Inactive)
REMARK    1  A    between atoms: C1_1  and  C2_2
REMARK    2  A    between atoms: C4_4  and  C5_5
REMARK    3  A    between atoms: C5_5  and  N1_6
REMARK    4  A    between atoms: N1_6  and  C6_7
REMARK    5  A    between atoms: C6_7  and  C7_8
REMARK    6  A    between atoms: C6_7  and  C8_9
REMARK    7  A    between atoms: C8_9  and  C9_10
REMARK    8  A    between atoms: C9_10  and  N2_11
REMARK    9  A    between atoms: C10_12  and  C11_14
REMARK   10  A    between atoms: N6_23  and  C17_24
REMARK                            x       y       z     vdW  Elec       q    Type
REMARK                         _______ _______ _______ _____ _____    ______ ____
ROOT
ATOM      1  C8  UNL     1       0.216   0.800   0.273  0.00  0.00    +0.037 C 
ENDROOT
BRANCH   1   2
ATOM      2  C6  UNL     1      -1.285   0.468   0.341  0.00  0.00    +0.052 C 
ATOM      3  C7  UNL     1      -1.898   1.069   1.617  0.00  0.00    +0.024 C 
BRANCH   2   4
ATOM      4  N1  UNL     1      -1.956   0.985  -0.872  0.00  0.00    -0.308 NA
ATOM      5  H7  UNL     1      -2.473   1.878  -0.686  0.00  0.00    +0.123 HD
BRANCH   4   6
ATOM      6  C5  UNL     1      -2.854   0.008  -1.505  0.00  0.00    +0.138 C 
BRANCH   6  10
ATOM      7  C1  UNL     1      -6.199  -1.956   1.734  0.00  0.00    +0.065 C 
ATOM      8  C2  UNL     1      -5.519  -1.091   0.721  0.00  0.00    +0.036 A 
ATOM      9  C3  UNL     1      -4.306  -1.353   0.119  0.00  0.00    +0.049 A 
ATOM     10  C4  UNL     1      -4.078  -0.242  -0.674  0.00  0.00    +0.077 A 
ATOM     11  N5  UNL     1      -5.087   0.642  -0.538  0.00  0.00    -0.175 NA
ATOM     12  N6  UNL     1      -5.956   0.119   0.311  0.00  0.00    -0.271 N 
ATOM     13  C17 UNL     1      -7.185   0.787   0.724  0.00  0.00    +0.172 C 
ENDBRANCH   6  10
ENDBRANCH   4   6
ENDBRANCH   2   4
ENDBRANCH   1   2
BRANCH   1  14
ATOM     14  C9  UNL     1       0.907   0.079  -0.893  0.00  0.00    +0.106 C 
BRANCH  14  15
ATOM     15  N2  UNL     1       2.339   0.375  -0.912  0.00  0.00    -0.310 N 
ATOM     16  C10 UNL     1       3.204  -0.197  -1.902  0.00  0.00    +0.262 C 
ATOM     17  O1  UNL     1       2.710  -0.824  -2.879  0.00  0.00    -0.269 OA
ATOM     18  H16 UNL     1       2.735   1.046  -0.217  0.00  0.00    +0.149 HD
BRANCH  16  19
ATOM     19  C11 UNL     1       4.668  -0.045  -1.814  0.00  0.00    +0.124 A 
ATOM     20  C12 UNL     1       5.585  -0.319  -2.821  0.00  0.00    +0.143 A 
ATOM     21  N3  UNL     1       6.845  -0.276  -2.320  0.00  0.00    -0.240 NA
ATOM     22  C13 UNL     1       6.646   0.080  -1.035  0.00  0.00    +0.110 A 
ATOM     23  N4  UNL     1       5.379   0.229  -0.708  0.00  0.00    -0.324 N 
ATOM     24  C14 UNL     1       5.145   0.136   0.715  0.00  0.00    +0.124 C 
ATOM     25  C15 UNL     1       6.569  -0.006   1.310  0.00  0.00    +0.029 C 
ATOM     26  C16 UNL     1       7.554  -0.083   0.115  0.00  0.00    +0.076 C 
ENDBRANCH  16  19
ENDBRANCH  14  15
ENDBRANCH   1  14
TORSDOF 7
