MODEL 1
REMARK VINA RESULT:    -7.540      0.000      0.000
REMARK INTER + INTRA:          -9.989
REMARK INTER:                  -9.303
REMARK INTRA:                  -0.687
REMARK UNBOUND:                -0.687
REMARK  Name = /home/qwerty/github/datacon2025hack/step_04_hit_selection/docking/ligands/lig_686.pdb
REMARK  4 active torsions:
REMARK  status: ('A' for Active; 'I' for Inactive)
REMARK    1  A    between atoms: C1_2  and  C18_25
REMARK    2  A    between atoms: N1_3  and  C2_4
REMARK    3  A    between atoms: C5_7  and  C6_8
REMARK    4  A    between atoms: N3_12  and  C9_13
REMARK                            x       y       z     vdW  Elec       q    Type
REMARK                         _______ _______ _______ _____ _____    ______ ____
ROOT
ATOM      1  C2  UNL     1      17.854   7.783  19.733  0.00  0.00    +0.034 A 
ATOM      2  C3  UNL     1      17.309   6.978  18.722  0.00  0.00    +0.024 A 
ATOM      3  C4  UNL     1      16.938   5.658  18.990  0.00  0.00    +0.010 A 
ATOM      4  C5  UNL     1      17.089   5.120  20.280  0.00  0.00    -0.015 A 
ATOM      5  C16 UNL     1      17.615   5.936  21.297  0.00  0.00    +0.010 A 
ATOM      6  C17 UNL     1      17.989   7.256  21.028  0.00  0.00    +0.024 A 
ENDROOT
BRANCH   4   7
ATOM      7  C6  UNL     1      16.693   3.717  20.565  0.00  0.00    +0.018 A 
ATOM      8  C7  UNL     1      15.962   2.964  19.634  0.00  0.00    +0.124 A 
ATOM      9  N2  UNL     1      15.613   1.682  19.913  0.00  0.00    -0.222 NA
ATOM     10  C8  UNL     1      15.949   1.103  21.095  0.00  0.00    +0.219 A 
ATOM     11  N3  UNL     1      15.588  -0.264  21.340  0.00  0.00    -0.283 N 
ATOM     12  N4  UNL     1      16.669   1.809  22.009  0.00  0.00    -0.222 NA
ATOM     13  C15 UNL     1      17.041   3.092  21.772  0.00  0.00    +0.124 A 
ATOM     14  H5  UNL     1      15.312  -0.845  20.516  0.00  0.00    +0.155 HD
BRANCH  11  15
ATOM     15  C9  UNL     1      15.694  -0.911  22.620  0.00  0.00    +0.039 A 
ATOM     16  C10 UNL     1      14.655  -0.835  23.567  0.00  0.00    +0.061 A 
ATOM     17  C11 UNL     1      14.771  -1.496  24.795  0.00  0.00    +0.128 A 
ATOM     18  F1  UNL     1      13.768  -1.415  25.704  0.00  0.00    -0.205 F 
ATOM     19  C12 UNL     1      15.914  -2.246  25.081  0.00  0.00    +0.076 A 
ATOM     20  C13 UNL     1      16.940  -2.347  24.137  0.00  0.00    +0.128 A 
ATOM     21  F2  UNL     1      18.043  -3.085  24.410  0.00  0.00    -0.205 F 
ATOM     22  C14 UNL     1      16.826  -1.688  22.908  0.00  0.00    +0.061 A 
ENDBRANCH  11  15
ENDBRANCH   4   7
BRANCH   1  25
ATOM     23  O1  UNL     1      20.260   8.706  18.409  0.00  0.00    -0.270 OA
ATOM     24  C1  UNL     1      19.508   9.550  18.972  0.00  0.00    +0.248 C 
ATOM     25  N1  UNL     1      18.209   9.145  19.437  0.00  0.00    -0.282 N 
ATOM     26  H1  UNL     1      17.448   9.862  19.453  0.00  0.00    +0.155 HD
BRANCH  24  27
ATOM     27  C18 UNL     1      19.958  10.957  19.098  0.00  0.00    +0.037 A 
ATOM     28  C19 UNL     1      19.088  11.955  19.580  0.00  0.00    +0.014 A 
ATOM     29  C20 UNL     1      19.526  13.277  19.702  0.00  0.00    +0.021 A 
ATOM     30  C21 UNL     1      20.834  13.620  19.352  0.00  0.00    +0.041 A 
ATOM     31 CL1  UNL     1      21.379  15.279  19.507  0.00  0.00    -0.084 Cl
ATOM     32  C22 UNL     1      21.709  12.636  18.882  0.00  0.00    +0.021 A 
ATOM     33  C23 UNL     1      21.276  11.313  18.758  0.00  0.00    +0.014 A 
ENDBRANCH  24  27
ENDBRANCH   1  25
TORSDOF 4
ENDMDL
MODEL 2
REMARK VINA RESULT:    -7.216     10.808     15.654
REMARK INTER + INTRA:          -9.590
REMARK INTER:                  -8.879
REMARK INTRA:                  -0.711
REMARK UNBOUND:                -0.687
REMARK  Name = /home/qwerty/github/datacon2025hack/step_04_hit_selection/docking/ligands/lig_686.pdb
REMARK  4 active torsions:
REMARK  status: ('A' for Active; 'I' for Inactive)
REMARK    1  A    between atoms: C1_2  and  C18_25
REMARK    2  A    between atoms: N1_3  and  C2_4
REMARK    3  A    between atoms: C5_7  and  C6_8
REMARK    4  A    between atoms: N3_12  and  C9_13
REMARK                            x       y       z     vdW  Elec       q    Type
REMARK                         _______ _______ _______ _____ _____    ______ ____
ROOT
ATOM      1  C2  UNL     1       9.030   1.187  27.785  0.00  0.00    +0.034 A 
ATOM      2  C3  UNL     1       8.843   0.722  26.476  0.00  0.00    +0.024 A 
ATOM      3  C4  UNL     1       8.617   1.619  25.429  0.00  0.00    +0.010 A 
ATOM      4  C5  UNL     1       8.590   3.004  25.668  0.00  0.00    -0.015 A 
ATOM      5  C16 UNL     1       8.799   3.470  26.979  0.00  0.00    +0.010 A 
ATOM      6  C17 UNL     1       9.022   2.572  28.026  0.00  0.00    +0.024 A 
ENDROOT
BRANCH   4   7
ATOM      7  C6  UNL     1       8.351   3.958  24.556  0.00  0.00    +0.018 A 
ATOM      8  C7  UNL     1       7.500   3.633  23.488  0.00  0.00    +0.124 A 
ATOM      9  N2  UNL     1       7.293   4.522  22.483  0.00  0.00    -0.222 NA
ATOM     10  C8  UNL     1       7.907   5.733  22.477  0.00  0.00    +0.219 A 
ATOM     11  N3  UNL     1       7.639   6.656  21.411  0.00  0.00    -0.283 N 
ATOM     12  N4  UNL     1       8.727   6.076  23.506  0.00  0.00    -0.222 NA
ATOM     13  C15 UNL     1       8.962   5.221  24.533  0.00  0.00    +0.124 A 
ATOM     14  H5  UNL     1       6.795   6.478  20.820  0.00  0.00    +0.155 HD
BRANCH  11  15
ATOM     15  C9  UNL     1       8.384   7.864  21.181  0.00  0.00    +0.039 A 
ATOM     16  C10 UNL     1       9.563   7.861  20.412  0.00  0.00    +0.061 A 
ATOM     17  C11 UNL     1      10.256   9.054  20.180  0.00  0.00    +0.128 A 
ATOM     18  F1  UNL     1      11.392   9.044  19.441  0.00  0.00    -0.205 F 
ATOM     19  C12 UNL     1       9.772  10.257  20.700  0.00  0.00    +0.076 A 
ATOM     20  C13 UNL     1       8.590  10.273  21.445  0.00  0.00    +0.128 A 
ATOM     21  F2  UNL     1       8.114  11.442  21.939  0.00  0.00    -0.205 F 
ATOM     22  C14 UNL     1       7.894   9.081  21.677  0.00  0.00    +0.061 A 
ENDBRANCH  11  15
ENDBRANCH   4   7
BRANCH   1  25
ATOM     23  O1  UNL     1       7.063  -0.068  29.502  0.00  0.00    -0.270 OA
ATOM     24  C1  UNL     1       8.287  -0.176  29.791  0.00  0.00    +0.248 C 
ATOM     25  N1  UNL     1       9.282   0.244  28.842  0.00  0.00    -0.282 N 
ATOM     26  H1  UNL     1      10.205  -0.246  28.849  0.00  0.00    +0.155 HD
BRANCH  24  27
ATOM     27  C18 UNL     1       8.679  -0.784  31.086  0.00  0.00    +0.037 A 
ATOM     28  C19 UNL     1       9.680  -0.199  31.886  0.00  0.00    +0.014 A 
ATOM     29  C20 UNL     1      10.036  -0.776  33.109  0.00  0.00    +0.021 A 
ATOM     30  C21 UNL     1       9.397  -1.938  33.551  0.00  0.00    +0.041 A 
ATOM     31 CL1  UNL     1       9.846  -2.658  35.085  0.00  0.00    -0.084 Cl
ATOM     32  C22 UNL     1       8.396  -2.521  32.769  0.00  0.00    +0.021 A 
ATOM     33  C23 UNL     1       8.036  -1.948  31.546  0.00  0.00    +0.014 A 
ENDBRANCH  24  27
ENDBRANCH   1  25
TORSDOF 4
ENDMDL
MODEL 3
REMARK VINA RESULT:    -7.121      1.240      2.104
REMARK INTER + INTRA:          -9.473
REMARK INTER:                  -8.813
REMARK INTRA:                  -0.661
REMARK UNBOUND:                -0.687
REMARK  Name = /home/qwerty/github/datacon2025hack/step_04_hit_selection/docking/ligands/lig_686.pdb
REMARK  4 active torsions:
REMARK  status: ('A' for Active; 'I' for Inactive)
REMARK    1  A    between atoms: C1_2  and  C18_25
REMARK    2  A    between atoms: N1_3  and  C2_4
REMARK    3  A    between atoms: C5_7  and  C6_8
REMARK    4  A    between atoms: N3_12  and  C9_13
REMARK                            x       y       z     vdW  Elec       q    Type
REMARK                         _______ _______ _______ _____ _____    ______ ____
ROOT
ATOM      1  C2  UNL     1      18.618   8.511  20.733  0.00  0.00    +0.034 A 
ATOM      2  C3  UNL     1      17.631   8.124  21.651  0.00  0.00    +0.024 A 
ATOM      3  C4  UNL     1      17.151   6.813  21.666  0.00  0.00    +0.010 A 
ATOM      4  C5  UNL     1      17.660   5.855  20.772  0.00  0.00    -0.015 A 
ATOM      5  C16 UNL     1      18.665   6.240  19.866  0.00  0.00    +0.010 A 
ATOM      6  C17 UNL     1      19.143   7.553  19.850  0.00  0.00    +0.024 A 
ENDROOT
BRANCH   4   7
ATOM      7  C6  UNL     1      17.150   4.460  20.788  0.00  0.00    +0.018 A 
ATOM      8  C7  UNL     1      16.405   3.946  19.716  0.00  0.00    +0.124 A 
ATOM      9  N2  UNL     1      15.951   2.666  19.750  0.00  0.00    -0.222 NA
ATOM     10  C8  UNL     1      16.194   1.861  20.817  0.00  0.00    +0.219 A 
ATOM     11  N3  UNL     1      15.722   0.506  20.801  0.00  0.00    -0.283 N 
ATOM     12  N4  UNL     1      16.924   2.334  21.863  0.00  0.00    -0.222 NA
ATOM     13  C15 UNL     1      17.399   3.605  21.871  0.00  0.00    +0.124 A 
ATOM     14  H5  UNL     1      15.439   0.105  19.878  0.00  0.00    +0.155 HD
BRANCH  11  15
ATOM     15  C9  UNL     1      15.726  -0.364  21.946  0.00  0.00    +0.039 A 
ATOM     16  C10 UNL     1      16.776  -1.273  22.171  0.00  0.00    +0.061 A 
ATOM     17  C11 UNL     1      16.770  -2.090  23.307  0.00  0.00    +0.128 A 
ATOM     18  F1  UNL     1      17.783  -2.966  23.516  0.00  0.00    -0.205 F 
ATOM     19  C12 UNL     1      15.726  -1.997  24.231  0.00  0.00    +0.076 A 
ATOM     20  C13 UNL     1      14.691  -1.080  24.027  0.00  0.00    +0.128 A 
ATOM     21  F2  UNL     1      13.684  -0.982  24.929  0.00  0.00    -0.205 F 
ATOM     22  C14 UNL     1      14.696  -0.261  22.893  0.00  0.00    +0.061 A 
ENDBRANCH  11  15
ENDBRANCH   4   7
BRANCH   1  25
ATOM     23  O1  UNL     1      17.522  10.783  19.309  0.00  0.00    -0.270 OA
ATOM     24  C1  UNL     1      18.652  10.893  19.861  0.00  0.00    +0.248 C 
ATOM     25  N1  UNL     1      19.111   9.863  20.752  0.00  0.00    -0.282 N 
ATOM     26  H1  UNL     1      19.754  10.137  21.530  0.00  0.00    +0.155 HD
BRANCH  24  27
ATOM     27  C18 UNL     1      19.466  12.109  19.620  0.00  0.00    +0.037 A 
ATOM     28  C19 UNL     1      19.263  13.279  20.378  0.00  0.00    +0.014 A 
ATOM     29  C20 UNL     1      20.042  14.417  20.146  0.00  0.00    +0.021 A 
ATOM     30  C21 UNL     1      21.034  14.401  19.163  0.00  0.00    +0.041 A 
ATOM     31 CL1  UNL     1      22.009  15.831  18.877  0.00  0.00    -0.084 Cl
ATOM     32  C22 UNL     1      21.251  13.243  18.411  0.00  0.00    +0.021 A 
ATOM     33  C23 UNL     1      20.475  12.103  18.639  0.00  0.00    +0.014 A 
ENDBRANCH  24  27
ENDBRANCH   1  25
TORSDOF 4
ENDMDL
MODEL 4
REMARK VINA RESULT:    -7.084     15.624     18.945
REMARK INTER + INTRA:          -9.427
REMARK INTER:                  -8.716
REMARK INTRA:                  -0.711
REMARK UNBOUND:                -0.687
REMARK  Name = /home/qwerty/github/datacon2025hack/step_04_hit_selection/docking/ligands/lig_686.pdb
REMARK  4 active torsions:
REMARK  status: ('A' for Active; 'I' for Inactive)
REMARK    1  A    between atoms: C1_2  and  C18_25
REMARK    2  A    between atoms: N1_3  and  C2_4
REMARK    3  A    between atoms: C5_7  and  C6_8
REMARK    4  A    between atoms: N3_12  and  C9_13
REMARK                            x       y       z     vdW  Elec       q    Type
REMARK                         _______ _______ _______ _____ _____    ______ ____
ROOT
ATOM      1  C2  UNL     1      14.557   4.904  37.469  0.00  0.00    +0.034 A 
ATOM      2  C3  UNL     1      15.305   5.425  38.535  0.00  0.00    +0.024 A 
ATOM      3  C4  UNL     1      16.626   5.836  38.340  0.00  0.00    +0.010 A 
ATOM      4  C5  UNL     1      17.222   5.749  37.070  0.00  0.00    -0.015 A 
ATOM      5  C16 UNL     1      16.463   5.247  35.998  0.00  0.00    +0.010 A 
ATOM      6  C17 UNL     1      15.142   4.833  36.194  0.00  0.00    +0.024 A 
ENDROOT
BRANCH   4   7
ATOM      7  C6  UNL     1      18.626   6.187  36.863  0.00  0.00    +0.018 A 
ATOM      8  C7  UNL     1      19.331   6.871  37.865  0.00  0.00    +0.124 A 
ATOM      9  N2  UNL     1      20.615   7.259  37.656  0.00  0.00    -0.222 NA
ATOM     10  C8  UNL     1      21.243   7.010  36.477  0.00  0.00    +0.219 A 
ATOM     11  N3  UNL     1      22.609   7.410  36.306  0.00  0.00    -0.283 N 
ATOM     12  N4  UNL     1      20.584   6.338  35.495  0.00  0.00    -0.222 NA
ATOM     13  C15 UNL     1      19.301   5.929  35.660  0.00  0.00    +0.124 A 
ATOM     14  H5  UNL     1      23.155   7.644  37.167  0.00  0.00    +0.155 HD
BRANCH  11  15
ATOM     15  C9  UNL     1      23.304   7.398  35.047  0.00  0.00    +0.039 A 
ATOM     16  C10 UNL     1      23.272   8.508  34.183  0.00  0.00    +0.061 A 
ATOM     17  C11 UNL     1      23.978   8.481  32.975  0.00  0.00    +0.128 A 
ATOM     18  F1  UNL     1      23.940   9.553  32.145  0.00  0.00    -0.205 F 
ATOM     19  C12 UNL     1      24.730   7.356  32.629  0.00  0.00    +0.076 A 
ATOM     20  C13 UNL     1      24.787   6.259  33.492  0.00  0.00    +0.128 A 
ATOM     21  F2  UNL     1      25.526   5.173  33.161  0.00  0.00    -0.205 F 
ATOM     22  C14 UNL     1      24.083   6.284  34.701  0.00  0.00    +0.061 A 
ENDBRANCH  11  15
ENDBRANCH   4   7
BRANCH   1  25
ATOM     23  O1  UNL     1      13.604   2.253  38.142  0.00  0.00    -0.270 OA
ATOM     24  C1  UNL     1      12.767   3.139  37.811  0.00  0.00    +0.248 C 
ATOM     25  N1  UNL     1      13.192   4.507  37.691  0.00  0.00    -0.282 N 
ATOM     26  H1  UNL     1      12.492   5.258  37.888  0.00  0.00    +0.155 HD
BRANCH  24  27
ATOM     27  C18 UNL     1      11.349   2.761  37.601  0.00  0.00    +0.037 A 
ATOM     28  C19 UNL     1      10.571   2.252  38.659  0.00  0.00    +0.014 A 
ATOM     29  C20 UNL     1       9.232   1.906  38.451  0.00  0.00    +0.021 A 
ATOM     30  C21 UNL     1       8.652   2.068  37.191  0.00  0.00    +0.041 A 
ATOM     31 CL1  UNL     1       6.972   1.634  36.935  0.00  0.00    -0.084 Cl
ATOM     32  C22 UNL     1       9.412   2.582  36.136  0.00  0.00    +0.021 A 
ATOM     33  C23 UNL     1      10.750   2.929  36.339  0.00  0.00    +0.014 A 
ENDBRANCH  24  27
ENDBRANCH   1  25
TORSDOF 4
ENDMDL
MODEL 5
REMARK VINA RESULT:    -6.919      8.112     10.401
REMARK INTER + INTRA:          -9.224
REMARK INTER:                  -8.575
REMARK INTRA:                  -0.649
REMARK UNBOUND:                -0.687
REMARK  Name = /home/qwerty/github/datacon2025hack/step_04_hit_selection/docking/ligands/lig_686.pdb
REMARK  4 active torsions:
REMARK  status: ('A' for Active; 'I' for Inactive)
REMARK    1  A    between atoms: C1_2  and  C18_25
REMARK    2  A    between atoms: N1_3  and  C2_4
REMARK    3  A    between atoms: C5_7  and  C6_8
REMARK    4  A    between atoms: N3_12  and  C9_13
REMARK                            x       y       z     vdW  Elec       q    Type
REMARK                         _______ _______ _______ _____ _____    ______ ____
ROOT
ATOM      1  C2  UNL     1      17.328   1.608  25.464  0.00  0.00    +0.034 A 
ATOM      2  C3  UNL     1      16.010   1.588  25.942  0.00  0.00    +0.024 A 
ATOM      3  C4  UNL     1      14.946   1.929  25.103  0.00  0.00    +0.010 A 
ATOM      4  C5  UNL     1      15.177   2.283  23.763  0.00  0.00    -0.015 A 
ATOM      5  C16 UNL     1      16.498   2.281  23.279  0.00  0.00    +0.010 A 
ATOM      6  C17 UNL     1      17.562   1.942  24.119  0.00  0.00    +0.024 A 
ENDROOT
BRANCH   4   7
ATOM      7  C6  UNL     1      14.046   2.645  22.871  0.00  0.00    +0.018 A 
ATOM      8  C7  UNL     1      13.918   2.081  21.592  0.00  0.00    +0.124 A 
ATOM      9  N2  UNL     1      12.874   2.424  20.795  0.00  0.00    -0.222 NA
ATOM     10  C8  UNL     1      11.940   3.322  21.204  0.00  0.00    +0.219 A 
ATOM     11  N3  UNL     1      10.836   3.635  20.343  0.00  0.00    -0.283 N 
ATOM     12  N4  UNL     1      12.036   3.873  22.444  0.00  0.00    -0.222 NA
ATOM     13  C15 UNL     1      13.061   3.558  23.276  0.00  0.00    +0.124 A 
ATOM     14  H5  UNL     1      10.642   2.982  19.550  0.00  0.00    +0.155 HD
BRANCH  11  15
ATOM     15  C9  UNL     1       9.916   4.717  20.569  0.00  0.00    +0.039 A 
ATOM     16  C10 UNL     1      10.249   6.043  20.237  0.00  0.00    +0.061 A 
ATOM     17  C11 UNL     1       9.326   7.074  20.442  0.00  0.00    +0.128 A 
ATOM     18  F1  UNL     1       9.655   8.350  20.123  0.00  0.00    -0.205 F 
ATOM     19  C12 UNL     1       8.063   6.789  20.966  0.00  0.00    +0.076 A 
ATOM     20  C13 UNL     1       7.715   5.472  21.277  0.00  0.00    +0.128 A 
ATOM     21  F2  UNL     1       6.485   5.194  21.774  0.00  0.00    -0.205 F 
ATOM     22  C14 UNL     1       8.636   4.438  21.071  0.00  0.00    +0.061 A 
ENDBRANCH  11  15
ENDBRANCH   4   7
BRANCH   1  25
ATOM     23  O1  UNL     1      18.628   3.281  27.439  0.00  0.00    -0.270 OA
ATOM     24  C1  UNL     1      19.144   2.167  27.145  0.00  0.00    +0.248 C 
ATOM     25  N1  UNL     1      18.404   1.232  26.341  0.00  0.00    -0.282 N 
ATOM     26  H1  UNL     1      18.582   0.212  26.486  0.00  0.00    +0.155 HD
BRANCH  24  27
ATOM     27  C18 UNL     1      20.483   1.820  27.677  0.00  0.00    +0.037 A 
ATOM     28  C19 UNL     1      21.637   2.491  27.227  0.00  0.00    +0.014 A 
ATOM     29  C20 UNL     1      22.895   2.161  27.742  0.00  0.00    +0.021 A 
ATOM     30  C21 UNL     1      23.017   1.164  28.714  0.00  0.00    +0.041 A 
ATOM     31 CL1  UNL     1      24.596   0.754  29.357  0.00  0.00    -0.084 Cl
ATOM     32  C22 UNL     1      21.877   0.499  29.175  0.00  0.00    +0.021 A 
ATOM     33  C23 UNL     1      20.618   0.826  28.664  0.00  0.00    +0.014 A 
ENDBRANCH  24  27
ENDBRANCH   1  25
TORSDOF 4
ENDMDL
MODEL 6
REMARK VINA RESULT:    -6.910     11.297     12.233
REMARK INTER + INTRA:          -9.213
REMARK INTER:                  -9.253
REMARK INTRA:                   0.040
REMARK UNBOUND:                -0.687
REMARK  Name = /home/qwerty/github/datacon2025hack/step_04_hit_selection/docking/ligands/lig_686.pdb
REMARK  4 active torsions:
REMARK  status: ('A' for Active; 'I' for Inactive)
REMARK    1  A    between atoms: C1_2  and  C18_25
REMARK    2  A    between atoms: N1_3  and  C2_4
REMARK    3  A    between atoms: C5_7  and  C6_8
REMARK    4  A    between atoms: N3_12  and  C9_13
REMARK                            x       y       z     vdW  Elec       q    Type
REMARK                         _______ _______ _______ _____ _____    ______ ____
ROOT
ATOM      1  C2  UNL     1      17.195  14.712  27.143  0.00  0.00    +0.034 A 
ATOM      2  C3  UNL     1      16.772  13.385  27.306  0.00  0.00    +0.024 A 
ATOM      3  C4  UNL     1      15.417  13.088  27.475  0.00  0.00    +0.010 A 
ATOM      4  C5  UNL     1      14.454  14.112  27.470  0.00  0.00    -0.015 A 
ATOM      5  C16 UNL     1      14.879  15.441  27.286  0.00  0.00    +0.010 A 
ATOM      6  C17 UNL     1      16.234  15.738  27.119  0.00  0.00    +0.024 A 
ENDROOT
BRANCH   4   7
ATOM      7  C6  UNL     1      13.015  13.796  27.650  0.00  0.00    +0.018 A 
ATOM      8  C7  UNL     1      12.091  14.790  28.009  0.00  0.00    +0.124 A 
ATOM      9  N2  UNL     1      10.779  14.480  28.165  0.00  0.00    -0.222 NA
ATOM     10  C8  UNL     1      10.329  13.210  27.990  0.00  0.00    +0.219 A 
ATOM     11  N3  UNL     1       8.930  12.929  28.135  0.00  0.00    -0.283 N 
ATOM     12  N4  UNL     1      11.204  12.232  27.630  0.00  0.00    -0.222 NA
ATOM     13  C15 UNL     1      12.524  12.496  27.461  0.00  0.00    +0.124 A 
ATOM     14  H5  UNL     1       8.270  13.740  28.113  0.00  0.00    +0.155 HD
BRANCH  11  15
ATOM     15  C9  UNL     1       8.373  11.604  28.190  0.00  0.00    +0.039 A 
ATOM     16  C10 UNL     1       7.855  11.077  29.387  0.00  0.00    +0.061 A 
ATOM     17  C11 UNL     1       7.293   9.796  29.408  0.00  0.00    +0.128 A 
ATOM     18  F1  UNL     1       6.799   9.292  30.566  0.00  0.00    -0.205 F 
ATOM     19  C12 UNL     1       7.232   9.039  28.236  0.00  0.00    +0.076 A 
ATOM     20  C13 UNL     1       7.723   9.564  27.037  0.00  0.00    +0.128 A 
ATOM     21  F2  UNL     1       7.652   8.833  25.898  0.00  0.00    -0.205 F 
ATOM     22  C14 UNL     1       8.283  10.845  27.013  0.00  0.00    +0.061 A 
ENDBRANCH  11  15
ENDBRANCH   4   7
BRANCH   1  25
ATOM     23  O1  UNL     1      18.341  16.952  25.708  0.00  0.00    -0.270 OA
ATOM     24  C1  UNL     1      19.091  15.996  26.051  0.00  0.00    +0.248 C 
ATOM     25  N1  UNL     1      18.593  14.990  26.950  0.00  0.00    -0.282 N 
ATOM     26  H1  UNL     1      19.277  14.513  27.580  0.00  0.00    +0.155 HD
BRANCH  24  27
ATOM     27  C18 UNL     1      20.490  15.956  25.563  0.00  0.00    +0.037 A 
ATOM     28  C19 UNL     1      21.570  15.891  26.464  0.00  0.00    +0.014 A 
ATOM     29  C20 UNL     1      22.886  15.845  25.991  0.00  0.00    +0.021 A 
ATOM     30  C21 UNL     1      23.139  15.857  24.617  0.00  0.00    +0.041 A 
ATOM     31 CL1  UNL     1      24.790  15.799  24.029  0.00  0.00    -0.084 Cl
ATOM     32  C22 UNL     1      22.075  15.912  23.714  0.00  0.00    +0.021 A 
ATOM     33  C23 UNL     1      20.758  15.957  24.181  0.00  0.00    +0.014 A 
ENDBRANCH  24  27
ENDBRANCH   1  25
TORSDOF 4
ENDMDL
MODEL 7
REMARK VINA RESULT:    -6.825     13.352     15.072
REMARK INTER + INTRA:          -9.108
REMARK INTER:                  -8.467
REMARK INTRA:                  -0.641
REMARK UNBOUND:                -0.687
REMARK  Name = /home/qwerty/github/datacon2025hack/step_04_hit_selection/docking/ligands/lig_686.pdb
REMARK  4 active torsions:
REMARK  status: ('A' for Active; 'I' for Inactive)
REMARK    1  A    between atoms: C1_2  and  C18_25
REMARK    2  A    between atoms: N1_3  and  C2_4
REMARK    3  A    between atoms: C5_7  and  C6_8
REMARK    4  A    between atoms: N3_12  and  C9_13
REMARK                            x       y       z     vdW  Elec       q    Type
REMARK                         _______ _______ _______ _____ _____    ______ ____
ROOT
ATOM      1  C2  UNL     1      20.455  14.949  30.431  0.00  0.00    +0.034 A 
ATOM      2  C3  UNL     1      20.382  13.587  30.759  0.00  0.00    +0.024 A 
ATOM      3  C4  UNL     1      19.548  13.150  31.791  0.00  0.00    +0.010 A 
ATOM      4  C5  UNL     1      18.757  14.065  32.508  0.00  0.00    -0.015 A 
ATOM      5  C16 UNL     1      18.816  15.427  32.163  0.00  0.00    +0.010 A 
ATOM      6  C17 UNL     1      19.653  15.865  31.132  0.00  0.00    +0.024 A 
ENDROOT
BRANCH   4   7
ATOM      7  C6  UNL     1      17.870  13.600  33.604  0.00  0.00    +0.018 A 
ATOM      8  C7  UNL     1      18.376  13.330  34.885  0.00  0.00    +0.124 A 
ATOM      9  N2  UNL     1      17.547  12.909  35.873  0.00  0.00    -0.222 NA
ATOM     10  C8  UNL     1      16.219  12.727  35.649  0.00  0.00    +0.219 A 
ATOM     11  N3  UNL     1      15.371  12.309  36.728  0.00  0.00    -0.283 N 
ATOM     12  N4  UNL     1      15.703  12.993  34.419  0.00  0.00    -0.222 NA
ATOM     13  C15 UNL     1      16.494  13.418  33.402  0.00  0.00    +0.124 A 
ATOM     14  H5  UNL     1      15.744  12.407  37.701  0.00  0.00    +0.155 HD
BRANCH  11  15
ATOM     15  C9  UNL     1      14.009  11.878  36.566  0.00  0.00    +0.039 A 
ATOM     16  C10 UNL     1      13.681  10.514  36.456  0.00  0.00    +0.061 A 
ATOM     17  C11 UNL     1      12.346  10.118  36.326  0.00  0.00    +0.128 A 
ATOM     18  F1  UNL     1      12.037   8.802  36.217  0.00  0.00    -0.205 F 
ATOM     19  C12 UNL     1      11.329  11.077  36.317  0.00  0.00    +0.076 A 
ATOM     20  C13 UNL     1      11.644  12.432  36.449  0.00  0.00    +0.128 A 
ATOM     21  F2  UNL     1      10.656  13.360  36.453  0.00  0.00    -0.205 F 
ATOM     22  C14 UNL     1      12.978  12.830  36.581  0.00  0.00    +0.061 A 
ENDBRANCH  11  15
ENDBRANCH   4   7
BRANCH   1  25
ATOM     23  O1  UNL     1      19.702  15.292  27.655  0.00  0.00    -0.270 OA
ATOM     24  C1  UNL     1      20.925  15.317  27.965  0.00  0.00    +0.248 C 
ATOM     25  N1  UNL     1      21.306  15.372  29.351  0.00  0.00    -0.282 N 
ATOM     26  H1  UNL     1      22.203  15.850  29.595  0.00  0.00    +0.155 HD
BRANCH  24  27
ATOM     27  C18 UNL     1      21.949  15.341  26.893  0.00  0.00    +0.037 A 
ATOM     28  C19 UNL     1      22.683  14.185  26.566  0.00  0.00    +0.014 A 
ATOM     29  C20 UNL     1      23.640  14.217  25.547  0.00  0.00    +0.021 A 
ATOM     30  C21 UNL     1      23.874  15.400  24.841  0.00  0.00    +0.041 A 
ATOM     31 CL1  UNL     1      25.076  15.437  23.564  0.00  0.00    -0.084 Cl
ATOM     32  C22 UNL     1      23.146  16.551  25.151  0.00  0.00    +0.021 A 
ATOM     33  C23 UNL     1      22.187  16.524  26.167  0.00  0.00    +0.014 A 
ENDBRANCH  24  27
ENDBRANCH   1  25
TORSDOF 4
ENDMDL
MODEL 8
REMARK VINA RESULT:    -6.775      9.931     12.747
REMARK INTER + INTRA:          -9.046
REMARK INTER:                  -8.346
REMARK INTRA:                  -0.700
REMARK UNBOUND:                -0.687
REMARK  Name = /home/qwerty/github/datacon2025hack/step_04_hit_selection/docking/ligands/lig_686.pdb
REMARK  4 active torsions:
REMARK  status: ('A' for Active; 'I' for Inactive)
REMARK    1  A    between atoms: C1_2  and  C18_25
REMARK    2  A    between atoms: N1_3  and  C2_4
REMARK    3  A    between atoms: C5_7  and  C6_8
REMARK    4  A    between atoms: N3_12  and  C9_13
REMARK                            x       y       z     vdW  Elec       q    Type
REMARK                         _______ _______ _______ _____ _____    ______ ____
ROOT
ATOM      1  C2  UNL     1      18.209   1.618  26.326  0.00  0.00    +0.034 A 
ATOM      2  C3  UNL     1      19.422   2.297  26.139  0.00  0.00    +0.024 A 
ATOM      3  C4  UNL     1      20.214   2.650  27.234  0.00  0.00    +0.010 A 
ATOM      4  C5  UNL     1      19.817   2.317  28.541  0.00  0.00    -0.015 A 
ATOM      5  C16 UNL     1      18.610   1.617  28.725  0.00  0.00    +0.010 A 
ATOM      6  C17 UNL     1      17.817   1.266  27.629  0.00  0.00    +0.024 A 
ENDROOT
BRANCH   4   7
ATOM      7  C6  UNL     1      20.659   2.692  29.705  0.00  0.00    +0.018 A 
ATOM      8  C7  UNL     1      21.306   1.716  30.478  0.00  0.00    +0.124 A 
ATOM      9  N2  UNL     1      22.075   2.081  31.537  0.00  0.00    -0.222 NA
ATOM     10  C8  UNL     1      22.226   3.387  31.880  0.00  0.00    +0.219 A 
ATOM     11  N3  UNL     1      23.070   3.733  32.987  0.00  0.00    -0.283 N 
ATOM     12  N4  UNL     1      21.617   4.351  31.139  0.00  0.00    -0.222 NA
ATOM     13  C15 UNL     1      20.842   4.034  30.071  0.00  0.00    +0.124 A 
ATOM     14  H5  UNL     1      23.739   3.006  33.330  0.00  0.00    +0.155 HD
BRANCH  11  15
ATOM     15  C9  UNL     1      23.135   5.043  33.576  0.00  0.00    +0.039 A 
ATOM     16  C10 UNL     1      22.251   5.431  34.600  0.00  0.00    +0.061 A 
ATOM     17  C11 UNL     1      22.353   6.703  35.174  0.00  0.00    +0.128 A 
ATOM     18  F1  UNL     1      21.496   7.071  36.159  0.00  0.00    -0.205 F 
ATOM     19  C12 UNL     1      23.342   7.589  34.742  0.00  0.00    +0.076 A 
ATOM     20  C13 UNL     1      24.238   7.204  33.743  0.00  0.00    +0.128 A 
ATOM     21  F2  UNL     1      25.206   8.061  33.332  0.00  0.00    -0.205 F 
ATOM     22  C14 UNL     1      24.140   5.933  33.167  0.00  0.00    +0.061 A 
ENDBRANCH  11  15
ENDBRANCH   4   7
BRANCH   1  25
ATOM     23  O1  UNL     1      18.396  -0.842  24.809  0.00  0.00    -0.270 OA
ATOM     24  C1  UNL     1      17.708   0.110  24.348  0.00  0.00    +0.248 C 
ATOM     25  N1  UNL     1      17.422   1.247  25.181  0.00  0.00    -0.282 N 
ATOM     26  H1  UNL     1      16.529   1.766  25.014  0.00  0.00    +0.155 HD
BRANCH  24  27
ATOM     27  C18 UNL     1      17.162   0.018  22.973  0.00  0.00    +0.037 A 
ATOM     28  C19 UNL     1      17.217  -1.191  22.252  0.00  0.00    +0.014 A 
ATOM     29  C20 UNL     1      16.692  -1.268  20.958  0.00  0.00    +0.021 A 
ATOM     30  C21 UNL     1      16.102  -0.146  20.370  0.00  0.00    +0.041 A 
ATOM     31 CL1  UNL     1      15.445  -0.248  18.748  0.00  0.00    -0.084 Cl
ATOM     32  C22 UNL     1      16.034   1.056  21.080  0.00  0.00    +0.021 A 
ATOM     33  C23 UNL     1      16.556   1.138  22.374  0.00  0.00    +0.014 A 
ENDBRANCH  24  27
ENDBRANCH   1  25
TORSDOF 4
ENDMDL
MODEL 9
REMARK VINA RESULT:    -6.708     13.087     14.915
REMARK INTER + INTRA:          -8.963
REMARK INTER:                  -8.338
REMARK INTRA:                  -0.625
REMARK UNBOUND:                -0.687
REMARK  Name = /home/qwerty/github/datacon2025hack/step_04_hit_selection/docking/ligands/lig_686.pdb
REMARK  4 active torsions:
REMARK  status: ('A' for Active; 'I' for Inactive)
REMARK    1  A    between atoms: C1_2  and  C18_25
REMARK    2  A    between atoms: N1_3  and  C2_4
REMARK    3  A    between atoms: C5_7  and  C6_8
REMARK    4  A    between atoms: N3_12  and  C9_13
REMARK                            x       y       z     vdW  Elec       q    Type
REMARK                         _______ _______ _______ _____ _____    ______ ____
ROOT
ATOM      1  C2  UNL     1      20.084  13.238  29.322  0.00  0.00    +0.034 A 
ATOM      2  C3  UNL     1      20.371  12.539  30.503  0.00  0.00    +0.024 A 
ATOM      3  C4  UNL     1      19.536  12.655  31.616  0.00  0.00    +0.010 A 
ATOM      4  C5  UNL     1      18.385  13.460  31.567  0.00  0.00    -0.015 A 
ATOM      5  C16 UNL     1      18.087  14.143  30.374  0.00  0.00    +0.010 A 
ATOM      6  C17 UNL     1      18.925  14.030  29.261  0.00  0.00    +0.024 A 
ENDROOT
BRANCH   4   7
ATOM      7  C6  UNL     1      17.496  13.582  32.750  0.00  0.00    +0.018 A 
ATOM      8  C7  UNL     1      17.996  13.987  33.997  0.00  0.00    +0.124 A 
ATOM      9  N2  UNL     1      17.165  14.095  35.065  0.00  0.00    -0.222 NA
ATOM     10  C8  UNL     1      15.842  13.804  34.961  0.00  0.00    +0.219 A 
ATOM     11  N3  UNL     1      14.992  13.959  36.106  0.00  0.00    -0.283 N 
ATOM     12  N4  UNL     1      15.332  13.420  33.759  0.00  0.00    -0.222 NA
ATOM     13  C15 UNL     1      16.124  13.301  32.664  0.00  0.00    +0.124 A 
ATOM     14  H5  UNL     1      15.355  14.530  36.903  0.00  0.00    +0.155 HD
BRANCH  11  15
ATOM     15  C9  UNL     1      13.638  13.481  36.177  0.00  0.00    +0.039 A 
ATOM     16  C10 UNL     1      12.577  14.198  35.595  0.00  0.00    +0.061 A 
ATOM     17  C11 UNL     1      11.271  13.697  35.655  0.00  0.00    +0.128 A 
ATOM     18  F1  UNL     1      10.252  14.395  35.095  0.00  0.00    -0.205 F 
ATOM     19  C12 UNL     1      11.018  12.475  36.283  0.00  0.00    +0.076 A 
ATOM     20  C13 UNL     1      12.070  11.745  36.843  0.00  0.00    +0.128 A 
ATOM     21  F2  UNL     1      11.825  10.554  37.441  0.00  0.00    -0.205 F 
ATOM     22  C14 UNL     1      13.376  12.242  36.783  0.00  0.00    +0.061 A 
ENDBRANCH  11  15
ENDBRANCH   4   7
BRANCH   1  25
ATOM     23  O1  UNL     1      22.357  14.895  28.629  0.00  0.00    -0.270 OA
ATOM     24  C1  UNL     1      21.924  14.065  27.783  0.00  0.00    +0.248 C 
ATOM     25  N1  UNL     1      20.949  13.087  28.182  0.00  0.00    -0.282 N 
ATOM     26  H1  UNL     1      20.945  12.167  27.685  0.00  0.00    +0.155 HD
BRANCH  24  27
ATOM     27  C18 UNL     1      22.466  14.080  26.403  0.00  0.00    +0.037 A 
ATOM     28  C19 UNL     1      21.877  13.307  25.384  0.00  0.00    +0.014 A 
ATOM     29  C20 UNL     1      22.392  13.335  24.085  0.00  0.00    +0.021 A 
ATOM     30  C21 UNL     1      23.496  14.137  23.784  0.00  0.00    +0.041 A 
ATOM     31 CL1  UNL     1      24.139  14.170  22.153  0.00  0.00    -0.084 Cl
ATOM     32  C22 UNL     1      24.084  14.916  24.785  0.00  0.00    +0.021 A 
ATOM     33  C23 UNL     1      23.572  14.891  26.085  0.00  0.00    +0.014 A 
ENDBRANCH  24  27
ENDBRANCH   1  25
TORSDOF 4
ENDMDL
