MODEL 1
REMARK VINA RESULT:    -6.987      0.000      0.000
REMARK INTER + INTRA:          -9.998
REMARK INTER:                  -9.029
REMARK INTRA:                  -0.969
REMARK UNBOUND:                -0.969
REMARK  Name = /home/qwerty/github/datacon2025hack/step_04_hit_selection/docking/ligands/lig_723.pdb
REMARK  7 active torsions:
REMARK  status: ('A' for Active; 'I' for Inactive)
REMARK    1  A    between atoms: C1_1  and  C2_2
REMARK    2  A    between atoms: C2_2  and  C3_3
REMARK    3  A    between atoms: C2_2  and  N1_4
REMARK    4  A    between atoms: C4_5  and  C5_7
REMARK    5  A    between atoms: C9_14  and  C10_15
REMARK    6  A    between atoms: N5_22  and  C17_23
REMARK    7  A    between atoms: C17_23  and  C18_24
REMARK                            x       y       z     vdW  Elec       q    Type
REMARK                         _______ _______ _______ _____ _____    ______ ____
ROOT
ATOM      1  C5  UNL     1      20.564   5.081  33.307  0.00  0.00    +0.221 A 
ATOM      2  N2  UNL     1      19.344   4.556  33.080  0.00  0.00    -0.123 NA
ATOM      3  N3  UNL     1      19.504   3.529  32.262  0.00  0.00    -0.113 NA
ATOM      4  C6  UNL     1      20.818   3.443  31.985  0.00  0.00    +0.220 A 
ATOM      5  N4  UNL     1      21.367   2.365  31.201  0.00  0.00    -0.299 N 
ATOM      6  C7  UNL     1      20.637   1.121  31.018  0.00  0.00    +0.108 C 
ATOM      7  C8  UNL     1      21.469   0.283  30.056  0.00  0.00    +0.028 C 
ATOM      8  C9  UNL     1      22.461   1.249  29.399  0.00  0.00    +0.038 C 
ATOM      9  C16 UNL     1      22.523   2.469  30.326  0.00  0.00    +0.116 C 
ATOM     10  N5  UNL     1      21.526   4.411  32.621  0.00  0.00    -0.287 N 
ENDROOT
BRANCH   8  11
ATOM     11  C10 UNL     1      22.033   1.609  27.985  0.00  0.00    -0.043 A 
ATOM     12  C11 UNL     1      20.965   0.918  27.382  0.00  0.00    +0.004 A 
ATOM     13  C12 UNL     1      20.539   1.256  26.094  0.00  0.00    +0.000 A 
ATOM     14  C13 UNL     1      21.170   2.290  25.396  0.00  0.00    +0.000 A 
ATOM     15  C14 UNL     1      22.226   2.989  25.986  0.00  0.00    +0.000 A 
ATOM     16  C15 UNL     1      22.654   2.656  27.275  0.00  0.00    +0.004 A 
ENDBRANCH   8  11
BRANCH   1  18
ATOM     17  N1  UNL     1      21.477   5.960  35.488  0.00  0.00    -0.306 N 
ATOM     18  C4  UNL     1      20.768   6.194  34.261  0.00  0.00    +0.282 C 
ATOM     19  O1  UNL     1      20.358   7.353  33.988  0.00  0.00    -0.267 OA
ATOM     20  H8  UNL     1      21.734   4.977  35.736  0.00  0.00    +0.149 HD
BRANCH  17  22
ATOM     21  C1  UNL     1      20.825   7.057  37.594  0.00  0.00    +0.027 C 
ATOM     22  C2  UNL     1      21.808   7.044  36.420  0.00  0.00    +0.067 C 
ATOM     23  C3  UNL     1      23.245   6.879  36.926  0.00  0.00    +0.027 C 
ENDBRANCH  17  22
ENDBRANCH   1  18
BRANCH  10  24
ATOM     24  C17 UNL     1      22.980   4.627  32.636  0.00  0.00    +0.157 C 
BRANCH  24  25
ATOM     25  C18 UNL     1      23.338   6.087  32.455  0.00  0.00    -0.054 C 
ATOM     26  C19 UNL     1      24.268   6.628  33.272  0.00  0.00    -0.026 C 
ATOM     27  C20 UNL     1      24.701   8.071  33.188  0.00  0.00    +0.027 C 
ATOM     28  C21 UNL     1      24.469   8.669  31.800  0.00  0.00    +0.004 C 
ATOM     29  C22 UNL     1      23.052   8.354  31.326  0.00  0.00    +0.005 C 
ATOM     30  C23 UNL     1      22.851   6.837  31.224  0.00  0.00    +0.032 C 
ENDBRANCH  24  25
ENDBRANCH  10  24
TORSDOF 5
ENDMDL
MODEL 2
REMARK VINA RESULT:    -6.962     13.751     16.532
REMARK INTER + INTRA:          -9.965
REMARK INTER:                  -8.664
REMARK INTRA:                  -1.301
REMARK UNBOUND:                -0.969
REMARK  Name = /home/qwerty/github/datacon2025hack/step_04_hit_selection/docking/ligands/lig_723.pdb
REMARK  7 active torsions:
REMARK  status: ('A' for Active; 'I' for Inactive)
REMARK    1  A    between atoms: C1_1  and  C2_2
REMARK    2  A    between atoms: C2_2  and  C3_3
REMARK    3  A    between atoms: C2_2  and  N1_4
REMARK    4  A    between atoms: C4_5  and  C5_7
REMARK    5  A    between atoms: C9_14  and  C10_15
REMARK    6  A    between atoms: N5_22  and  C17_23
REMARK    7  A    between atoms: C17_23  and  C18_24
REMARK                            x       y       z     vdW  Elec       q    Type
REMARK                         _______ _______ _______ _____ _____    ______ ____
ROOT
ATOM      1  C5  UNL     1       8.941   7.397  25.842  0.00  0.00    +0.221 A 
ATOM      2  N2  UNL     1       9.474   6.993  27.011  0.00  0.00    -0.123 NA
ATOM      3  N3  UNL     1       9.332   7.986  27.873  0.00  0.00    -0.113 NA
ATOM      4  C6  UNL     1       8.726   8.994  27.219  0.00  0.00    +0.220 A 
ATOM      5  N4  UNL     1       8.318  10.205  27.887  0.00  0.00    -0.299 N 
ATOM      6  C7  UNL     1       8.156  10.249  29.331  0.00  0.00    +0.108 C 
ATOM      7  C8  UNL     1       7.832  11.697  29.674  0.00  0.00    +0.028 C 
ATOM      8  C9  UNL     1       8.219  12.523  28.442  0.00  0.00    +0.038 C 
ATOM      9  C16 UNL     1       8.276  11.525  27.279  0.00  0.00    +0.116 C 
ATOM     10  N5  UNL     1       8.465   8.667  25.928  0.00  0.00    -0.287 N 
ENDROOT
BRANCH   8  11
ATOM     11  C10 UNL     1       9.537  13.251  28.653  0.00  0.00    -0.043 A 
ATOM     12  C11 UNL     1      10.071  13.367  29.950  0.00  0.00    +0.004 A 
ATOM     13  C12 UNL     1      11.296  14.007  30.158  0.00  0.00    +0.000 A 
ATOM     14  C13 UNL     1      12.004  14.536  29.075  0.00  0.00    +0.000 A 
ATOM     15  C14 UNL     1      11.488  14.422  27.781  0.00  0.00    +0.000 A 
ATOM     16  C15 UNL     1      10.264  13.779  27.568  0.00  0.00    +0.004 A 
ENDBRANCH   8  11
BRANCH   1  18
ATOM     17  N1  UNL     1       9.796   6.599  23.606  0.00  0.00    -0.306 N 
ATOM     18  C4  UNL     1       8.843   6.491  24.675  0.00  0.00    +0.282 C 
ATOM     19  O1  UNL     1       7.952   5.601  24.630  0.00  0.00    -0.267 OA
ATOM     20  H8  UNL     1      10.472   7.396  23.620  0.00  0.00    +0.149 HD
BRANCH  17  22
ATOM     21  C1  UNL     1       9.420   6.373  21.183  0.00  0.00    +0.027 C 
ATOM     22  C2  UNL     1       9.819   5.660  22.479  0.00  0.00    +0.067 C 
ATOM     23  C3  UNL     1      11.212   5.040  22.343  0.00  0.00    +0.027 C 
ENDBRANCH  17  22
ENDBRANCH   1  18
BRANCH  10  24
ATOM     24  C17 UNL     1       7.764   9.453  24.903  0.00  0.00    +0.157 C 
BRANCH  24  25
ATOM     25  C18 UNL     1       8.680   9.837  23.758  0.00  0.00    -0.054 C 
ATOM     26  C19 UNL     1       9.979  10.088  24.031  0.00  0.00    -0.026 C 
ATOM     27  C20 UNL     1      10.982  10.482  22.975  0.00  0.00    +0.027 C 
ATOM     28  C21 UNL     1      10.576  10.006  21.579  0.00  0.00    +0.004 C 
ATOM     29  C22 UNL     1       9.120  10.371  21.306  0.00  0.00    +0.005 C 
ATOM     30  C23 UNL     1       8.200   9.685  22.323  0.00  0.00    +0.032 C 
ENDBRANCH  24  25
ENDBRANCH  10  24
TORSDOF 5
ENDMDL
MODEL 3
REMARK VINA RESULT:    -6.785      5.480     10.892
REMARK INTER + INTRA:          -9.738
REMARK INTER:                  -8.651
REMARK INTRA:                  -1.086
REMARK UNBOUND:                -0.969
REMARK  Name = /home/qwerty/github/datacon2025hack/step_04_hit_selection/docking/ligands/lig_723.pdb
REMARK  7 active torsions:
REMARK  status: ('A' for Active; 'I' for Inactive)
REMARK    1  A    between atoms: C1_1  and  C2_2
REMARK    2  A    between atoms: C2_2  and  C3_3
REMARK    3  A    between atoms: C2_2  and  N1_4
REMARK    4  A    between atoms: C4_5  and  C5_7
REMARK    5  A    between atoms: C9_14  and  C10_15
REMARK    6  A    between atoms: N5_22  and  C17_23
REMARK    7  A    between atoms: C17_23  and  C18_24
REMARK                            x       y       z     vdW  Elec       q    Type
REMARK                         _______ _______ _______ _____ _____    ______ ____
ROOT
ATOM      1  C5  UNL     1      17.453   2.111  24.116  0.00  0.00    +0.221 A 
ATOM      2  N2  UNL     1      17.608   3.417  24.410  0.00  0.00    -0.123 NA
ATOM      3  N3  UNL     1      18.662   3.520  25.202  0.00  0.00    -0.113 NA
ATOM      4  C6  UNL     1      19.135   2.275  25.397  0.00  0.00    +0.220 A 
ATOM      5  N4  UNL     1      20.349   2.023  26.131  0.00  0.00    -0.299 N 
ATOM      6  C7  UNL     1      21.333   3.072  26.341  0.00  0.00    +0.108 C 
ATOM      7  C8  UNL     1      22.406   2.471  27.238  0.00  0.00    +0.028 C 
ATOM      8  C9  UNL     1      21.791   1.206  27.847  0.00  0.00    +0.038 C 
ATOM      9  C16 UNL     1      20.613   0.841  26.936  0.00  0.00    +0.116 C 
ATOM     10  N5  UNL     1      18.395   1.350  24.733  0.00  0.00    -0.287 N 
ENDROOT
BRANCH   8  11
ATOM     11  C10 UNL     1      21.366   1.433  29.289  0.00  0.00    -0.043 A 
ATOM     12  C11 UNL     1      20.089   1.022  29.714  0.00  0.00    +0.004 A 
ATOM     13  C12 UNL     1      19.693   1.196  31.043  0.00  0.00    +0.000 A 
ATOM     14  C13 UNL     1      20.568   1.778  31.965  0.00  0.00    +0.000 A 
ATOM     15  C14 UNL     1      21.842   2.184  31.558  0.00  0.00    +0.000 A 
ATOM     16  C15 UNL     1      22.243   2.010  30.230  0.00  0.00    +0.004 A 
ENDBRANCH   8  11
BRANCH   1  18
ATOM     17  N1  UNL     1      16.793   1.263  21.833  0.00  0.00    -0.306 N 
ATOM     18  C4  UNL     1      16.418   1.642  23.167  0.00  0.00    +0.282 C 
ATOM     19  O1  UNL     1      15.217   1.538  23.531  0.00  0.00    -0.267 OA
ATOM     20  H8  UNL     1      17.776   1.438  21.523  0.00  0.00    +0.149 HD
BRANCH  17  22
ATOM     21  C1  UNL     1      15.310   1.767  19.933  0.00  0.00    +0.027 C 
ATOM     22  C2  UNL     1      15.834   0.687  20.884  0.00  0.00    +0.067 C 
ATOM     23  C3  UNL     1      16.495  -0.447  20.096  0.00  0.00    +0.027 C 
ENDBRANCH  17  22
ENDBRANCH   1  18
BRANCH  10  24
ATOM     24  C17 UNL     1      18.610  -0.100  24.632  0.00  0.00    +0.157 C 
BRANCH  24  25
ATOM     25  C18 UNL     1      17.396  -0.885  25.084  0.00  0.00    -0.054 C 
ATOM     26  C19 UNL     1      16.763  -0.498  26.213  0.00  0.00    -0.026 C 
ATOM     27  C20 UNL     1      15.548  -1.205  26.760  0.00  0.00    +0.027 C 
ATOM     28  C21 UNL     1      14.777  -1.963  25.678  0.00  0.00    +0.004 C 
ATOM     29  C22 UNL     1      15.739  -2.807  24.847  0.00  0.00    +0.005 C 
ATOM     30  C23 UNL     1      16.768  -1.909  24.149  0.00  0.00    +0.032 C 
ENDBRANCH  24  25
ENDBRANCH  10  24
TORSDOF 5
ENDMDL
MODEL 4
REMARK VINA RESULT:    -6.726      1.350      2.031
REMARK INTER + INTRA:          -9.660
REMARK INTER:                  -8.510
REMARK INTRA:                  -1.150
REMARK UNBOUND:                -0.969
REMARK  Name = /home/qwerty/github/datacon2025hack/step_04_hit_selection/docking/ligands/lig_723.pdb
REMARK  7 active torsions:
REMARK  status: ('A' for Active; 'I' for Inactive)
REMARK    1  A    between atoms: C1_1  and  C2_2
REMARK    2  A    between atoms: C2_2  and  C3_3
REMARK    3  A    between atoms: C2_2  and  N1_4
REMARK    4  A    between atoms: C4_5  and  C5_7
REMARK    5  A    between atoms: C9_14  and  C10_15
REMARK    6  A    between atoms: N5_22  and  C17_23
REMARK    7  A    between atoms: C17_23  and  C18_24
REMARK                            x       y       z     vdW  Elec       q    Type
REMARK                         _______ _______ _______ _____ _____    ______ ____
ROOT
ATOM      1  C5  UNL     1      20.320   5.399  33.518  0.00  0.00    +0.221 A 
ATOM      2  N2  UNL     1      19.073   4.982  33.222  0.00  0.00    -0.123 NA
ATOM      3  N3  UNL     1      19.188   3.918  32.444  0.00  0.00    -0.113 NA
ATOM      4  C6  UNL     1      20.503   3.702  32.261  0.00  0.00    +0.220 A 
ATOM      5  N4  UNL     1      20.998   2.552  31.545  0.00  0.00    -0.299 N 
ATOM      6  C7  UNL     1      20.167   1.376  31.345  0.00  0.00    +0.108 C 
ATOM      7  C8  UNL     1      20.977   0.433  30.466  0.00  0.00    +0.028 C 
ATOM      8  C9  UNL     1      22.098   1.280  29.853  0.00  0.00    +0.038 C 
ATOM      9  C16 UNL     1      22.214   2.519  30.749  0.00  0.00    +0.116 C 
ATOM     10  N5  UNL     1      21.257   4.620  32.917  0.00  0.00    -0.287 N 
ENDROOT
BRANCH   8  11
ATOM     11  C10 UNL     1      21.800   1.632  28.404  0.00  0.00    -0.043 A 
ATOM     12  C11 UNL     1      22.592   2.587  27.740  0.00  0.00    +0.004 A 
ATOM     13  C12 UNL     1      22.351   2.901  26.399  0.00  0.00    +0.000 A 
ATOM     14  C13 UNL     1      21.320   2.261  25.705  0.00  0.00    +0.000 A 
ATOM     15  C14 UNL     1      20.531   1.305  26.349  0.00  0.00    +0.000 A 
ATOM     16  C15 UNL     1      20.770   0.987  27.690  0.00  0.00    +0.004 A 
ENDBRANCH   8  11
BRANCH   1  18
ATOM     17  N1  UNL     1      20.372   7.872  34.013  0.00  0.00    -0.306 N 
ATOM     18  C4  UNL     1      20.566   6.519  34.454  0.00  0.00    +0.282 C 
ATOM     19  O1  UNL     1      20.907   6.294  35.645  0.00  0.00    -0.267 OA
ATOM     20  H8  UNL     1      20.173   8.043  33.001  0.00  0.00    +0.149 HD
BRANCH  17  22
ATOM     21  C1  UNL     1      21.071  10.227  34.184  0.00  0.00    +0.027 C 
ATOM     22  C2  UNL     1      20.492   9.017  34.923  0.00  0.00    +0.067 C 
ATOM     23  C3  UNL     1      19.122   9.358  35.518  0.00  0.00    +0.027 C 
ENDBRANCH  17  22
ENDBRANCH   1  18
BRANCH  10  24
ATOM     24  C17 UNL     1      22.721   4.700  33.027  0.00  0.00    +0.157 C 
BRANCH  24  25
ATOM     25  C18 UNL     1      23.248   6.053  32.594  0.00  0.00    -0.054 C 
ATOM     26  C19 UNL     1      22.764   6.597  31.456  0.00  0.00    -0.026 C 
ATOM     27  C20 UNL     1      23.216   7.935  30.924  0.00  0.00    +0.027 C 
ATOM     28  C21 UNL     1      23.773   8.841  32.024  0.00  0.00    +0.004 C 
ATOM     29  C22 UNL     1      24.778   8.071  32.876  0.00  0.00    +0.005 C 
ATOM     30  C23 UNL     1      24.096   6.875  33.552  0.00  0.00    +0.032 C 
ENDBRANCH  24  25
ENDBRANCH  10  24
TORSDOF 5
ENDMDL
MODEL 5
REMARK VINA RESULT:    -6.676     11.637     13.602
REMARK INTER + INTRA:          -9.597
REMARK INTER:                  -8.291
REMARK INTRA:                  -1.306
REMARK UNBOUND:                -0.969
REMARK  Name = /home/qwerty/github/datacon2025hack/step_04_hit_selection/docking/ligands/lig_723.pdb
REMARK  7 active torsions:
REMARK  status: ('A' for Active; 'I' for Inactive)
REMARK    1  A    between atoms: C1_1  and  C2_2
REMARK    2  A    between atoms: C2_2  and  C3_3
REMARK    3  A    between atoms: C2_2  and  N1_4
REMARK    4  A    between atoms: C4_5  and  C5_7
REMARK    5  A    between atoms: C9_14  and  C10_15
REMARK    6  A    between atoms: N5_22  and  C17_23
REMARK    7  A    between atoms: C17_23  and  C18_24
REMARK                            x       y       z     vdW  Elec       q    Type
REMARK                         _______ _______ _______ _____ _____    ______ ____
ROOT
ATOM      1  C5  UNL     1      14.144  12.873  32.543  0.00  0.00    +0.221 A 
ATOM      2  N2  UNL     1      14.753  12.455  31.417  0.00  0.00    -0.123 NA
ATOM      3  N3  UNL     1      13.898  12.619  30.422  0.00  0.00    -0.113 NA
ATOM      4  C6  UNL     1      12.767  13.122  30.951  0.00  0.00    +0.220 A 
ATOM      5  N4  UNL     1      11.651  13.525  30.131  0.00  0.00    -0.299 N 
ATOM      6  C7  UNL     1      11.819  13.800  28.714  0.00  0.00    +0.108 C 
ATOM      7  C8  UNL     1      10.425  14.081  28.171  0.00  0.00    +0.028 C 
ATOM      8  C9  UNL     1       9.444  13.557  29.226  0.00  0.00    +0.038 C 
ATOM      9  C16 UNL     1      10.253  13.454  30.524  0.00  0.00    +0.116 C 
ATOM     10  N5  UNL     1      12.876  13.293  32.293  0.00  0.00    -0.287 N 
ENDROOT
BRANCH   8  11
ATOM     11  C10 UNL     1       8.836  12.227  28.809  0.00  0.00    -0.043 A 
ATOM     12  C11 UNL     1       8.040  11.508  29.719  0.00  0.00    +0.004 A 
ATOM     13  C12 UNL     1       7.448  10.298  29.342  0.00  0.00    +0.000 A 
ATOM     14  C13 UNL     1       7.641   9.796  28.052  0.00  0.00    +0.000 A 
ATOM     15  C14 UNL     1       8.424  10.504  27.136  0.00  0.00    +0.000 A 
ATOM     16  C15 UNL     1       9.015  11.715  27.508  0.00  0.00    +0.004 A 
ENDBRANCH   8  11
BRANCH   1  18
ATOM     17  N1  UNL     1      14.927  11.740  34.657  0.00  0.00    -0.306 N 
ATOM     18  C4  UNL     1      14.852  12.920  33.842  0.00  0.00    +0.282 C 
ATOM     19  O1  UNL     1      15.422  13.977  34.222  0.00  0.00    -0.267 OA
ATOM     20  H8  UNL     1      14.377  10.899  34.368  0.00  0.00    +0.149 HD
BRANCH  17  22
ATOM     21  C1  UNL     1      14.822  12.043  37.098  0.00  0.00    +0.027 C 
ATOM     22  C2  UNL     1      15.708  11.693  35.898  0.00  0.00    +0.067 C 
ATOM     23  C3  UNL     1      16.326  10.303  36.075  0.00  0.00    +0.027 C 
ENDBRANCH  17  22
ENDBRANCH   1  18
BRANCH  10  24
ATOM     24  C17 UNL     1      11.901  13.871  33.229  0.00  0.00    +0.157 C 
BRANCH  24  25
ATOM     25  C18 UNL     1      11.519  12.895  34.323  0.00  0.00    -0.054 C 
ATOM     26  C19 UNL     1      11.303  11.605  33.987  0.00  0.00    -0.026 C 
ATOM     27  C20 UNL     1      10.914  10.546  34.989  0.00  0.00    +0.027 C 
ATOM     28  C21 UNL     1      11.357  10.897  36.410  0.00  0.00    +0.004 C 
ATOM     29  C22 UNL     1      10.955  12.331  36.743  0.00  0.00    +0.005 C 
ATOM     30  C23 UNL     1      11.636  13.312  35.781  0.00  0.00    +0.032 C 
ENDBRANCH  24  25
ENDBRANCH  10  24
TORSDOF 5
ENDMDL
MODEL 6
REMARK VINA RESULT:    -6.586      4.732      8.054
REMARK INTER + INTRA:          -9.479
REMARK INTER:                  -8.291
REMARK INTRA:                  -1.189
REMARK UNBOUND:                -0.969
REMARK  Name = /home/qwerty/github/datacon2025hack/step_04_hit_selection/docking/ligands/lig_723.pdb
REMARK  7 active torsions:
REMARK  status: ('A' for Active; 'I' for Inactive)
REMARK    1  A    between atoms: C1_1  and  C2_2
REMARK    2  A    between atoms: C2_2  and  C3_3
REMARK    3  A    between atoms: C2_2  and  N1_4
REMARK    4  A    between atoms: C4_5  and  C5_7
REMARK    5  A    between atoms: C9_14  and  C10_15
REMARK    6  A    between atoms: N5_22  and  C17_23
REMARK    7  A    between atoms: C17_23  and  C18_24
REMARK                            x       y       z     vdW  Elec       q    Type
REMARK                         _______ _______ _______ _____ _____    ______ ____
ROOT
ATOM      1  C5  UNL     1      18.478   1.584  27.800  0.00  0.00    +0.221 A 
ATOM      2  N2  UNL     1      17.148   1.570  28.011  0.00  0.00    -0.123 NA
ATOM      3  N3  UNL     1      16.603   0.849  27.045  0.00  0.00    -0.113 NA
ATOM      4  C6  UNL     1      17.604   0.440  26.244  0.00  0.00    +0.220 A 
ATOM      5  N4  UNL     1      17.382  -0.461  25.140  0.00  0.00    -0.299 N 
ATOM      6  C7  UNL     1      16.190  -1.289  25.073  0.00  0.00    +0.108 C 
ATOM      7  C8  UNL     1      16.252  -2.010  23.733  0.00  0.00    +0.028 C 
ATOM      8  C9  UNL     1      17.289  -1.256  22.893  0.00  0.00    +0.038 C 
ATOM      9  C16 UNL     1      18.136  -0.465  23.897  0.00  0.00    +0.116 C 
ATOM     10  N5  UNL     1      18.809   0.888  26.680  0.00  0.00    -0.287 N 
ENDROOT
BRANCH   8  11
ATOM     11  C10 UNL     1      16.623  -0.362  21.858  0.00  0.00    -0.043 A 
ATOM     12  C11 UNL     1      16.567  -0.774  20.514  0.00  0.00    +0.004 A 
ATOM     13  C12 UNL     1      15.932   0.021  19.554  0.00  0.00    +0.000 A 
ATOM     14  C13 UNL     1      15.343   1.232  19.927  0.00  0.00    +0.000 A 
ATOM     15  C14 UNL     1      15.385   1.649  21.260  0.00  0.00    +0.000 A 
ATOM     16  C15 UNL     1      16.016   0.856  22.223  0.00  0.00    +0.004 A 
ENDBRANCH   8  11
BRANCH   1  18
ATOM     17  N1  UNL     1      20.282   1.411  29.556  0.00  0.00    -0.306 N 
ATOM     18  C4  UNL     1      19.413   2.224  28.753  0.00  0.00    +0.282 C 
ATOM     19  O1  UNL     1      19.478   3.480  28.838  0.00  0.00    -0.267 OA
ATOM     20  H8  UNL     1      20.154   0.373  29.535  0.00  0.00    +0.149 HD
BRANCH  17  22
ATOM     21  C1  UNL     1      21.006   1.646  31.897  0.00  0.00    +0.027 C 
ATOM     22  C2  UNL     1      21.305   1.988  30.435  0.00  0.00    +0.067 C 
ATOM     23  C3  UNL     1      22.690   1.471  30.035  0.00  0.00    +0.027 C 
ENDBRANCH  17  22
ENDBRANCH   1  18
BRANCH  10  24
ATOM     24  C17 UNL     1      20.145   0.616  26.133  0.00  0.00    +0.157 C 
BRANCH  24  25
ATOM     25  C18 UNL     1      20.790   1.864  25.565  0.00  0.00    -0.054 C 
ATOM     26  C19 UNL     1      20.160   2.512  24.560  0.00  0.00    -0.026 C 
ATOM     27  C20 UNL     1      20.708   3.760  23.914  0.00  0.00    +0.027 C 
ATOM     28  C21 UNL     1      21.656   4.527  24.838  0.00  0.00    +0.004 C 
ATOM     29  C22 UNL     1      22.677   3.571  25.448  0.00  0.00    +0.005 C 
ATOM     30  C23 UNL     1      21.969   2.500  26.285  0.00  0.00    +0.032 C 
ENDBRANCH  24  25
ENDBRANCH  10  24
TORSDOF 5
ENDMDL
MODEL 7
REMARK VINA RESULT:    -6.462      2.599      3.865
REMARK INTER + INTRA:          -9.319
REMARK INTER:                  -8.311
REMARK INTRA:                  -1.008
REMARK UNBOUND:                -0.969
REMARK  Name = /home/qwerty/github/datacon2025hack/step_04_hit_selection/docking/ligands/lig_723.pdb
REMARK  7 active torsions:
REMARK  status: ('A' for Active; 'I' for Inactive)
REMARK    1  A    between atoms: C1_1  and  C2_2
REMARK    2  A    between atoms: C2_2  and  C3_3
REMARK    3  A    between atoms: C2_2  and  N1_4
REMARK    4  A    between atoms: C4_5  and  C5_7
REMARK    5  A    between atoms: C9_14  and  C10_15
REMARK    6  A    between atoms: N5_22  and  C17_23
REMARK    7  A    between atoms: C17_23  and  C18_24
REMARK                            x       y       z     vdW  Elec       q    Type
REMARK                         _______ _______ _______ _____ _____    ______ ____
ROOT
ATOM      1  C5  UNL     1      19.590   7.609  35.497  0.00  0.00    +0.221 A 
ATOM      2  N2  UNL     1      18.393   7.156  35.076  0.00  0.00    -0.123 NA
ATOM      3  N3  UNL     1      18.594   5.975  34.517  0.00  0.00    -0.113 NA
ATOM      4  C6  UNL     1      19.914   5.722  34.588  0.00  0.00    +0.220 A 
ATOM      5  N4  UNL     1      20.477   4.464  34.165  0.00  0.00    -0.299 N 
ATOM      6  C7  UNL     1      19.650   3.276  34.033  0.00  0.00    +0.108 C 
ATOM      7  C8  UNL     1      20.557   2.192  33.468  0.00  0.00    +0.028 C 
ATOM      8  C9  UNL     1      21.789   2.915  32.912  0.00  0.00    +0.038 C 
ATOM      9  C16 UNL     1      21.803   4.288  33.594  0.00  0.00    +0.116 C 
ATOM     10  N5  UNL     1      20.584   6.734  35.196  0.00  0.00    -0.287 N 
ENDROOT
BRANCH   8  11
ATOM     11  C10 UNL     1      21.737   3.016  31.396  0.00  0.00    -0.043 A 
ATOM     12  C11 UNL     1      21.414   4.244  30.789  0.00  0.00    +0.004 A 
ATOM     13  C12 UNL     1      21.391   4.363  29.396  0.00  0.00    +0.000 A 
ATOM     14  C13 UNL     1      21.695   3.259  28.593  0.00  0.00    +0.000 A 
ATOM     15  C14 UNL     1      22.025   2.036  29.183  0.00  0.00    +0.000 A 
ATOM     16  C15 UNL     1      22.051   1.913  30.576  0.00  0.00    +0.004 A 
ENDBRANCH   8  11
BRANCH   1  18
ATOM     17  N1  UNL     1      19.627  10.131  35.576  0.00  0.00    -0.306 N 
ATOM     18  C4  UNL     1      19.722   8.872  36.260  0.00  0.00    +0.282 C 
ATOM     19  O1  UNL     1      19.878   8.850  37.509  0.00  0.00    -0.267 OA
ATOM     20  H8  UNL     1      19.584  10.129  34.531  0.00  0.00    +0.149 HD
BRANCH  17  22
ATOM     21  C1  UNL     1      20.659  12.365  35.659  0.00  0.00    +0.027 C 
ATOM     22  C2  UNL     1      19.638  11.412  36.290  0.00  0.00    +0.067 C 
ATOM     23  C3  UNL     1      18.239  12.035  36.269  0.00  0.00    +0.027 C 
ENDBRANCH  17  22
ENDBRANCH   1  18
BRANCH  10  24
ATOM     24  C17 UNL     1      22.014   6.823  35.527  0.00  0.00    +0.157 C 
BRANCH  24  25
ATOM     25  C18 UNL     1      22.820   7.431  34.398  0.00  0.00    -0.054 C 
ATOM     26  C19 UNL     1      22.364   8.564  33.820  0.00  0.00    -0.026 C 
ATOM     27  C20 UNL     1      23.080   9.257  32.686  0.00  0.00    +0.027 C 
ATOM     28  C21 UNL     1      24.575   8.937  32.659  0.00  0.00    +0.004 C 
ATOM     29  C22 UNL     1      24.789   7.431  32.781  0.00  0.00    +0.005 C 
ATOM     30  C23 UNL     1      24.223   6.919  34.111  0.00  0.00    +0.032 C 
ENDBRANCH  24  25
ENDBRANCH  10  24
TORSDOF 5
ENDMDL
MODEL 8
REMARK VINA RESULT:    -6.435      2.262      2.965
REMARK INTER + INTRA:          -9.284
REMARK INTER:                  -8.200
REMARK INTRA:                  -1.084
REMARK UNBOUND:                -0.969
REMARK  Name = /home/qwerty/github/datacon2025hack/step_04_hit_selection/docking/ligands/lig_723.pdb
REMARK  7 active torsions:
REMARK  status: ('A' for Active; 'I' for Inactive)
REMARK    1  A    between atoms: C1_1  and  C2_2
REMARK    2  A    between atoms: C2_2  and  C3_3
REMARK    3  A    between atoms: C2_2  and  N1_4
REMARK    4  A    between atoms: C4_5  and  C5_7
REMARK    5  A    between atoms: C9_14  and  C10_15
REMARK    6  A    between atoms: N5_22  and  C17_23
REMARK    7  A    between atoms: C17_23  and  C18_24
REMARK                            x       y       z     vdW  Elec       q    Type
REMARK                         _______ _______ _______ _____ _____    ______ ____
ROOT
ATOM      1  C5  UNL     1      19.043   2.321  33.958  0.00  0.00    +0.221 A 
ATOM      2  N2  UNL     1      18.143   1.651  33.213  0.00  0.00    -0.123 NA
ATOM      3  N3  UNL     1      18.757   1.264  32.108  0.00  0.00    -0.113 NA
ATOM      4  C6  UNL     1      20.024   1.712  32.180  0.00  0.00    +0.220 A 
ATOM      5  N4  UNL     1      21.012   1.378  31.185  0.00  0.00    -0.299 N 
ATOM      6  C7  UNL     1      20.833   0.240  30.299  0.00  0.00    +0.108 C 
ATOM      7  C8  UNL     1      22.007   0.273  29.329  0.00  0.00    +0.028 C 
ATOM      8  C9  UNL     1      22.611   1.677  29.440  0.00  0.00    +0.038 C 
ATOM      9  C16 UNL     1      22.117   2.233  30.781  0.00  0.00    +0.116 C 
ATOM     10  N5  UNL     1      20.247   2.393  33.333  0.00  0.00    -0.287 N 
ENDROOT
BRANCH   8  11
ATOM     11  C10 UNL     1      22.210   2.550  28.262  0.00  0.00    -0.043 A 
ATOM     12  C11 UNL     1      21.533   3.762  28.490  0.00  0.00    +0.004 A 
ATOM     13  C12 UNL     1      21.183   4.592  27.420  0.00  0.00    +0.000 A 
ATOM     14  C13 UNL     1      21.509   4.223  26.112  0.00  0.00    +0.000 A 
ATOM     15  C14 UNL     1      22.188   3.025  25.872  0.00  0.00    +0.000 A 
ATOM     16  C15 UNL     1      22.542   2.194  26.939  0.00  0.00    +0.004 A 
ENDBRANCH   8  11
BRANCH   1  18
ATOM     17  N1  UNL     1      18.547   4.226  35.537  0.00  0.00    -0.306 N 
ATOM     18  C4  UNL     1      18.718   2.817  35.315  0.00  0.00    +0.282 C 
ATOM     19  O1  UNL     1      18.554   2.011  36.269  0.00  0.00    -0.267 OA
ATOM     20  H8  UNL     1      18.771   4.884  34.756  0.00  0.00    +0.149 HD
BRANCH  17  22
ATOM     21  C1  UNL     1      18.947   6.003  37.194  0.00  0.00    +0.027 C 
ATOM     22  C2  UNL     1      18.116   4.768  36.830  0.00  0.00    +0.067 C 
ATOM     23  C3  UNL     1      16.626   5.120  36.780  0.00  0.00    +0.027 C 
ENDBRANCH  17  22
ENDBRANCH   1  18
BRANCH  10  24
ATOM     24  C17 UNL     1      21.500   2.983  33.824  0.00  0.00    +0.157 C 
BRANCH  24  25
ATOM     25  C18 UNL     1      21.765   4.343  33.211  0.00  0.00    -0.054 C 
ATOM     26  C19 UNL     1      23.048   4.724  33.023  0.00  0.00    -0.026 C 
ATOM     27  C20 UNL     1      23.432   6.055  32.425  0.00  0.00    +0.027 C 
ATOM     28  C21 UNL     1      22.328   6.639  31.542  0.00  0.00    +0.004 C 
ATOM     29  C22 UNL     1      20.990   6.582  32.275  0.00  0.00    +0.005 C 
ATOM     30  C23 UNL     1      20.619   5.129  32.593  0.00  0.00    +0.032 C 
ENDBRANCH  24  25
ENDBRANCH  10  24
TORSDOF 5
ENDMDL
MODEL 9
REMARK VINA RESULT:    -6.326      5.967      9.261
REMARK INTER + INTRA:          -9.144
REMARK INTER:                  -8.129
REMARK INTRA:                  -1.015
REMARK UNBOUND:                -0.969
REMARK  Name = /home/qwerty/github/datacon2025hack/step_04_hit_selection/docking/ligands/lig_723.pdb
REMARK  7 active torsions:
REMARK  status: ('A' for Active; 'I' for Inactive)
REMARK    1  A    between atoms: C1_1  and  C2_2
REMARK    2  A    between atoms: C2_2  and  C3_3
REMARK    3  A    between atoms: C2_2  and  N1_4
REMARK    4  A    between atoms: C4_5  and  C5_7
REMARK    5  A    between atoms: C9_14  and  C10_15
REMARK    6  A    between atoms: N5_22  and  C17_23
REMARK    7  A    between atoms: C17_23  and  C18_24
REMARK                            x       y       z     vdW  Elec       q    Type
REMARK                         _______ _______ _______ _____ _____    ______ ____
ROOT
ATOM      1  C5  UNL     1      21.203   3.379  26.719  0.00  0.00    +0.221 A 
ATOM      2  N2  UNL     1      21.247   4.687  27.041  0.00  0.00    -0.123 NA
ATOM      3  N3  UNL     1      20.978   5.372  25.942  0.00  0.00    -0.113 NA
ATOM      4  C6  UNL     1      20.786   4.478  24.954  0.00  0.00    +0.220 A 
ATOM      5  N4  UNL     1      20.367   4.875  23.633  0.00  0.00    -0.299 N 
ATOM      6  C7  UNL     1      19.741   6.165  23.398  0.00  0.00    +0.108 C 
ATOM      7  C8  UNL     1      19.546   6.270  21.892  0.00  0.00    +0.028 C 
ATOM      8  C9  UNL     1      20.443   5.194  21.270  0.00  0.00    +0.038 C 
ATOM      9  C16 UNL     1      20.733   4.198  22.399  0.00  0.00    +0.116 C 
ATOM     10  N5  UNL     1      20.926   3.203  25.400  0.00  0.00    -0.287 N 
ENDROOT
BRANCH   8  11
ATOM     11  C10 UNL     1      21.709   5.797  20.683  0.00  0.00    -0.043 A 
ATOM     12  C11 UNL     1      22.632   6.442  21.528  0.00  0.00    +0.004 A 
ATOM     13  C12 UNL     1      23.816   6.975  21.009  0.00  0.00    +0.000 A 
ATOM     14  C13 UNL     1      24.094   6.868  19.643  0.00  0.00    +0.000 A 
ATOM     15  C14 UNL     1      23.190   6.224  18.795  0.00  0.00    +0.000 A 
ATOM     16  C15 UNL     1      22.006   5.686  19.310  0.00  0.00    +0.004 A 
ENDBRANCH   8  11
BRANCH   1  18
ATOM     17  N1  UNL     1      22.657   1.737  27.965  0.00  0.00    -0.306 N 
ATOM     18  C4  UNL     1      21.364   2.318  27.739  0.00  0.00    +0.282 C 
ATOM     19  O1  UNL     1      20.383   1.949  28.437  0.00  0.00    -0.267 OA
ATOM     20  H8  UNL     1      23.439   1.993  27.320  0.00  0.00    +0.149 HD
BRANCH  17  22
ATOM     21  C1  UNL     1      22.445  -0.632  28.603  0.00  0.00    +0.027 C 
ATOM     22  C2  UNL     1      22.902   0.764  29.036  0.00  0.00    +0.067 C 
ATOM     23  C3  UNL     1      24.389   0.752  29.402  0.00  0.00    +0.027 C 
ENDBRANCH  17  22
ENDBRANCH   1  18
BRANCH  10  24
ATOM     24  C17 UNL     1      20.736   1.945  24.664  0.00  0.00    +0.157 C 
BRANCH  24  25
ATOM     25  C18 UNL     1      19.326   1.412  24.809  0.00  0.00    -0.054 C 
ATOM     26  C19 UNL     1      18.357   1.933  24.024  0.00  0.00    -0.026 C 
ATOM     27  C20 UNL     1      16.918   1.483  24.083  0.00  0.00    +0.027 C 
ATOM     28  C21 UNL     1      16.773   0.061  24.627  0.00  0.00    +0.004 C 
ATOM     29  C22 UNL     1      17.588  -0.093  25.908  0.00  0.00    +0.005 C 
ATOM     30  C23 UNL     1      19.075   0.153  25.626  0.00  0.00    +0.032 C 
ENDBRANCH  24  25
ENDBRANCH  10  24
TORSDOF 5
ENDMDL
