REMARK  Name = /home/qwerty/github/datacon2025hack/step_04_hit_selection/docking/ligands/lig_724.pdb
REMARK  7 active torsions:
REMARK  status: ('A' for Active; 'I' for Inactive)
REMARK    1  A    between atoms: C1_1  and  O1_2
REMARK    2  A    between atoms: O1_2  and  C2_3
REMARK    3  A    between atoms: C2_3  and  C3_5
REMARK    4  A    between atoms: C5_7  and  N1_8
REMARK    5  A    between atoms: C10_15  and  C11_16
REMARK    6  A    between atoms: C16_21  and  C17_22
REMARK    7  A    between atoms: C18_23  and  C19_24
REMARK                            x       y       z     vdW  Elec       q    Type
REMARK                         _______ _______ _______ _____ _____    ______ ____
ROOT
ATOM      1  N1  UNL     1       0.809   0.034  -1.221  0.00  0.00    -0.269 N 
ATOM      2  C6  UNL     1      -0.097   0.455  -0.188  0.00  0.00    +0.307 C 
ATOM      3  O3  UNL     1       0.157   0.193   1.020  0.00  0.00    -0.252 OA
ATOM      4  N2  UNL     1      -1.322   1.131  -0.525  0.00  0.00    -0.278 N 
ATOM      5  C7  UNL     1      -1.557   1.749  -1.821  0.00  0.00    +0.110 C 
ATOM      6  C8  UNL     1      -2.774   2.652  -1.645  0.00  0.00    +0.021 C 
ATOM      7  C9  UNL     1      -3.405   2.274  -0.305  0.00  0.00    +0.029 C 
ATOM      8  C10 UNL     1      -2.328   1.502   0.460  0.00  0.00    +0.108 C 
ATOM      9  H5  UNL     1       0.443  -0.039  -2.196  0.00  0.00    +0.156 HD
ENDROOT
BRANCH   8  10
ATOM     10  C11 UNL     1      -2.893   0.303   1.217  0.00  0.00    -0.024 A 
ATOM     11  C12 UNL     1      -3.052   0.437   2.610  0.00  0.00    +0.006 A 
ATOM     12  C13 UNL     1      -3.563  -0.608   3.380  0.00  0.00    +0.000 A 
ATOM     13  C14 UNL     1      -3.932  -1.805   2.774  0.00  0.00    +0.000 A 
ATOM     14  C15 UNL     1      -3.801  -1.960   1.395  0.00  0.00    +0.004 A 
ATOM     15  C16 UNL     1      -3.302  -0.915   0.595  0.00  0.00    -0.046 A 
ATOM     16  C17 UNL     1      -3.181  -1.160  -0.888  0.00  0.00    +0.044 C 
ENDBRANCH   8  10
BRANCH   1  19
ATOM     17  C3  UNL     1       4.242  -0.427   0.085  0.00  0.00    +0.098 A 
ATOM     18  C4  UNL     1       2.949   0.087   0.090  0.00  0.00    +0.046 A 
ATOM     19  C5  UNL     1       2.162  -0.386  -0.975  0.00  0.00    +0.046 A 
ATOM     20  C18 UNL     1       2.848  -1.260  -1.819  0.00  0.00    +0.009 A 
ATOM     21  C19 UNL     1       2.313  -1.901  -3.058  0.00  0.00    +0.053 C 
ATOM     22  S1  UNL     1       4.416  -1.449  -1.240  0.00  0.00    -0.085 S 
BRANCH  17  23
ATOM     23  C2  UNL     1       5.299  -0.117   1.055  0.00  0.00    +0.346 C 
ATOM     24  O2  UNL     1       5.065   0.673   2.010  0.00  0.00    -0.244 OA
BRANCH  23  26
ATOM     25  C1  UNL     1       7.630  -0.450   1.812  0.00  0.00    +0.280 C 
ATOM     26  O1  UNL     1       6.560  -0.704   0.911  0.00  0.00    -0.464 OA
ENDBRANCH  23  26
ENDBRANCH  17  23
ENDBRANCH   1  19
TORSDOF 4
