MODEL 1
REMARK VINA RESULT:    -6.774      0.000      0.000
REMARK INTER + INTRA:         -10.979
REMARK INTER:                  -9.942
REMARK INTRA:                  -1.036
REMARK UNBOUND:                -1.036
REMARK  Name = /home/qwerty/github/datacon2025hack/step_04_hit_selection/docking/ligands/lig_84.pdb
REMARK  13 active torsions:
REMARK  status: ('A' for Active; 'I' for Inactive)
REMARK    1  A    between atoms: C1_1  and  C2_2
REMARK    2  A    between atoms: C2_2  and  C3_3
REMARK    3  A    between atoms: C2_2  and  C4_4
REMARK    4  A    between atoms: N1_6  and  C5_7
REMARK    5  A    between atoms: C8_10  and  C9_11
REMARK    6  A    between atoms: C9_11  and  N2_12
REMARK    7  A    between atoms: N3_15  and  C11_16
REMARK    8  A    between atoms: C11_16  and  C12_17
REMARK    9  A    between atoms: C17_23  and  O4_25
REMARK   10  A    between atoms: O4_25  and  C18_26
REMARK   11  A    between atoms: C18_26  and  C19_27
REMARK   12  A    between atoms: C18_26  and  C20_28
REMARK   13  A    between atoms: C18_26  and  C21_29
REMARK                            x       y       z     vdW  Elec       q    Type
REMARK                         _______ _______ _______ _____ _____    ______ ____
ROOT
ATOM      1  N2  UNL     1       8.008  12.064  27.399  0.00  0.00    -0.295 N 
ATOM      2  C10 UNL     1       8.295  10.758  26.881  0.00  0.00    +0.300 C 
ATOM      3  O2  UNL     1       8.876   9.903  27.603  0.00  0.00    -0.253 OA
ATOM      4  N3  UNL     1       7.914  10.430  25.537  0.00  0.00    -0.298 N 
ATOM      5  H13 UNL     1       7.537  12.761  26.780  0.00  0.00    +0.151 HD
ATOM      6  H14 UNL     1       7.424  11.155  24.967  0.00  0.00    +0.150 HD
ENDROOT
BRANCH   1   7
ATOM      7  C9  UNL     1       8.279  12.435  28.786  0.00  0.00    +0.141 C 
BRANCH   7  11
ATOM      8  C5  UNL     1      12.009  14.599  29.092  0.00  0.00    +0.033 A 
ATOM      9  C6  UNL     1      11.321  14.539  27.872  0.00  0.00    +0.023 A 
ATOM     10  C7  UNL     1      10.118  13.836  27.768  0.00  0.00    +0.007 A 
ATOM     11  C8  UNL     1       9.577  13.191  28.890  0.00  0.00    -0.030 A 
ATOM     12  C22 UNL     1      10.250  13.266  30.119  0.00  0.00    +0.007 A 
ATOM     13  C23 UNL     1      11.452  13.972  30.223  0.00  0.00    +0.023 A 
BRANCH   8  16
ATOM     14  C4  UNL     1      14.544  14.779  29.052  0.00  0.00    +0.220 C 
ATOM     15  O1  UNL     1      14.693  13.616  28.583  0.00  0.00    -0.275 OA
ATOM     16  N1  UNL     1      13.232  15.352  29.173  0.00  0.00    -0.285 N 
ATOM     17  H8  UNL     1      13.161  16.393  29.245  0.00  0.00    +0.155 HD
BRANCH  14  19
ATOM     18  C1  UNL     1      16.854  14.740  30.023  0.00  0.00    +0.017 C 
ATOM     19  C2  UNL     1      15.757  15.606  29.393  0.00  0.00    +0.069 C 
ATOM     20  C3  UNL     1      16.278  16.323  28.144  0.00  0.00    +0.017 C 
ENDBRANCH  14  19
ENDBRANCH   8  16
ENDBRANCH   7  11
ENDBRANCH   1   7
BRANCH   4  21
ATOM     21  C11 UNL     1       8.080   9.096  24.959  0.00  0.00    +0.128 C 
BRANCH  21  22
ATOM     22  C12 UNL     1       8.083   9.144  23.416  0.00  0.00    +0.096 C 
ATOM     23  C13 UNL     1       7.849  10.579  22.897  0.00  0.00    +0.024 C 
ATOM     24  C14 UNL     1       8.154  10.649  21.399  0.00  0.00    +0.003 C 
ATOM     25  C15 UNL     1       9.612  10.256  21.078  0.00  0.00    +0.019 C 
ATOM     26  C16 UNL     1      10.295   9.459  22.203  0.00  0.00    +0.111 C 
ATOM     27  N4  UNL     1       9.329   8.570  22.867  0.00  0.00    -0.263 N 
ATOM     28  C17 UNL     1       9.574   7.151  22.942  0.00  0.00    +0.404 C 
ATOM     29  O3  UNL     1       8.664   6.377  23.346  0.00  0.00    -0.226 OA
BRANCH  28  30
ATOM     30  O4  UNL     1      10.825   6.638  22.559  0.00  0.00    -0.445 OA
BRANCH  30  31
ATOM     31  C18 UNL     1      11.102   5.847  21.395  0.00  0.00    +0.107 C 
ATOM     32  C19 UNL     1      12.564   6.114  21.005  0.00  0.00    +0.055 C 
ATOM     33  C20 UNL     1      10.936   4.347  21.707  0.00  0.00    +0.055 C 
ATOM     34  C21 UNL     1      10.191   6.264  20.225  0.00  0.00    +0.055 C 
ENDBRANCH  30  31
ENDBRANCH  28  30
ENDBRANCH  21  22
ENDBRANCH   4  21
TORSDOF 8
ENDMDL
MODEL 2
REMARK VINA RESULT:    -6.748      4.766     11.559
REMARK INTER + INTRA:         -10.939
REMARK INTER:                  -9.914
REMARK INTRA:                  -1.025
REMARK UNBOUND:                -1.036
REMARK  Name = /home/qwerty/github/datacon2025hack/step_04_hit_selection/docking/ligands/lig_84.pdb
REMARK  13 active torsions:
REMARK  status: ('A' for Active; 'I' for Inactive)
REMARK    1  A    between atoms: C1_1  and  C2_2
REMARK    2  A    between atoms: C2_2  and  C3_3
REMARK    3  A    between atoms: C2_2  and  C4_4
REMARK    4  A    between atoms: N1_6  and  C5_7
REMARK    5  A    between atoms: C8_10  and  C9_11
REMARK    6  A    between atoms: C9_11  and  N2_12
REMARK    7  A    between atoms: N3_15  and  C11_16
REMARK    8  A    between atoms: C11_16  and  C12_17
REMARK    9  A    between atoms: C17_23  and  O4_25
REMARK   10  A    between atoms: O4_25  and  C18_26
REMARK   11  A    between atoms: C18_26  and  C19_27
REMARK   12  A    between atoms: C18_26  and  C20_28
REMARK   13  A    between atoms: C18_26  and  C21_29
REMARK                            x       y       z     vdW  Elec       q    Type
REMARK                         _______ _______ _______ _____ _____    ______ ____
ROOT
ATOM      1  N2  UNL     1       9.416  13.750  29.987  0.00  0.00    -0.295 N 
ATOM      2  C10 UNL     1      10.725  13.735  30.571  0.00  0.00    +0.300 C 
ATOM      3  O2  UNL     1      11.716  13.341  29.897  0.00  0.00    -0.253 OA
ATOM      4  N3  UNL     1      10.901  14.174  31.926  0.00  0.00    -0.298 N 
ATOM      5  H13 UNL     1       8.608  14.068  30.566  0.00  0.00    +0.151 HD
ATOM      6  H14 UNL     1      10.063  14.505  32.454  0.00  0.00    +0.150 HD
ENDROOT
BRANCH   1   7
ATOM      7  C9  UNL     1       9.178  13.410  28.585  0.00  0.00    +0.141 C 
BRANCH   7  11
ATOM      8  C5  UNL     1       7.358   9.503  28.245  0.00  0.00    +0.033 A 
ATOM      9  C6  UNL     1       7.324  10.199  29.462  0.00  0.00    +0.023 A 
ATOM     10  C7  UNL     1       7.916  11.460  29.577  0.00  0.00    +0.007 A 
ATOM     11  C8  UNL     1       8.542  12.050  28.469  0.00  0.00    -0.030 A 
ATOM     12  C22 UNL     1       8.560  11.367  27.243  0.00  0.00    +0.007 A 
ATOM     13  C23 UNL     1       7.965  10.108  27.128  0.00  0.00    +0.023 A 
BRANCH   8  16
ATOM     14  C4  UNL     1       7.353   6.972  28.482  0.00  0.00    +0.220 C 
ATOM     15  O1  UNL     1       8.426   6.958  29.147  0.00  0.00    -0.275 OA
ATOM     16  N1  UNL     1       6.718   8.219  28.151  0.00  0.00    -0.285 N 
ATOM     17  H8  UNL     1       5.703   8.195  27.904  0.00  0.00    +0.155 HD
BRANCH  14  19
ATOM     18  C1  UNL     1       7.702   4.657  27.589  0.00  0.00    +0.017 C 
ATOM     19  C2  UNL     1       6.682   5.671  28.120  0.00  0.00    +0.069 C 
ATOM     20  C3  UNL     1       5.932   5.107  29.330  0.00  0.00    +0.017 C 
ENDBRANCH  14  19
ENDBRANCH   8  16
ENDBRANCH   7  11
ENDBRANCH   1   7
BRANCH   4  21
ATOM     21  C11 UNL     1      12.210  14.283  32.571  0.00  0.00    +0.128 C 
BRANCH  21  22
ATOM     22  C12 UNL     1      12.103  14.112  34.101  0.00  0.00    +0.096 C 
ATOM     23  C13 UNL     1      10.632  14.137  34.569  0.00  0.00    +0.024 C 
ATOM     24  C14 UNL     1      10.538  13.669  36.023  0.00  0.00    +0.003 C 
ATOM     25  C15 UNL     1      11.077  12.235  36.214  0.00  0.00    +0.019 C 
ATOM     26  C16 UNL     1      11.987  11.764  35.067  0.00  0.00    +0.111 C 
ATOM     27  N4  UNL     1      12.790  12.883  34.550  0.00  0.00    -0.263 N 
ATOM     28  C17 UNL     1      14.229  12.799  34.521  0.00  0.00    +0.404 C 
ATOM     29  O3  UNL     1      14.912  13.824  34.250  0.00  0.00    -0.226 OA
BRANCH  28  30
ATOM     30  O4  UNL     1      14.861  11.576  34.801  0.00  0.00    -0.445 OA
BRANCH  30  31
ATOM     31  C18 UNL     1      15.530  11.222  36.019  0.00  0.00    +0.107 C 
ATOM     32  C19 UNL     1      15.105   9.786  36.367  0.00  0.00    +0.055 C 
ATOM     33  C20 UNL     1      17.058  11.255  35.829  0.00  0.00    +0.055 C 
ATOM     34  C21 UNL     1      15.103  12.158  37.166  0.00  0.00    +0.055 C 
ENDBRANCH  30  31
ENDBRANCH  28  30
ENDBRANCH  21  22
ENDBRANCH   4  21
TORSDOF 8
ENDMDL
MODEL 3
REMARK VINA RESULT:    -6.658     10.258     14.305
REMARK INTER + INTRA:         -10.809
REMARK INTER:                  -9.660
REMARK INTRA:                  -1.149
REMARK UNBOUND:                -1.036
REMARK  Name = /home/qwerty/github/datacon2025hack/step_04_hit_selection/docking/ligands/lig_84.pdb
REMARK  13 active torsions:
REMARK  status: ('A' for Active; 'I' for Inactive)
REMARK    1  A    between atoms: C1_1  and  C2_2
REMARK    2  A    between atoms: C2_2  and  C3_3
REMARK    3  A    between atoms: C2_2  and  C4_4
REMARK    4  A    between atoms: N1_6  and  C5_7
REMARK    5  A    between atoms: C8_10  and  C9_11
REMARK    6  A    between atoms: C9_11  and  N2_12
REMARK    7  A    between atoms: N3_15  and  C11_16
REMARK    8  A    between atoms: C11_16  and  C12_17
REMARK    9  A    between atoms: C17_23  and  O4_25
REMARK   10  A    between atoms: O4_25  and  C18_26
REMARK   11  A    between atoms: C18_26  and  C19_27
REMARK   12  A    between atoms: C18_26  and  C20_28
REMARK   13  A    between atoms: C18_26  and  C21_29
REMARK                            x       y       z     vdW  Elec       q    Type
REMARK                         _______ _______ _______ _____ _____    ______ ____
ROOT
ATOM      1  N2  UNL     1      19.114  11.086  37.182  0.00  0.00    -0.295 N 
ATOM      2  C10 UNL     1      20.081  10.098  36.802  0.00  0.00    +0.300 C 
ATOM      3  O2  UNL     1      20.713  10.216  35.716  0.00  0.00    -0.253 OA
ATOM      4  N3  UNL     1      20.325   8.978  37.663  0.00  0.00    -0.298 N 
ATOM      5  H13 UNL     1      18.593  10.964  38.078  0.00  0.00    +0.151 HD
ATOM      6  H14 UNL     1      19.794   8.914  38.560  0.00  0.00    +0.150 HD
ENDROOT
BRANCH   1   7
ATOM      7  C9  UNL     1      18.884  12.301  36.403  0.00  0.00    +0.141 C 
BRANCH   7  11
ATOM      8  C5  UNL     1      14.650  13.104  36.060  0.00  0.00    +0.033 A 
ATOM      9  C6  UNL     1      15.564  13.734  35.203  0.00  0.00    +0.023 A 
ATOM     10  C7  UNL     1      16.934  13.481  35.315  0.00  0.00    +0.007 A 
ATOM     11  C8  UNL     1      17.410  12.582  36.280  0.00  0.00    -0.030 A 
ATOM     12  C22 UNL     1      16.497  11.932  37.126  0.00  0.00    +0.007 A 
ATOM     13  C23 UNL     1      15.127  12.183  37.011  0.00  0.00    +0.023 A 
BRANCH   8  16
ATOM     14  C4  UNL     1      12.439  12.844  34.832  0.00  0.00    +0.220 C 
ATOM     15  O1  UNL     1      12.863  11.891  34.120  0.00  0.00    -0.275 OA
ATOM     16  N1  UNL     1      13.244  13.366  35.903  0.00  0.00    -0.285 N 
ATOM     17  H8  UNL     1      12.759  13.902  36.658  0.00  0.00    +0.155 HD
BRANCH  14  19
ATOM     18  C1  UNL     1      10.510  14.041  35.893  0.00  0.00    +0.017 C 
ATOM     19  C2  UNL     1      11.042  13.370  34.621  0.00  0.00    +0.069 C 
ATOM     20  C3  UNL     1      11.015  14.342  33.439  0.00  0.00    +0.017 C 
ENDBRANCH  14  19
ENDBRANCH   8  16
ENDBRANCH   7  11
ENDBRANCH   1   7
BRANCH   4  21
ATOM     21  C11 UNL     1      21.359   7.975  37.402  0.00  0.00    +0.128 C 
BRANCH  21  22
ATOM     22  C12 UNL     1      20.749   6.659  36.873  0.00  0.00    +0.096 C 
ATOM     23  C13 UNL     1      19.228   6.600  37.129  0.00  0.00    +0.024 C 
ATOM     24  C14 UNL     1      18.609   5.445  36.339  0.00  0.00    +0.003 C 
ATOM     25  C15 UNL     1      18.833   5.588  34.818  0.00  0.00    +0.019 C 
ATOM     26  C16 UNL     1      19.975   6.552  34.454  0.00  0.00    +0.111 C 
ATOM     27  N4  UNL     1      21.061   6.464  35.442  0.00  0.00    -0.263 N 
ATOM     28  C17 UNL     1      22.405   6.149  35.024  0.00  0.00    +0.404 C 
ATOM     29  O3  UNL     1      23.288   5.896  35.888  0.00  0.00    -0.226 OA
BRANCH  28  30
ATOM     30  O4  UNL     1      22.721   6.120  33.655  0.00  0.00    -0.445 OA
BRANCH  30  31
ATOM     31  C18 UNL     1      23.520   7.077  32.945  0.00  0.00    +0.107 C 
ATOM     32  C19 UNL     1      23.029   7.083  31.489  0.00  0.00    +0.055 C 
ATOM     33  C20 UNL     1      23.334   8.486  33.538  0.00  0.00    +0.055 C 
ATOM     34  C21 UNL     1      25.005   6.668  32.967  0.00  0.00    +0.055 C 
ENDBRANCH  30  31
ENDBRANCH  28  30
ENDBRANCH  21  22
ENDBRANCH   4  21
TORSDOF 8
ENDMDL
MODEL 4
REMARK VINA RESULT:    -6.637      5.066      8.112
REMARK INTER + INTRA:         -10.777
REMARK INTER:                 -10.014
REMARK INTRA:                  -0.763
REMARK UNBOUND:                -1.036
REMARK  Name = /home/qwerty/github/datacon2025hack/step_04_hit_selection/docking/ligands/lig_84.pdb
REMARK  13 active torsions:
REMARK  status: ('A' for Active; 'I' for Inactive)
REMARK    1  A    between atoms: C1_1  and  C2_2
REMARK    2  A    between atoms: C2_2  and  C3_3
REMARK    3  A    between atoms: C2_2  and  C4_4
REMARK    4  A    between atoms: N1_6  and  C5_7
REMARK    5  A    between atoms: C8_10  and  C9_11
REMARK    6  A    between atoms: C9_11  and  N2_12
REMARK    7  A    between atoms: N3_15  and  C11_16
REMARK    8  A    between atoms: C11_16  and  C12_17
REMARK    9  A    between atoms: C17_23  and  O4_25
REMARK   10  A    between atoms: O4_25  and  C18_26
REMARK   11  A    between atoms: C18_26  and  C19_27
REMARK   12  A    between atoms: C18_26  and  C20_28
REMARK   13  A    between atoms: C18_26  and  C21_29
REMARK                            x       y       z     vdW  Elec       q    Type
REMARK                         _______ _______ _______ _____ _____    ______ ____
ROOT
ATOM      1  N2  UNL     1      11.570  14.581  34.343  0.00  0.00    -0.295 N 
ATOM      2  C10 UNL     1      11.309  13.641  33.292  0.00  0.00    +0.300 C 
ATOM      3  O2  UNL     1      11.246  12.407  33.545  0.00  0.00    -0.253 OA
ATOM      4  N3  UNL     1      11.116  14.115  31.951  0.00  0.00    -0.298 N 
ATOM      5  H13 UNL     1      11.630  15.596  34.110  0.00  0.00    +0.151 HD
ATOM      6  H14 UNL     1      11.162  15.143  31.775  0.00  0.00    +0.150 HD
ENDROOT
BRANCH   1   7
ATOM      7  C9  UNL     1      11.679  14.180  35.745  0.00  0.00    +0.141 C 
BRANCH   7  11
ATOM      8  C5  UNL     1      15.793  13.333  36.771  0.00  0.00    +0.033 A 
ATOM      9  C6  UNL     1      14.809  12.342  36.903  0.00  0.00    +0.023 A 
ATOM     10  C7  UNL     1      13.478  12.614  36.577  0.00  0.00    +0.007 A 
ATOM     11  C8  UNL     1      13.111  13.882  36.101  0.00  0.00    -0.030 A 
ATOM     12  C22 UNL     1      14.095  14.870  35.946  0.00  0.00    +0.007 A 
ATOM     13  C23 UNL     1      15.427  14.596  36.269  0.00  0.00    +0.023 A 
BRANCH   8  16
ATOM     14  C4  UNL     1      18.121  12.536  36.134  0.00  0.00    +0.220 C 
ATOM     15  O1  UNL     1      17.897  12.637  34.895  0.00  0.00    -0.275 OA
ATOM     16  N1  UNL     1      17.158  13.014  37.089  0.00  0.00    -0.285 N 
ATOM     17  H8  UNL     1      17.496  13.219  38.057  0.00  0.00    +0.155 HD
BRANCH  14  19
ATOM     18  C1  UNL     1      19.433  10.471  36.675  0.00  0.00    +0.017 C 
ATOM     19  C2  UNL     1      19.448  12.003  36.611  0.00  0.00    +0.069 C 
ATOM     20  C3  UNL     1      20.576  12.501  35.704  0.00  0.00    +0.017 C 
ENDBRANCH  14  19
ENDBRANCH   8  16
ENDBRANCH   7  11
ENDBRANCH   1   7
BRANCH   4  21
ATOM     21  C11 UNL     1      10.752  13.240  30.836  0.00  0.00    +0.128 C 
BRANCH  21  22
ATOM     22  C12 UNL     1      10.846  13.977  29.484  0.00  0.00    +0.096 C 
ATOM     23  C13 UNL     1      12.214  14.673  29.317  0.00  0.00    +0.024 C 
ATOM     24  C14 UNL     1      12.393  15.133  27.867  0.00  0.00    +0.003 C 
ATOM     25  C15 UNL     1      12.329  13.957  26.868  0.00  0.00    +0.019 C 
ATOM     26  C16 UNL     1      11.661  12.697  27.444  0.00  0.00    +0.111 C 
ATOM     27  N4  UNL     1      10.567  13.063  28.357  0.00  0.00    -0.263 N 
ATOM     28  C17 UNL     1       9.231  12.570  28.131  0.00  0.00    +0.404 C 
ATOM     29  O3  UNL     1       8.270  13.030  28.804  0.00  0.00    -0.226 OA
BRANCH  28  30
ATOM     30  O4  UNL     1       9.008  11.583  27.156  0.00  0.00    -0.445 OA
BRANCH  30  31
ATOM     31  C18 UNL     1       8.886  10.172  27.385  0.00  0.00    +0.107 C 
ATOM     32  C19 UNL     1      10.202   9.524  26.926  0.00  0.00    +0.055 C 
ATOM     33  C20 UNL     1       8.684   9.880  28.884  0.00  0.00    +0.055 C 
ATOM     34  C21 UNL     1       7.729   9.585  26.555  0.00  0.00    +0.055 C 
ENDBRANCH  30  31
ENDBRANCH  28  30
ENDBRANCH  21  22
ENDBRANCH   4  21
TORSDOF 8
ENDMDL
MODEL 5
REMARK VINA RESULT:    -6.582     13.380     14.480
REMARK INTER + INTRA:         -10.697
REMARK INTER:                  -9.571
REMARK INTRA:                  -1.125
REMARK UNBOUND:                -1.036
REMARK  Name = /home/qwerty/github/datacon2025hack/step_04_hit_selection/docking/ligands/lig_84.pdb
REMARK  13 active torsions:
REMARK  status: ('A' for Active; 'I' for Inactive)
REMARK    1  A    between atoms: C1_1  and  C2_2
REMARK    2  A    between atoms: C2_2  and  C3_3
REMARK    3  A    between atoms: C2_2  and  C4_4
REMARK    4  A    between atoms: N1_6  and  C5_7
REMARK    5  A    between atoms: C8_10  and  C9_11
REMARK    6  A    between atoms: C9_11  and  N2_12
REMARK    7  A    between atoms: N3_15  and  C11_16
REMARK    8  A    between atoms: C11_16  and  C12_17
REMARK    9  A    between atoms: C17_23  and  O4_25
REMARK   10  A    between atoms: O4_25  and  C18_26
REMARK   11  A    between atoms: C18_26  and  C19_27
REMARK   12  A    between atoms: C18_26  and  C20_28
REMARK   13  A    between atoms: C18_26  and  C21_29
REMARK                            x       y       z     vdW  Elec       q    Type
REMARK                         _______ _______ _______ _____ _____    ______ ____
ROOT
ATOM      1  N2  UNL     1       8.675   2.210  36.698  0.00  0.00    -0.295 N 
ATOM      2  C10 UNL     1       7.790   1.133  36.362  0.00  0.00    +0.300 C 
ATOM      3  O2  UNL     1       7.179   0.507  37.272  0.00  0.00    -0.253 OA
ATOM      4  N3  UNL     1       7.603   0.773  34.986  0.00  0.00    -0.298 N 
ATOM      5  H13 UNL     1       9.180   2.706  35.931  0.00  0.00    +0.151 HD
ATOM      6  H14 UNL     1       8.114   1.316  34.256  0.00  0.00    +0.150 HD
ENDROOT
BRANCH   1   7
ATOM      7  C9  UNL     1       8.839   2.694  38.067  0.00  0.00    +0.141 C 
BRANCH   7  11
ATOM      8  C5  UNL     1      12.573   4.833  38.485  0.00  0.00    +0.033 A 
ATOM      9  C6  UNL     1      11.357   5.529  38.436  0.00  0.00    +0.023 A 
ATOM     10  C7  UNL     1      10.149   4.841  38.296  0.00  0.00    +0.007 A 
ATOM     11  C8  UNL     1      10.137   3.441  38.214  0.00  0.00    -0.030 A 
ATOM     12  C22 UNL     1      11.350   2.738  38.285  0.00  0.00    +0.007 A 
ATOM     13  C23 UNL     1      12.558   3.426  38.428  0.00  0.00    +0.023 A 
BRANCH   8  16
ATOM     14  C4  UNL     1      14.862   5.600  37.690  0.00  0.00    +0.220 C 
ATOM     15  O1  UNL     1      14.663   5.211  36.505  0.00  0.00    -0.275 OA
ATOM     16  N1  UNL     1      13.798   5.567  38.656  0.00  0.00    -0.285 N 
ATOM     17  H8  UNL     1      13.887   6.180  39.498  0.00  0.00    +0.155 HD
BRANCH  14  19
ATOM     18  C1  UNL     1      17.348   5.296  37.603  0.00  0.00    +0.017 C 
ATOM     19  C2  UNL     1      16.195   6.195  38.066  0.00  0.00    +0.069 C 
ATOM     20  C3  UNL     1      16.332   7.603  37.479  0.00  0.00    +0.017 C 
ENDBRANCH  14  19
ENDBRANCH   8  16
ENDBRANCH   7  11
ENDBRANCH   1   7
BRANCH   4  21
ATOM     21  C11 UNL     1       6.650  -0.247  34.546  0.00  0.00    +0.128 C 
BRANCH  21  22
ATOM     22  C12 UNL     1       7.319  -1.283  33.618  0.00  0.00    +0.096 C 
ATOM     23  C13 UNL     1       7.225  -0.857  32.138  0.00  0.00    +0.024 C 
ATOM     24  C14 UNL     1       8.145  -1.732  31.282  0.00  0.00    +0.003 C 
ATOM     25  C15 UNL     1       9.623  -1.630  31.717  0.00  0.00    +0.019 C 
ATOM     26  C16 UNL     1       9.807  -1.075  33.140  0.00  0.00    +0.111 C 
ATOM     27  N4  UNL     1       8.719  -1.533  34.019  0.00  0.00    -0.263 N 
ATOM     28  C17 UNL     1       9.014  -2.252  35.233  0.00  0.00    +0.404 C 
ATOM     29  O3  UNL     1       8.081  -2.797  35.882  0.00  0.00    -0.226 OA
BRANCH  28  30
ATOM     30  O4  UNL     1      10.342  -2.346  35.682  0.00  0.00    -0.445 OA
BRANCH  30  31
ATOM     31  C18 UNL     1      10.968  -1.518  36.673  0.00  0.00    +0.107 C 
ATOM     32  C19 UNL     1      12.272  -2.216  37.087  0.00  0.00    +0.055 C 
ATOM     33  C20 UNL     1      11.308  -0.134  36.087  0.00  0.00    +0.055 C 
ATOM     34  C21 UNL     1      10.064  -1.378  37.913  0.00  0.00    +0.055 C 
ENDBRANCH  30  31
ENDBRANCH  28  30
ENDBRANCH  21  22
ENDBRANCH   4  21
TORSDOF 8
ENDMDL
MODEL 6
REMARK VINA RESULT:    -6.582      8.405     11.815
REMARK INTER + INTRA:         -10.697
REMARK INTER:                  -9.138
REMARK INTRA:                  -1.559
REMARK UNBOUND:                -1.036
REMARK  Name = /home/qwerty/github/datacon2025hack/step_04_hit_selection/docking/ligands/lig_84.pdb
REMARK  13 active torsions:
REMARK  status: ('A' for Active; 'I' for Inactive)
REMARK    1  A    between atoms: C1_1  and  C2_2
REMARK    2  A    between atoms: C2_2  and  C3_3
REMARK    3  A    between atoms: C2_2  and  C4_4
REMARK    4  A    between atoms: N1_6  and  C5_7
REMARK    5  A    between atoms: C8_10  and  C9_11
REMARK    6  A    between atoms: C9_11  and  N2_12
REMARK    7  A    between atoms: N3_15  and  C11_16
REMARK    8  A    between atoms: C11_16  and  C12_17
REMARK    9  A    between atoms: C17_23  and  O4_25
REMARK   10  A    between atoms: O4_25  and  C18_26
REMARK   11  A    between atoms: C18_26  and  C19_27
REMARK   12  A    between atoms: C18_26  and  C20_28
REMARK   13  A    between atoms: C18_26  and  C21_29
REMARK                            x       y       z     vdW  Elec       q    Type
REMARK                         _______ _______ _______ _____ _____    ______ ____
ROOT
ATOM      1  N2  UNL     1      15.018   5.149  20.490  0.00  0.00    -0.295 N 
ATOM      2  C10 UNL     1      13.711   5.055  19.906  0.00  0.00    +0.300 C 
ATOM      3  O2  UNL     1      13.536   4.393  18.847  0.00  0.00    -0.253 OA
ATOM      4  N3  UNL     1      12.605   5.717  20.536  0.00  0.00    -0.298 N 
ATOM      5  H13 UNL     1      15.143   5.712  21.360  0.00  0.00    +0.151 HD
ATOM      6  H14 UNL     1      12.780   6.249  21.418  0.00  0.00    +0.150 HD
ENDROOT
BRANCH   1   7
ATOM      7  C9  UNL     1      16.169   4.422  19.958  0.00  0.00    +0.141 C 
BRANCH   7  11
ATOM      8  C5  UNL     1      16.564   0.579  21.899  0.00  0.00    +0.033 A 
ATOM      9  C6  UNL     1      16.141   0.661  20.565  0.00  0.00    +0.023 A 
ATOM     10  C7  UNL     1      16.007   1.901  19.937  0.00  0.00    +0.007 A 
ATOM     11  C8  UNL     1      16.307   3.082  20.631  0.00  0.00    -0.030 A 
ATOM     12  C22 UNL     1      16.753   3.005  21.960  0.00  0.00    +0.007 A 
ATOM     13  C23 UNL     1      16.890   1.763  22.587  0.00  0.00    +0.023 A 
BRANCH   8  16
ATOM     14  C4  UNL     1      15.753  -1.310  23.396  0.00  0.00    +0.220 C 
ATOM     15  O1  UNL     1      14.579  -0.849  23.465  0.00  0.00    -0.275 OA
ATOM     16  N1  UNL     1      16.717  -0.714  22.511  0.00  0.00    -0.285 N 
ATOM     17  H8  UNL     1      17.543  -1.292  22.233  0.00  0.00    +0.155 HD
BRANCH  14  19
ATOM     18  C1  UNL     1      17.466  -2.383  24.877  0.00  0.00    +0.017 C 
ATOM     19  C2  UNL     1      16.115  -2.551  24.171  0.00  0.00    +0.069 C 
ATOM     20  C3  UNL     1      15.011  -2.888  25.176  0.00  0.00    +0.017 C 
ENDBRANCH  14  19
ENDBRANCH   8  16
ENDBRANCH   7  11
ENDBRANCH   1   7
BRANCH   4  21
ATOM     21  C11 UNL     1      11.225   5.597  20.065  0.00  0.00    +0.128 C 
BRANCH  21  22
ATOM     22  C12 UNL     1      10.215   5.897  21.193  0.00  0.00    +0.096 C 
ATOM     23  C13 UNL     1       8.951   6.596  20.646  0.00  0.00    +0.024 C 
ATOM     24  C14 UNL     1       7.856   6.607  21.715  0.00  0.00    +0.003 C 
ATOM     25  C15 UNL     1       7.459   5.183  22.162  0.00  0.00    +0.019 C 
ATOM     26  C16 UNL     1       8.511   4.116  21.817  0.00  0.00    +0.111 C 
ATOM     27  N4  UNL     1       9.869   4.669  21.939  0.00  0.00    -0.263 N 
ATOM     28  C17 UNL     1      10.837   4.047  22.809  0.00  0.00    +0.404 C 
ATOM     29  O3  UNL     1      11.930   4.627  23.047  0.00  0.00    -0.226 OA
BRANCH  28  30
ATOM     30  O4  UNL     1      10.552   2.799  23.389  0.00  0.00    -0.445 OA
BRANCH  30  31
ATOM     31  C18 UNL     1      11.142   1.540  23.036  0.00  0.00    +0.107 C 
ATOM     32  C19 UNL     1      11.863   1.013  24.286  0.00  0.00    +0.055 C 
ATOM     33  C20 UNL     1      10.057   0.528  22.623  0.00  0.00    +0.055 C 
ATOM     34  C21 UNL     1      12.175   1.722  21.907  0.00  0.00    +0.055 C 
ENDBRANCH  30  31
ENDBRANCH  28  30
ENDBRANCH  21  22
ENDBRANCH   4  21
TORSDOF 8
ENDMDL
MODEL 7
REMARK VINA RESULT:    -6.532      6.370     11.124
REMARK INTER + INTRA:         -10.623
REMARK INTER:                  -9.414
REMARK INTRA:                  -1.209
REMARK UNBOUND:                -1.036
REMARK  Name = /home/qwerty/github/datacon2025hack/step_04_hit_selection/docking/ligands/lig_84.pdb
REMARK  13 active torsions:
REMARK  status: ('A' for Active; 'I' for Inactive)
REMARK    1  A    between atoms: C1_1  and  C2_2
REMARK    2  A    between atoms: C2_2  and  C3_3
REMARK    3  A    between atoms: C2_2  and  C4_4
REMARK    4  A    between atoms: N1_6  and  C5_7
REMARK    5  A    between atoms: C8_10  and  C9_11
REMARK    6  A    between atoms: C9_11  and  N2_12
REMARK    7  A    between atoms: N3_15  and  C11_16
REMARK    8  A    between atoms: C11_16  and  C12_17
REMARK    9  A    between atoms: C17_23  and  O4_25
REMARK   10  A    between atoms: O4_25  and  C18_26
REMARK   11  A    between atoms: C18_26  and  C19_27
REMARK   12  A    between atoms: C18_26  and  C20_28
REMARK   13  A    between atoms: C18_26  and  C21_29
REMARK                            x       y       z     vdW  Elec       q    Type
REMARK                         _______ _______ _______ _____ _____    ______ ____
ROOT
ATOM      1  N2  UNL     1      11.808   2.544  20.771  0.00  0.00    -0.295 N 
ATOM      2  C10 UNL     1      12.937   1.669  20.888  0.00  0.00    +0.300 C 
ATOM      3  O2  UNL     1      12.986   0.819  21.820  0.00  0.00    -0.253 OA
ATOM      4  N3  UNL     1      14.008   1.764  19.939  0.00  0.00    -0.298 N 
ATOM      5  H13 UNL     1      11.793   3.249  20.001  0.00  0.00    +0.151 HD
ATOM      6  H14 UNL     1      13.934   2.469  19.173  0.00  0.00    +0.150 HD
ENDROOT
BRANCH   1   7
ATOM      7  C9  UNL     1      10.639   2.439  21.642  0.00  0.00    +0.141 C 
BRANCH   7  11
ATOM      8  C5  UNL     1       9.161   6.368  22.677  0.00  0.00    +0.033 A 
ATOM      9  C6  UNL     1       8.270   5.342  22.332  0.00  0.00    +0.023 A 
ATOM     10  C7  UNL     1       8.744   4.073  21.992  0.00  0.00    +0.007 A 
ATOM     11  C8  UNL     1      10.121   3.806  22.003  0.00  0.00    -0.030 A 
ATOM     12  C22 UNL     1      11.016   4.823  22.370  0.00  0.00    +0.007 A 
ATOM     13  C23 UNL     1      10.541   6.091  22.713  0.00  0.00    +0.023 A 
BRANCH   8  16
ATOM     14  C4  UNL     1       8.686   8.820  22.205  0.00  0.00    +0.220 C 
ATOM     15  O1  UNL     1       8.934   8.707  20.972  0.00  0.00    -0.275 OA
ATOM     16  N1  UNL     1       8.641   7.657  23.048  0.00  0.00    -0.285 N 
ATOM     17  H8  UNL     1       8.127   7.734  23.954  0.00  0.00    +0.155 HD
BRANCH  14  19
ATOM     18  C1  UNL     1       7.833  11.116  21.677  0.00  0.00    +0.017 C 
ATOM     19  C2  UNL     1       8.338  10.172  22.774  0.00  0.00    +0.069 C 
ATOM     20  C3  UNL     1       7.299  10.025  23.890  0.00  0.00    +0.017 C 
ENDBRANCH  14  19
ENDBRANCH   8  16
ENDBRANCH   7  11
ENDBRANCH   1   7
BRANCH   4  21
ATOM     21  C11 UNL     1      15.151   0.849  19.925  0.00  0.00    +0.128 C 
BRANCH  21  22
ATOM     22  C12 UNL     1      16.360   1.443  20.679  0.00  0.00    +0.096 C 
ATOM     23  C13 UNL     1      16.485   2.962  20.435  0.00  0.00    +0.024 C 
ATOM     24  C14 UNL     1      17.490   3.569  21.417  0.00  0.00    +0.003 C 
ATOM     25  C15 UNL     1      17.074   3.354  22.889  0.00  0.00    +0.019 C 
ATOM     26  C16 UNL     1      16.044   2.227  23.077  0.00  0.00    +0.111 C 
ATOM     27  N4  UNL     1      16.292   1.135  22.122  0.00  0.00    -0.263 N 
ATOM     28  C17 UNL     1      16.508  -0.212  22.592  0.00  0.00    +0.404 C 
ATOM     29  O3  UNL     1      16.898  -1.101  21.789  0.00  0.00    -0.226 OA
BRANCH  28  30
ATOM     30  O4  UNL     1      16.287  -0.522  23.945  0.00  0.00    -0.445 OA
BRANCH  30  31
ATOM     31  C18 UNL     1      17.289  -0.833  24.923  0.00  0.00    +0.107 C 
ATOM     32  C19 UNL     1      18.542  -0.021  24.560  0.00  0.00    +0.055 C 
ATOM     33  C20 UNL     1      16.820  -0.422  26.331  0.00  0.00    +0.055 C 
ATOM     34  C21 UNL     1      17.641  -2.332  24.881  0.00  0.00    +0.055 C 
ENDBRANCH  30  31
ENDBRANCH  28  30
ENDBRANCH  21  22
ENDBRANCH   4  21
TORSDOF 8
ENDMDL
MODEL 8
REMARK VINA RESULT:    -6.423      4.132      7.353
REMARK INTER + INTRA:         -10.463
REMARK INTER:                  -9.238
REMARK INTRA:                  -1.224
REMARK UNBOUND:                -1.036
REMARK  Name = /home/qwerty/github/datacon2025hack/step_04_hit_selection/docking/ligands/lig_84.pdb
REMARK  13 active torsions:
REMARK  status: ('A' for Active; 'I' for Inactive)
REMARK    1  A    between atoms: C1_1  and  C2_2
REMARK    2  A    between atoms: C2_2  and  C3_3
REMARK    3  A    between atoms: C2_2  and  C4_4
REMARK    4  A    between atoms: N1_6  and  C5_7
REMARK    5  A    between atoms: C8_10  and  C9_11
REMARK    6  A    between atoms: C9_11  and  N2_12
REMARK    7  A    between atoms: N3_15  and  C11_16
REMARK    8  A    between atoms: C11_16  and  C12_17
REMARK    9  A    between atoms: C17_23  and  O4_25
REMARK   10  A    between atoms: O4_25  and  C18_26
REMARK   11  A    between atoms: C18_26  and  C19_27
REMARK   12  A    between atoms: C18_26  and  C20_28
REMARK   13  A    between atoms: C18_26  and  C21_29
REMARK                            x       y       z     vdW  Elec       q    Type
REMARK                         _______ _______ _______ _____ _____    ______ ____
ROOT
ATOM      1  N2  UNL     1      11.031   9.100  21.125  0.00  0.00    -0.295 N 
ATOM      2  C10 UNL     1      10.805   7.720  20.806  0.00  0.00    +0.300 C 
ATOM      3  O2  UNL     1       9.629   7.270  20.735  0.00  0.00    -0.253 OA
ATOM      4  N3  UNL     1      11.926   6.856  20.567  0.00  0.00    -0.298 N 
ATOM      5  H13 UNL     1      12.012   9.449  21.191  0.00  0.00    +0.151 HD
ATOM      6  H14 UNL     1      12.887   7.261  20.622  0.00  0.00    +0.150 HD
ENDROOT
BRANCH   1   7
ATOM      7  C9  UNL     1       9.938  10.057  21.285  0.00  0.00    +0.141 C 
BRANCH   7  11
ATOM      8  C5  UNL     1       8.400   9.957  25.324  0.00  0.00    +0.033 A 
ATOM      9  C6  UNL     1       9.782   9.963  25.091  0.00  0.00    +0.023 A 
ATOM     10  C7  UNL     1      10.283   9.990  23.787  0.00  0.00    +0.007 A 
ATOM     11  C8  UNL     1       9.406  10.024  22.693  0.00  0.00    -0.030 A 
ATOM     12  C22 UNL     1       8.021  10.040  22.922  0.00  0.00    +0.007 A 
ATOM     13  C23 UNL     1       7.521  10.017  24.226  0.00  0.00    +0.023 A 
BRANCH   8  16
ATOM     14  C4  UNL     1       8.122  11.028  27.613  0.00  0.00    +0.220 C 
ATOM     15  O1  UNL     1       8.501  12.163  27.209  0.00  0.00    -0.275 OA
ATOM     16  N1  UNL     1       7.915   9.955  26.678  0.00  0.00    -0.285 N 
ATOM     17  H8  UNL     1       7.306   9.161  26.979  0.00  0.00    +0.155 HD
BRANCH  14  19
ATOM     18  C1  UNL     1       6.931   9.571  29.268  0.00  0.00    +0.017 C 
ATOM     19  C2  UNL     1       7.788  10.827  29.069  0.00  0.00    +0.069 C 
ATOM     20  C3  UNL     1       9.072  10.750  29.901  0.00  0.00    +0.017 C 
ENDBRANCH  14  19
ENDBRANCH   8  16
ENDBRANCH   7  11
ENDBRANCH   1   7
BRANCH   4  21
ATOM     21  C11 UNL     1      11.787   5.462  20.143  0.00  0.00    +0.128 C 
BRANCH  21  22
ATOM     22  C12 UNL     1      11.611   4.519  21.351  0.00  0.00    +0.096 C 
ATOM     23  C13 UNL     1      10.300   3.710  21.247  0.00  0.00    +0.024 C 
ATOM     24  C14 UNL     1      10.297   2.582  22.282  0.00  0.00    +0.003 C 
ATOM     25  C15 UNL     1      11.478   1.606  22.089  0.00  0.00    +0.019 C 
ATOM     26  C16 UNL     1      12.624   2.189  21.245  0.00  0.00    +0.111 C 
ATOM     27  N4  UNL     1      12.780   3.629  21.508  0.00  0.00    -0.263 N 
ATOM     28  C17 UNL     1      14.045   4.158  21.954  0.00  0.00    +0.404 C 
ATOM     29  O3  UNL     1      14.121   5.352  22.350  0.00  0.00    -0.226 OA
BRANCH  28  30
ATOM     30  O4  UNL     1      15.185   3.336  21.950  0.00  0.00    -0.445 OA
BRANCH  30  31
ATOM     31  C18 UNL     1      16.192   3.281  20.929  0.00  0.00    +0.107 C 
ATOM     32  C19 UNL     1      16.296   1.817  20.474  0.00  0.00    +0.055 C 
ATOM     33  C20 UNL     1      15.790   4.150  19.723  0.00  0.00    +0.055 C 
ATOM     34  C21 UNL     1      17.557   3.725  21.489  0.00  0.00    +0.055 C 
ENDBRANCH  30  31
ENDBRANCH  28  30
ENDBRANCH  21  22
ENDBRANCH   4  21
TORSDOF 8
ENDMDL
MODEL 9
REMARK VINA RESULT:    -6.345     10.175     11.819
REMARK INTER + INTRA:         -10.349
REMARK INTER:                  -8.695
REMARK INTRA:                  -1.655
REMARK UNBOUND:                -1.036
REMARK  Name = /home/qwerty/github/datacon2025hack/step_04_hit_selection/docking/ligands/lig_84.pdb
REMARK  13 active torsions:
REMARK  status: ('A' for Active; 'I' for Inactive)
REMARK    1  A    between atoms: C1_1  and  C2_2
REMARK    2  A    between atoms: C2_2  and  C3_3
REMARK    3  A    between atoms: C2_2  and  C4_4
REMARK    4  A    between atoms: N1_6  and  C5_7
REMARK    5  A    between atoms: C8_10  and  C9_11
REMARK    6  A    between atoms: C9_11  and  N2_12
REMARK    7  A    between atoms: N3_15  and  C11_16
REMARK    8  A    between atoms: C11_16  and  C12_17
REMARK    9  A    between atoms: C17_23  and  O4_25
REMARK   10  A    between atoms: O4_25  and  C18_26
REMARK   11  A    between atoms: C18_26  and  C19_27
REMARK   12  A    between atoms: C18_26  and  C20_28
REMARK   13  A    between atoms: C18_26  and  C21_29
REMARK                            x       y       z     vdW  Elec       q    Type
REMARK                         _______ _______ _______ _____ _____    ______ ____
ROOT
ATOM      1  N2  UNL     1      17.577  10.677  20.143  0.00  0.00    -0.295 N 
ATOM      2  C10 UNL     1      18.097   9.411  19.714  0.00  0.00    +0.300 C 
ATOM      3  O2  UNL     1      18.894   9.351  18.738  0.00  0.00    -0.253 OA
ATOM      4  N3  UNL     1      17.707   8.215  20.404  0.00  0.00    -0.298 N 
ATOM      5  H13 UNL     1      16.909  10.703  20.945  0.00  0.00    +0.151 HD
ATOM      6  H14 UNL     1      17.055   8.298  21.215  0.00  0.00    +0.150 HD
ENDROOT
BRANCH   1   7
ATOM      7  C9  UNL     1      18.005  11.943  19.551  0.00  0.00    +0.141 C 
BRANCH   7  11
ATOM      8  C5  UNL     1      21.017  13.841  22.005  0.00  0.00    +0.033 A 
ATOM      9  C6  UNL     1      20.229  12.802  22.523  0.00  0.00    +0.023 A 
ATOM     10  C7  UNL     1      19.252  12.190  21.734  0.00  0.00    +0.007 A 
ATOM     11  C8  UNL     1      19.054  12.601  20.407  0.00  0.00    -0.030 A 
ATOM     12  C22 UNL     1      19.854  13.625  19.877  0.00  0.00    +0.007 A 
ATOM     13  C23 UNL     1      20.834  14.234  20.666  0.00  0.00    +0.023 A 
BRANCH   8  16
ATOM     14  C4  UNL     1      23.350  13.888  23.012  0.00  0.00    +0.220 C 
ATOM     15  O1  UNL     1      23.787  13.002  22.225  0.00  0.00    -0.275 OA
ATOM     16  N1  UNL     1      22.032  14.433  22.833  0.00  0.00    -0.285 N 
ATOM     17  H8  UNL     1      21.828  15.361  23.269  0.00  0.00    +0.155 HD
BRANCH  14  19
ATOM     18  C1  UNL     1      24.714  15.864  23.728  0.00  0.00    +0.017 C 
ATOM     19  C2  UNL     1      24.253  14.445  24.083  0.00  0.00    +0.069 C 
ATOM     20  C3  UNL     1      23.541  14.425  25.439  0.00  0.00    +0.017 C 
ENDBRANCH  14  19
ENDBRANCH   8  16
ENDBRANCH   7  11
ENDBRANCH   1   7
BRANCH   4  21
ATOM     21  C11 UNL     1      18.261   6.895  20.097  0.00  0.00    +0.128 C 
BRANCH  21  22
ATOM     22  C12 UNL     1      18.783   6.192  21.368  0.00  0.00    +0.096 C 
ATOM     23  C13 UNL     1      18.318   4.721  21.428  0.00  0.00    +0.024 C 
ATOM     24  C14 UNL     1      19.087   3.974  22.521  0.00  0.00    +0.003 C 
ATOM     25  C15 UNL     1      20.611   3.984  22.277  0.00  0.00    +0.019 C 
ATOM     26  C16 UNL     1      21.069   5.082  21.302  0.00  0.00    +0.111 C 
ATOM     27  N4  UNL     1      20.254   6.295  21.468  0.00  0.00    -0.263 N 
ATOM     28  C17 UNL     1      20.878   7.561  21.768  0.00  0.00    +0.404 C 
ATOM     29  O3  UNL     1      20.166   8.551  22.088  0.00  0.00    -0.226 OA
BRANCH  28  30
ATOM     30  O4  UNL     1      22.276   7.679  21.706  0.00  0.00    -0.445 OA
BRANCH  30  31
ATOM     31  C18 UNL     1      23.032   8.330  20.675  0.00  0.00    +0.107 C 
ATOM     32  C19 UNL     1      24.517   8.056  20.961  0.00  0.00    +0.055 C 
ATOM     33  C20 UNL     1      22.675   7.750  19.293  0.00  0.00    +0.055 C 
ATOM     34  C21 UNL     1      22.794   9.852  20.705  0.00  0.00    +0.055 C 
ENDBRANCH  30  31
ENDBRANCH  28  30
ENDBRANCH  21  22
ENDBRANCH   4  21
TORSDOF 8
ENDMDL
