REMARK  Name = /home/qwerty/github/datacon2025hack/step_04_hit_selection/docking/ligands/lig_403.pdb
REMARK  6 active torsions:
REMARK  status: ('A' for Active; 'I' for Inactive)
REMARK    1  A    between atoms: C1_1  and  C2_2
REMARK    2  A    between atoms: C2_2  and  C3_3
REMARK    3  A    between atoms: C3_3  and  N1_4
REMARK    4  A    between atoms: C3_3  and  C12_16
REMARK    5  A    between atoms: N2_7  and  C5_8
REMARK    6  A    between atoms: C7_10  and  C8_11
REMARK                            x       y       z     vdW  Elec       q    Type
REMARK                         _______ _______ _______ _____ _____    ______ ____
ROOT
ATOM      1  N1  UNL     1      -0.127   0.172  -0.279  0.00  0.00    -0.292 N 
ATOM      2  C4  UNL     1      -1.547   0.265  -0.462  0.00  0.00    +0.304 C 
ATOM      3  O1  UNL     1      -2.026   0.476  -1.610  0.00  0.00    -0.252 OA
ATOM      4  N2  UNL     1      -2.419   0.087   0.663  0.00  0.00    -0.267 N 
ATOM      5  H7  UNL     1       0.222   0.091   0.702  0.00  0.00    +0.151 HD
ATOM      6  H8  UNL     1      -2.024  -0.361   1.521  0.00  0.00    +0.156 HD
ENDROOT
BRANCH   4   7
ATOM      7  C5  UNL     1      -3.837   0.311   0.610  0.00  0.00    +0.070 A 
ATOM      8  C6  UNL     1      -4.701  -0.616   1.213  0.00  0.00    +0.029 A 
ATOM      9  C7  UNL     1      -6.091  -0.423   1.183  0.00  0.00    -0.049 A 
ATOM     10  C8  UNL     1      -7.005  -1.408   1.850  0.00  0.00    +0.044 C 
ATOM     11  C9  UNL     1      -6.613   0.732   0.584  0.00  0.00    +0.006 A 
ATOM     12  C10 UNL     1      -5.758   1.673   0.006  0.00  0.00    +0.040 A 
ATOM     13  C11 UNL     1      -4.375   1.471   0.020  0.00  0.00    +0.145 A 
ATOM     14  F1  UNL     1      -3.564   2.431  -0.491  0.00  0.00    -0.204 F 
ENDBRANCH   4   7
BRANCH   1  15
ATOM     15  C3  UNL     1       0.820   0.267  -1.401  0.00  0.00    +0.105 C 
BRANCH  15  16
ATOM     16  C12 UNL     1       2.239   0.555  -0.928  0.00  0.00    -0.023 A 
ATOM     17  C13 UNL     1       3.012   1.520  -1.604  0.00  0.00    +0.009 A 
ATOM     18  C14 UNL     1       4.330   1.781  -1.214  0.00  0.00    +0.050 A 
ATOM     19  C15 UNL     1       4.895   1.071  -0.154  0.00  0.00    +0.162 A 
ATOM     20  C16 UNL     1       4.137   0.118   0.536  0.00  0.00    +0.162 A 
ATOM     21  C17 UNL     1       2.824  -0.155   0.142  0.00  0.00    +0.055 A 
ATOM     22  O2  UNL     1       4.712  -0.554   1.619  0.00  0.00    -0.485 OA
ATOM     23  C18 UNL     1       5.936  -0.100   2.204  0.00  0.00    +0.270 C 
ATOM     24  C19 UNL     1       6.895   0.393   1.113  0.00  0.00    +0.270 C 
ATOM     25  O3  UNL     1       6.221   1.294   0.231  0.00  0.00    -0.485 OA
ENDBRANCH  15  16
BRANCH  15  27
ATOM     26  C1  UNL     1       1.018  -2.303  -1.578  0.00  0.00    +0.006 C 
ATOM     27  C2  UNL     1       0.759  -0.984  -2.307  0.00  0.00    +0.024 C 
ENDBRANCH  15  27
ENDBRANCH   1  15
TORSDOF 4
