REMARK  Name = /home/qwerty/github/datacon2025hack/step_04_hit_selection/docking/ligands/lig_505.pdb
REMARK  4 active torsions:
REMARK  status: ('A' for Active; 'I' for Inactive)
REMARK    1  A    between atoms: C1_1  and  O1_2
REMARK    2  A    between atoms: O1_2  and  C2_3
REMARK    3  A    between atoms: C8_10  and  C9_11
REMARK    4  A    between atoms: N5_20  and  C15_21
REMARK                            x       y       z     vdW  Elec       q    Type
REMARK                         _______ _______ _______ _____ _____    ______ ____
ROOT
ATOM      1  C2  UNL     1       3.819   0.172  -0.157  0.00  0.00    +0.122 A 
ATOM      2  C3  UNL     1       3.762  -0.877  -1.105  0.00  0.00    +0.048 A 
ATOM      3  C4  UNL     1       2.531  -1.440  -1.486  0.00  0.00    +0.031 A 
ATOM      4  C5  UNL     1       1.373  -0.928  -0.898  0.00  0.00    +0.069 A 
ATOM      5  C6  UNL     1       1.419   0.079   0.019  0.00  0.00    +0.093 A 
ATOM      6  C7  UNL     1       2.620   0.660   0.419  0.00  0.00    +0.075 A 
ATOM      7  N1  UNL     1       0.182   0.385   0.447  0.00  0.00    -0.227 NA
ATOM      8  C8  UNL     1      -0.610  -0.477  -0.243  0.00  0.00    +0.144 A 
ATOM      9  N5  UNL     1       0.090  -1.284  -1.091  0.00  0.00    -0.327 N 
ATOM     10  C15 UNL     1      -0.417  -2.304  -2.009  0.00  0.00    +0.151 C 
ENDROOT
BRANCH   8  11
ATOM     11  C9  UNL     1      -2.074  -0.512  -0.050  0.00  0.00    +0.048 A 
ATOM     12  C10 UNL     1      -2.922  -1.625  -0.122  0.00  0.00    +0.125 A 
ATOM     13  N2  UNL     1      -4.212  -1.318   0.178  0.00  0.00    -0.237 NA
ATOM     14  C11 UNL     1      -4.188  -0.003   0.449  0.00  0.00    +0.141 A 
ATOM     15  N3  UNL     1      -5.240   0.767   0.810  0.00  0.00    -0.330 N 
ATOM     16  C12 UNL     1      -5.018   2.094   1.056  0.00  0.00    +0.197 A 
ATOM     17  N4  UNL     1      -3.760   2.632   0.942  0.00  0.00    -0.245 NA
ATOM     18  C13 UNL     1      -2.675   1.884   0.583  0.00  0.00    +0.124 A 
ATOM     19  C14 UNL     1      -2.879   0.537   0.331  0.00  0.00    +0.047 A 
ATOM     20  H8  UNL     1      -6.198   0.360   0.898  0.00  0.00    +0.168 HD
ENDBRANCH   8  11
BRANCH   1  22
ATOM     21  C1  UNL     1       5.283   1.746   1.117  0.00  0.00    +0.277 C 
ATOM     22  O1  UNL     1       5.076   0.693   0.181  0.00  0.00    -0.495 OA
ENDBRANCH   1  22
TORSDOF 2
