REMARK  Name = /home/qwerty/github/datacon2025hack/step_04_hit_selection/docking/ligands/lig_641.pdb
REMARK  8 active torsions:
REMARK  status: ('A' for Active; 'I' for Inactive)
REMARK    1  A    between atoms: C1_1  and  C2_2
REMARK    2  A    between atoms: C2_2  and  C3_3
REMARK    3  A    between atoms: C2_2  and  C14_20
REMARK    4  A    between atoms: C3_3  and  C4_4
REMARK    5  A    between atoms: N1_6  and  C5_7
REMARK    6  A    between atoms: C7_9  and  N2_10
REMARK    7  A    between atoms: N2_10  and  C8_11
REMARK    8  A    between atoms: C9_12  and  C10_14
REMARK                            x       y       z     vdW  Elec       q    Type
REMARK                         _______ _______ _______ _____ _____    ______ ____
ROOT
ATOM      1  C5  UNL     1       0.714   0.635   0.108  0.00  0.00    +0.076 C 
ATOM      2  C6  UNL     1       1.289   1.633  -0.901  0.00  0.00    +0.045 C 
ATOM      3  C7  UNL     1       2.272   0.567  -1.381  0.00  0.00    +0.080 C 
ATOM      4  C13 UNL     1       1.674  -0.441  -0.397  0.00  0.00    +0.045 C 
ENDROOT
BRANCH   1   7
ATOM      5  C4  UNL     1      -1.372  -0.692   0.638  0.00  0.00    +0.214 C 
ATOM      6  O1  UNL     1      -0.768  -1.296   1.566  0.00  0.00    -0.276 OA
ATOM      7  N1  UNL     1      -0.688   0.294  -0.147  0.00  0.00    -0.312 N 
ATOM      8  H7  UNL     1      -1.228   0.811  -0.878  0.00  0.00    +0.149 HD
BRANCH   5   9
ATOM      9  C3  UNL     1      -2.823  -0.985   0.389  0.00  0.00    +0.106 C 
BRANCH   9  11
ATOM     10  C1  UNL     1      -3.680   1.305   1.109  0.00  0.00    +0.016 C 
ATOM     11  C2  UNL     1      -3.737  -0.208   1.356  0.00  0.00    +0.061 C 
BRANCH  11  12
ATOM     12  C14 UNL     1      -5.154  -0.689   1.210  0.00  0.00    +0.108 A 
ATOM     13  C15 UNL     1      -5.917  -1.270   2.204  0.00  0.00    +0.045 A 
ATOM     14  C16 UNL     1      -7.135  -1.546   1.622  0.00  0.00    +0.041 A 
ATOM     15  C17 UNL     1      -7.041  -1.118   0.313  0.00  0.00    +0.195 A 
ATOM     16  O4  UNL     1      -5.848  -0.612   0.098  0.00  0.00    -0.468 OA
ENDBRANCH  11  12
ENDBRANCH   9  11
ENDBRANCH   5   9
ENDBRANCH   1   7
BRANCH   3  17
ATOM     17  N2  UNL     1       3.684   0.910  -1.116  0.00  0.00    -0.296 N 
ATOM     18  C8  UNL     1       4.590   1.175  -2.235  0.00  0.00    +0.132 C 
ATOM     19  C9  UNL     1       4.203   1.059   0.218  0.00  0.00    +0.268 C 
ATOM     20  O2  UNL     1       3.846   2.038   0.925  0.00  0.00    -0.268 OA
BRANCH  19  21
ATOM     21  C10 UNL     1       5.154   0.080   0.767  0.00  0.00    +0.163 A 
ATOM     22  C11 UNL     1       5.515  -1.121   0.199  0.00  0.00    +0.230 A 
ATOM     23  O3  UNL     1       6.362  -1.698   1.013  0.00  0.00    -0.450 OA
ATOM     24  C12 UNL     1       6.521  -0.901   2.046  0.00  0.00    +0.308 A 
ATOM     25  N3  UNL     1       5.785   0.226   1.948  0.00  0.00    -0.212 NA
ENDBRANCH  19  21
ENDBRANCH   3  17
TORSDOF 6
