REMARK  Name = /home/qwerty/github/datacon2025hack/step_04_hit_selection/docking/ligands/lig_220.pdb
REMARK  8 active torsions:
REMARK  status: ('A' for Active; 'I' for Inactive)
REMARK    1  A    between atoms: C1_1  and  C2_2
REMARK    2  A    between atoms: C2_2  and  C3_3
REMARK    3  A    between atoms: C2_2  and  N4_14
REMARK    4  A    between atoms: C6_6  and  N1_7
REMARK    5  A    between atoms: N4_14  and  C11_15
REMARK    6  A    between atoms: C12_16  and  C13_18
REMARK    7  A    between atoms: N5_20  and  C14_21
REMARK    8  A    between atoms: N6_29  and  C21_30
REMARK                            x       y       z     vdW  Elec       q    Type
REMARK                         _______ _______ _______ _____ _____    ______ ____
ROOT
ATOM      1  N4  UNL     1       1.370  -2.014   0.345  0.00  0.00    -0.290 N 
ATOM      2  C11 UNL     1       2.212  -3.211   0.240  0.00  0.00    +0.133 C 
ATOM      3  C12 UNL     1       0.165  -1.963  -0.446  0.00  0.00    +0.302 C 
ATOM      4  O1  UNL     1       0.165  -2.465  -1.603  0.00  0.00    -0.265 OA
ENDROOT
BRANCH   3   5
ATOM      5  C13 UNL     1      -1.080  -1.362   0.076  0.00  0.00    +0.303 C 
ATOM      6  O2  UNL     1      -1.195  -1.145   1.312  0.00  0.00    -0.265 OA
ATOM      7  N5  UNL     1      -2.179  -1.087  -0.809  0.00  0.00    -0.278 N 
ATOM      8  H14 UNL     1      -2.200  -1.566  -1.737  0.00  0.00    +0.155 HD
BRANCH   7   9
ATOM      9  C14 UNL     1      -3.305  -0.266  -0.455  0.00  0.00    +0.035 A 
ATOM     10  C15 UNL     1      -3.159   0.857   0.403  0.00  0.00    +0.024 A 
ATOM     11  C16 UNL     1      -4.264   1.665   0.725  0.00  0.00    +0.015 A 
ATOM     12  C17 UNL     1      -5.496   1.342   0.164  0.00  0.00    +0.050 A 
ATOM     13  C18 UNL     1      -5.643   0.269  -0.685  0.00  0.00    +0.051 A 
ATOM     14  C19 UNL     1      -4.567  -0.552  -1.018  0.00  0.00    +0.037 A 
ATOM     15  C20 UNL     1      -7.045   0.210  -1.083  0.00  0.00    +0.254 C 
ATOM     16  O3  UNL     1      -7.563  -0.676  -1.814  0.00  0.00    -0.270 OA
ATOM     17  N6  UNL     1      -7.770   1.293  -0.496  0.00  0.00    -0.237 N 
ATOM     18  C21 UNL     1      -9.215   1.354  -0.322  0.00  0.00    +0.142 C 
ATOM     19  C22 UNL     1      -6.803   1.972   0.309  0.00  0.00    +0.254 C 
ATOM     20  O4  UNL     1      -7.065   2.955   1.053  0.00  0.00    -0.270 OA
ENDBRANCH   7   9
ENDBRANCH   3   5
BRANCH   1  22
ATOM     21  C1  UNL     1       1.904  -1.133   2.607  0.00  0.00    +0.033 C 
ATOM     22  C2  UNL     1       1.823  -0.830   1.102  0.00  0.00    +0.103 C 
BRANCH  22  23
ATOM     23  C3  UNL     1       3.109  -0.280   0.503  0.00  0.00    -0.027 A 
ATOM     24  C4  UNL     1       4.383  -0.610   1.003  0.00  0.00    +0.007 A 
ATOM     25  C5  UNL     1       5.537  -0.114   0.392  0.00  0.00    +0.028 A 
ATOM     26  C6  UNL     1       5.452   0.716  -0.739  0.00  0.00    +0.067 A 
ATOM     27  C9  UNL     1       4.180   1.028  -1.252  0.00  0.00    +0.028 A 
ATOM     28  C10 UNL     1       3.026   0.531  -0.641  0.00  0.00    +0.007 A 
BRANCH  26  29
ATOM     29  N1  UNL     1       6.656   1.218  -1.357  0.00  0.00    -0.220 N 
ATOM     30  C7  UNL     1       6.769   2.129  -2.344  0.00  0.00    +0.225 A 
ATOM     31  N2  UNL     1       8.060   2.354  -2.658  0.00  0.00    -0.222 NA
ATOM     32  C8  UNL     1       8.715   1.534  -1.810  0.00  0.00    +0.245 A 
ATOM     33  N3  UNL     1       7.876   0.842  -1.016  0.00  0.00    -0.154 NA
ENDBRANCH  26  29
ENDBRANCH  22  23
ENDBRANCH   1  22
TORSDOF 5
