REMARK  Name = /home/qwerty/github/datacon2025hack/step_04_hit_selection/docking/ligands/lig_72.pdb
REMARK  12 active torsions:
REMARK  status: ('A' for Active; 'I' for Inactive)
REMARK    1  A    between atoms: C1_1  and  O1_2
REMARK    2  A    between atoms: O1_2  and  C2_3
REMARK    3  A    between atoms: C6_7  and  C7_8
REMARK    4  A    between atoms: C12_16  and  C13_17
REMARK    5  A    between atoms: C13_17  and  N4_18
REMARK    6  A    between atoms: N4_18  and  C14_19
REMARK    7  A    between atoms: C15_20  and  O3_22
REMARK    8  A    between atoms: O3_22  and  C16_23
REMARK    9  A    between atoms: C16_23  and  C17_24
REMARK   10  A    between atoms: C16_23  and  C18_25
REMARK   11  A    between atoms: C16_23  and  C19_26
REMARK   12  A    between atoms: N5_28  and  C21_29
REMARK                            x       y       z     vdW  Elec       q    Type
REMARK                         _______ _______ _______ _____ _____    ______ ____
ROOT
ATOM      1  C7  UNL     1       3.792   0.613  -0.076  0.00  0.00    +0.165 A 
ATOM      2  N1  UNL     1       3.376   1.615   0.726  0.00  0.00    -0.128 NA
ATOM      3  N2  UNL     1       2.060   1.514   0.830  0.00  0.00    -0.113 NA
ATOM      4  C8  UNL     1       1.691   0.449   0.093  0.00  0.00    +0.220 A 
ATOM      5  N3  UNL     1       0.324   0.017  -0.035  0.00  0.00    -0.299 N 
ATOM      6  C9  UNL     1      -0.223  -0.335  -1.356  0.00  0.00    +0.108 C 
ATOM      7  C10 UNL     1      -1.749  -0.162  -1.399  0.00  0.00    +0.019 C 
ATOM      8  C11 UNL     1      -2.156   1.146  -0.710  0.00  0.00    +0.008 C 
ATOM      9  C12 UNL     1      -1.674   1.226   0.768  0.00  0.00    +0.024 C 
ATOM     10  C20 UNL     1      -0.595   0.169   1.098  0.00  0.00    +0.113 C 
ATOM     11  N5  UNL     1       2.754  -0.154  -0.483  0.00  0.00    -0.298 N 
ATOM     12  C21 UNL     1       2.784  -1.421  -1.211  0.00  0.00    +0.154 C 
ENDROOT
BRANCH   1  17
ATOM     13  C2  UNL     1       7.559   0.423   0.255  0.00  0.00    +0.121 A 
ATOM     14  C3  UNL     1       7.927   0.048  -1.051  0.00  0.00    +0.045 A 
ATOM     15  C4  UNL     1       6.950  -0.132  -2.033  0.00  0.00    +0.004 A 
ATOM     16  C5  UNL     1       5.600   0.050  -1.723  0.00  0.00    +0.012 A 
ATOM     17  C6  UNL     1       5.215   0.402  -0.420  0.00  0.00    +0.023 A 
ATOM     18  C22 UNL     1       6.203   0.606   0.557  0.00  0.00    +0.057 A 
BRANCH  13  20
ATOM     19  C1  UNL     1       9.905   0.451   1.116  0.00  0.00    +0.277 C 
ATOM     20  O1  UNL     1       8.501   0.620   1.275  0.00  0.00    -0.495 OA
ENDBRANCH  13  20
ENDBRANCH   1  17
BRANCH   9  21
ATOM     21  C13 UNL     1      -2.834   1.231   1.797  0.00  0.00    +0.115 C 
BRANCH  21  22
ATOM     22  N4  UNL     1      -3.389  -0.110   2.052  0.00  0.00    -0.270 N 
ATOM     23  C14 UNL     1      -2.978  -0.857   3.246  0.00  0.00    +0.135 C 
ATOM     24  C15 UNL     1      -4.421  -0.660   1.213  0.00  0.00    +0.403 C 
ATOM     25  O2  UNL     1      -4.709  -1.885   1.300  0.00  0.00    -0.226 OA
BRANCH  24  26
ATOM     26  O3  UNL     1      -5.117   0.174   0.325  0.00  0.00    -0.445 OA
BRANCH  26  27
ATOM     27  C16 UNL     1      -6.134  -0.229  -0.604  0.00  0.00    +0.107 C 
ATOM     28  C17 UNL     1      -5.579  -1.262  -1.603  0.00  0.00    +0.055 C 
ATOM     29  C18 UNL     1      -7.356  -0.797   0.143  0.00  0.00    +0.055 C 
ATOM     30  C19 UNL     1      -6.564   1.025  -1.379  0.00  0.00    +0.055 C 
ENDBRANCH  26  27
ENDBRANCH  24  26
ENDBRANCH  21  22
ENDBRANCH   9  21
TORSDOF 6
