MODEL 1
REMARK VINA RESULT:    -6.985      0.000      0.000
REMARK INTER + INTRA:          -9.765
REMARK INTER:                  -9.027
REMARK INTRA:                  -0.737
REMARK UNBOUND:                -0.737
REMARK  Name = /home/qwerty/github/datacon2025hack/step_04_hit_selection/docking/ligands/lig_82.pdb
REMARK  5 active torsions:
REMARK  status: ('A' for Active; 'I' for Inactive)
REMARK    1  A    between atoms: C1_2  and  C16_20
REMARK    2  A    between atoms: N1_3  and  C2_4
REMARK    3  A    between atoms: C2_4  and  C3_5
REMARK    4  A    between atoms: C6_8  and  N2_9
REMARK    5  A    between atoms: C7_10  and  C8_12
REMARK                            x       y       z     vdW  Elec       q    Type
REMARK                         _______ _______ _______ _____ _____    ______ ____
ROOT
ATOM      1  C3  UNL     1      19.626   2.131  31.711  0.00  0.00    +0.008 C 
ATOM      2  C4  UNL     1      20.589   1.383  32.623  0.00  0.00    +0.007 C 
ATOM      3  C5  UNL     1      20.736   2.275  33.841  0.00  0.00    +0.022 C 
ATOM      4  C6  UNL     1      20.575   3.713  33.331  0.00  0.00    +0.073 C 
ATOM      5  C15 UNL     1      19.936   3.612  31.938  0.00  0.00    +0.027 C 
ENDROOT
BRANCH   4   6
ATOM      6  N2  UNL     1      21.870   4.399  33.253  0.00  0.00    -0.312 N 
ATOM      7  C7  UNL     1      22.203   5.490  34.125  0.00  0.00    +0.216 C 
ATOM      8  O2  UNL     1      21.347   5.922  34.947  0.00  0.00    -0.276 OA
ATOM      9  H10 UNL     1      22.567   4.109  32.531  0.00  0.00    +0.149 HD
BRANCH   7  10
ATOM     10  C8  UNL     1      23.539   6.179  33.992  0.00  0.00    +0.076 C 
ATOM     11  C9  UNL     1      23.982   6.461  32.544  0.00  0.00    +0.019 C 
ATOM     12  C10 UNL     1      23.936   7.949  32.857  0.00  0.00    -0.028 C 
ATOM     13  C11 UNL     1      23.096   8.863  31.976  0.00  0.00    +0.007 C 
ATOM     14  C12 UNL     1      24.344   9.717  31.736  0.00  0.00    +0.001 C 
ATOM     15  C13 UNL     1      25.182   8.791  32.621  0.00  0.00    +0.007 C 
ATOM     16  C14 UNL     1      23.484   7.688  34.286  0.00  0.00    +0.019 C 
ENDBRANCH   7  10
ENDBRANCH   4   6
BRANCH   1  17
ATOM     17  C2  UNL     1      19.756   1.722  30.235  0.00  0.00    +0.108 C 
BRANCH  17  20
ATOM     18  O1  UNL     1      21.839   2.018  28.286  0.00  0.00    -0.270 OA
ATOM     19  C1  UNL     1      21.941   1.066  29.107  0.00  0.00    +0.247 C 
ATOM     20  N1  UNL     1      20.890   0.818  30.055  0.00  0.00    -0.311 N 
ATOM     21  H1  UNL     1      20.976   0.022  30.725  0.00  0.00    +0.149 HD
BRANCH  19  22
ATOM     22  C16 UNL     1      23.150   0.221  29.075  0.00  0.00    +0.074 A 
ATOM     23  C17 UNL     1      23.194  -1.153  28.919  0.00  0.00    +0.147 A 
ATOM     24  N3  UNL     1      24.480  -1.558  28.929  0.00  0.00    -0.182 NA
ATOM     25  N4  UNL     1      25.241  -0.487  29.086  0.00  0.00    -0.284 N 
ATOM     26  C18 UNL     1      24.470   0.611  29.178  0.00  0.00    +0.118 A 
ATOM     27  H25 UNL     1      26.284  -0.510  29.127  0.00  0.00    +0.188 HD
ENDBRANCH  19  22
ENDBRANCH  17  20
ENDBRANCH   1  17
TORSDOF 5
ENDMDL
MODEL 2
REMARK VINA RESULT:    -6.613      5.093      9.771
REMARK INTER + INTRA:          -9.283
REMARK INTER:                  -8.534
REMARK INTRA:                  -0.750
REMARK UNBOUND:                -0.737
REMARK  Name = /home/qwerty/github/datacon2025hack/step_04_hit_selection/docking/ligands/lig_82.pdb
REMARK  5 active torsions:
REMARK  status: ('A' for Active; 'I' for Inactive)
REMARK    1  A    between atoms: C1_2  and  C16_20
REMARK    2  A    between atoms: N1_3  and  C2_4
REMARK    3  A    between atoms: C2_4  and  C3_5
REMARK    4  A    between atoms: C6_8  and  N2_9
REMARK    5  A    between atoms: C7_10  and  C8_12
REMARK                            x       y       z     vdW  Elec       q    Type
REMARK                         _______ _______ _______ _____ _____    ______ ____
ROOT
ATOM      1  C3  UNL     1      20.651   3.457  26.979  0.00  0.00    +0.008 C 
ATOM      2  C4  UNL     1      21.616   2.786  26.010  0.00  0.00    +0.007 C 
ATOM      3  C5  UNL     1      20.826   2.635  24.725  0.00  0.00    +0.022 C 
ATOM      4  C6  UNL     1      19.364   2.445  25.149  0.00  0.00    +0.073 C 
ATOM      5  C15 UNL     1      19.274   2.900  26.613  0.00  0.00    +0.027 C 
ENDROOT
BRANCH   4   6
ATOM      6  N2  UNL     1      18.948   1.044  25.020  0.00  0.00    -0.312 N 
ATOM      7  C7  UNL     1      17.835   0.656  24.200  0.00  0.00    +0.216 C 
ATOM      8  O2  UNL     1      17.148   1.538  23.615  0.00  0.00    -0.276 OA
ATOM      9  H10 UNL     1      19.455   0.303  25.554  0.00  0.00    +0.149 HD
BRANCH   7  10
ATOM     10  C8  UNL     1      17.432  -0.796  24.117  0.00  0.00    +0.076 C 
ATOM     11  C9  UNL     1      17.140  -1.467  25.472  0.00  0.00    +0.019 C 
ATOM     12  C10 UNL     1      15.703  -1.677  25.019  0.00  0.00    -0.028 C 
ATOM     13  C11 UNL     1      14.570  -1.153  25.891  0.00  0.00    +0.007 C 
ATOM     14  C12 UNL     1      13.979  -2.565  25.906  0.00  0.00    +0.001 C 
ATOM     15  C13 UNL     1      15.124  -3.084  25.033  0.00  0.00    +0.007 C 
ATOM     16  C14 UNL     1      15.971  -1.004  23.681  0.00  0.00    +0.019 C 
ENDBRANCH   7  10
ENDBRANCH   4   6
BRANCH   1  17
ATOM     17  C2  UNL     1      21.013   3.212  28.453  0.00  0.00    +0.108 C 
BRANCH  17  20
ATOM     18  O1  UNL     1      20.885   0.643  29.719  0.00  0.00    -0.270 OA
ATOM     19  C1  UNL     1      21.960   0.952  29.138  0.00  0.00    +0.247 C 
ATOM     20  N1  UNL     1      22.113   2.257  28.556  0.00  0.00    -0.311 N 
ATOM     21  H1  UNL     1      23.010   2.510  28.085  0.00  0.00    +0.149 HD
BRANCH  19  22
ATOM     22  C16 UNL     1      23.048  -0.042  29.069  0.00  0.00    +0.074 A 
ATOM     23  C17 UNL     1      24.400   0.199  29.235  0.00  0.00    +0.147 A 
ATOM     24  N3  UNL     1      25.075  -0.961  29.113  0.00  0.00    -0.182 NA
ATOM     25  N4  UNL     1      24.193  -1.919  28.877  0.00  0.00    -0.284 N 
ATOM     26  C18 UNL     1      22.953  -1.401  28.844  0.00  0.00    +0.118 A 
ATOM     27  H25 UNL     1      24.442  -2.925  28.742  0.00  0.00    +0.188 HD
ENDBRANCH  19  22
ENDBRANCH  17  20
ENDBRANCH   1  17
TORSDOF 5
ENDMDL
MODEL 3
REMARK VINA RESULT:    -6.415     14.537     16.735
REMARK INTER + INTRA:          -9.028
REMARK INTER:                  -8.150
REMARK INTRA:                  -0.878
REMARK UNBOUND:                -0.737
REMARK  Name = /home/qwerty/github/datacon2025hack/step_04_hit_selection/docking/ligands/lig_82.pdb
REMARK  5 active torsions:
REMARK  status: ('A' for Active; 'I' for Inactive)
REMARK    1  A    between atoms: C1_2  and  C16_20
REMARK    2  A    between atoms: N1_3  and  C2_4
REMARK    3  A    between atoms: C2_4  and  C3_5
REMARK    4  A    between atoms: C6_8  and  N2_9
REMARK    5  A    between atoms: C7_10  and  C8_12
REMARK                            x       y       z     vdW  Elec       q    Type
REMARK                         _______ _______ _______ _____ _____    ______ ____
ROOT
ATOM      1  C3  UNL     1      11.874  12.957  27.457  0.00  0.00    +0.008 C 
ATOM      2  C4  UNL     1      11.567  14.435  27.259  0.00  0.00    +0.007 C 
ATOM      3  C5  UNL     1      12.666  15.159  28.012  0.00  0.00    +0.022 C 
ATOM      4  C6  UNL     1      13.042  14.248  29.188  0.00  0.00    +0.073 C 
ATOM      5  C15 UNL     1      12.468  12.861  28.863  0.00  0.00    +0.027 C 
ENDROOT
BRANCH   4   6
ATOM      6  N2  UNL     1      12.489  14.749  30.451  0.00  0.00    -0.312 N 
ATOM      7  C7  UNL     1      13.097  14.451  31.716  0.00  0.00    +0.216 C 
ATOM      8  O2  UNL     1      14.102  13.688  31.766  0.00  0.00    -0.276 OA
ATOM      9  H10 UNL     1      11.614  15.322  30.441  0.00  0.00    +0.149 HD
BRANCH   7  10
ATOM     10  C8  UNL     1      12.478  14.972  32.990  0.00  0.00    +0.076 C 
ATOM     11  C9  UNL     1      11.062  14.444  33.286  0.00  0.00    +0.019 C 
ATOM     12  C10 UNL     1      11.608  13.786  34.545  0.00  0.00    -0.028 C 
ATOM     13  C11 UNL     1      11.389  12.294  34.753  0.00  0.00    +0.007 C 
ATOM     14  C12 UNL     1      10.746  12.615  36.105  0.00  0.00    +0.001 C 
ATOM     15  C13 UNL     1      10.968  14.114  35.886  0.00  0.00    +0.007 C 
ATOM     16  C14 UNL     1      13.016  14.288  34.259  0.00  0.00    +0.019 C 
ENDBRANCH   7  10
ENDBRANCH   4   6
BRANCH   1  17
ATOM     17  C2  UNL     1      10.641  12.057  27.275  0.00  0.00    +0.108 C 
BRANCH  17  20
ATOM     18  O1  UNL     1       9.058  12.359  29.647  0.00  0.00    -0.270 OA
ATOM     19  C1  UNL     1       8.710  13.015  28.628  0.00  0.00    +0.247 C 
ATOM     20  N1  UNL     1       9.415  12.845  27.388  0.00  0.00    -0.311 N 
ATOM     21  H1  UNL     1       9.116  13.384  26.545  0.00  0.00    +0.149 HD
BRANCH  19  22
ATOM     22  C16 UNL     1       7.576  13.954  28.734  0.00  0.00    +0.074 A 
ATOM     23  C17 UNL     1       6.975  14.644  27.696  0.00  0.00    +0.147 A 
ATOM     24  N3  UNL     1       5.967  15.391  28.187  0.00  0.00    -0.182 NA
ATOM     25  N4  UNL     1       5.916  15.193  29.495  0.00  0.00    -0.284 N 
ATOM     26  C18 UNL     1       6.876  14.327  29.863  0.00  0.00    +0.118 A 
ATOM     27  H25 UNL     1       5.223  15.648  30.130  0.00  0.00    +0.188 HD
ENDBRANCH  19  22
ENDBRANCH  17  20
ENDBRANCH   1  17
TORSDOF 5
ENDMDL
MODEL 4
REMARK VINA RESULT:    -6.217     15.229     16.442
REMARK INTER + INTRA:          -8.772
REMARK INTER:                  -8.232
REMARK INTRA:                  -0.539
REMARK UNBOUND:                -0.737
REMARK  Name = /home/qwerty/github/datacon2025hack/step_04_hit_selection/docking/ligands/lig_82.pdb
REMARK  5 active torsions:
REMARK  status: ('A' for Active; 'I' for Inactive)
REMARK    1  A    between atoms: C1_2  and  C16_20
REMARK    2  A    between atoms: N1_3  and  C2_4
REMARK    3  A    between atoms: C2_4  and  C3_5
REMARK    4  A    between atoms: C6_8  and  N2_9
REMARK    5  A    between atoms: C7_10  and  C8_12
REMARK                            x       y       z     vdW  Elec       q    Type
REMARK                         _______ _______ _______ _____ _____    ______ ____
ROOT
ATOM      1  C3  UNL     1       8.517   8.596  24.794  0.00  0.00    +0.008 C 
ATOM      2  C4  UNL     1       9.363   8.177  25.989  0.00  0.00    +0.007 C 
ATOM      3  C5  UNL     1       8.619   8.716  27.195  0.00  0.00    +0.022 C 
ATOM      4  C6  UNL     1       7.920   9.996  26.720  0.00  0.00    +0.073 C 
ATOM      5  C15 UNL     1       7.926   9.951  25.185  0.00  0.00    +0.027 C 
ENDROOT
BRANCH   4   6
ATOM      6  N2  UNL     1       8.617  11.194  27.201  0.00  0.00    -0.312 N 
ATOM      7  C7  UNL     1       8.417  11.707  28.527  0.00  0.00    +0.216 C 
ATOM      8  O2  UNL     1       7.576  11.159  29.292  0.00  0.00    -0.276 OA
ATOM      9  H10 UNL     1       9.263  11.709  26.561  0.00  0.00    +0.149 HD
BRANCH   7  10
ATOM     10  C8  UNL     1       9.140  12.956  28.968  0.00  0.00    +0.076 C 
ATOM     11  C9  UNL     1      10.623  12.754  29.329  0.00  0.00    +0.019 C 
ATOM     12  C10 UNL     1      10.992  13.684  28.183  0.00  0.00    -0.028 C 
ATOM     13  C11 UNL     1      11.966  13.196  27.119  0.00  0.00    +0.007 C 
ATOM     14  C12 UNL     1      12.834  14.425  27.403  0.00  0.00    +0.001 C 
ATOM     15  C13 UNL     1      11.851  14.906  28.473  0.00  0.00    +0.007 C 
ATOM     16  C14 UNL     1       9.531  13.883  27.805  0.00  0.00    +0.019 C 
ENDBRANCH   7  10
ENDBRANCH   4   6
BRANCH   1  17
ATOM     17  C2  UNL     1       9.318   8.658  23.483  0.00  0.00    +0.108 C 
BRANCH  17  20
ATOM     18  O1  UNL     1       9.015   5.839  23.057  0.00  0.00    -0.270 OA
ATOM     19  C1  UNL     1       8.390   6.615  22.284  0.00  0.00    +0.247 C 
ATOM     20  N1  UNL     1       8.565   8.036  22.396  0.00  0.00    -0.311 N 
ATOM     21  H1  UNL     1       8.052   8.673  21.746  0.00  0.00    +0.149 HD
BRANCH  19  22
ATOM     22  C16 UNL     1       7.483   6.039  21.272  0.00  0.00    +0.074 A 
ATOM     23  C17 UNL     1       6.293   6.584  20.823  0.00  0.00    +0.147 A 
ATOM     24  N3  UNL     1       5.759   5.772  19.889  0.00  0.00    -0.182 NA
ATOM     25  N4  UNL     1       6.573   4.739  19.738  0.00  0.00    -0.284 N 
ATOM     26  C18 UNL     1       7.630   4.866  20.559  0.00  0.00    +0.118 A 
ATOM     27  H25 UNL     1       6.404   3.953  19.072  0.00  0.00    +0.188 HD
ENDBRANCH  19  22
ENDBRANCH  17  20
ENDBRANCH   1  17
TORSDOF 5
ENDMDL
MODEL 5
REMARK VINA RESULT:    -6.213     14.528     16.179
REMARK INTER + INTRA:          -8.767
REMARK INTER:                  -8.080
REMARK INTRA:                  -0.687
REMARK UNBOUND:                -0.737
REMARK  Name = /home/qwerty/github/datacon2025hack/step_04_hit_selection/docking/ligands/lig_82.pdb
REMARK  5 active torsions:
REMARK  status: ('A' for Active; 'I' for Inactive)
REMARK    1  A    between atoms: C1_2  and  C16_20
REMARK    2  A    between atoms: N1_3  and  C2_4
REMARK    3  A    between atoms: C2_4  and  C3_5
REMARK    4  A    between atoms: C6_8  and  N2_9
REMARK    5  A    between atoms: C7_10  and  C8_12
REMARK                            x       y       z     vdW  Elec       q    Type
REMARK                         _______ _______ _______ _____ _____    ______ ____
ROOT
ATOM      1  C3  UNL     1       9.135   4.659  20.723  0.00  0.00    +0.008 C 
ATOM      2  C4  UNL     1       7.670   4.764  21.125  0.00  0.00    +0.007 C 
ATOM      3  C5  UNL     1       7.237   6.135  20.643  0.00  0.00    +0.022 C 
ATOM      4  C6  UNL     1       8.483   7.026  20.734  0.00  0.00    +0.073 C 
ATOM      5  C15 UNL     1       9.686   6.079  20.861  0.00  0.00    +0.027 C 
ENDROOT
BRANCH   4   6
ATOM      6  N2  UNL     1       8.413   7.926  21.890  0.00  0.00    -0.312 N 
ATOM      7  C7  UNL     1       8.695   9.329  21.776  0.00  0.00    +0.216 C 
ATOM      8  O2  UNL     1       9.073   9.807  20.671  0.00  0.00    -0.276 OA
ATOM      9  H10 UNL     1       8.175   7.541  22.832  0.00  0.00    +0.149 HD
BRANCH   7  10
ATOM     10  C8  UNL     1       8.631  10.211  23.000  0.00  0.00    +0.076 C 
ATOM     11  C9  UNL     1       7.381  10.015  23.876  0.00  0.00    +0.019 C 
ATOM     12  C10 UNL     1       8.288   9.557  25.008  0.00  0.00    -0.028 C 
ATOM     13  C11 UNL     1       8.030   8.207  25.662  0.00  0.00    +0.007 C 
ATOM     14  C12 UNL     1       7.956   8.918  27.015  0.00  0.00    +0.001 C 
ATOM     15  C13 UNL     1       8.213  10.272  26.349  0.00  0.00    +0.007 C 
ATOM     16  C14 UNL     1       9.533   9.732  24.150  0.00  0.00    +0.019 C 
ENDBRANCH   7  10
ENDBRANCH   4   6
BRANCH   1  17
ATOM     17  C2  UNL     1       9.917   3.639  21.567  0.00  0.00    +0.108 C 
BRANCH  17  20
ATOM     18  O1  UNL     1      12.658   4.117  22.262  0.00  0.00    -0.270 OA
ATOM     19  C1  UNL     1      12.430   3.366  21.275  0.00  0.00    +0.247 C 
ATOM     20  N1  UNL     1      11.081   3.153  20.829  0.00  0.00    -0.311 N 
ATOM     21  H1  UNL     1      10.900   2.538  20.004  0.00  0.00    +0.149 HD
BRANCH  19  22
ATOM     22  C16 UNL     1      13.566   2.715  20.594  0.00  0.00    +0.074 A 
ATOM     23  C17 UNL     1      13.862   1.364  20.589  0.00  0.00    +0.147 A 
ATOM     24  N3  UNL     1      14.969   1.156  19.847  0.00  0.00    -0.182 NA
ATOM     25  N4  UNL     1      15.375   2.329  19.389  0.00  0.00    -0.284 N 
ATOM     26  C18 UNL     1      14.549   3.299  19.820  0.00  0.00    +0.118 A 
ATOM     27  H25 UNL     1      16.213   2.463  18.781  0.00  0.00    +0.188 HD
ENDBRANCH  19  22
ENDBRANCH  17  20
ENDBRANCH   1  17
TORSDOF 5
ENDMDL
MODEL 6
REMARK VINA RESULT:    -6.150     12.901     15.749
REMARK INTER + INTRA:          -8.685
REMARK INTER:                  -7.986
REMARK INTRA:                  -0.699
REMARK UNBOUND:                -0.737
REMARK  Name = /home/qwerty/github/datacon2025hack/step_04_hit_selection/docking/ligands/lig_82.pdb
REMARK  5 active torsions:
REMARK  status: ('A' for Active; 'I' for Inactive)
REMARK    1  A    between atoms: C1_2  and  C16_20
REMARK    2  A    between atoms: N1_3  and  C2_4
REMARK    3  A    between atoms: C2_4  and  C3_5
REMARK    4  A    between atoms: C6_8  and  N2_9
REMARK    5  A    between atoms: C7_10  and  C8_12
REMARK                            x       y       z     vdW  Elec       q    Type
REMARK                         _______ _______ _______ _____ _____    ______ ____
ROOT
ATOM      1  C3  UNL     1      12.932  14.335  33.295  0.00  0.00    +0.008 C 
ATOM      2  C4  UNL     1      13.594  13.144  32.615  0.00  0.00    +0.007 C 
ATOM      3  C5  UNL     1      13.810  13.591  31.183  0.00  0.00    +0.022 C 
ATOM      4  C6  UNL     1      12.661  14.557  30.865  0.00  0.00    +0.073 C 
ATOM      5  C15 UNL     1      12.056  14.970  32.215  0.00  0.00    +0.027 C 
ENDROOT
BRANCH   4   6
ATOM      6  N2  UNL     1      11.646  13.919  30.020  0.00  0.00    -0.312 N 
ATOM      7  C7  UNL     1      11.396  14.356  28.675  0.00  0.00    +0.216 C 
ATOM      8  O2  UNL     1      12.017  15.353  28.213  0.00  0.00    -0.276 OA
ATOM      9  H10 UNL     1      11.067  13.140  30.405  0.00  0.00    +0.149 HD
BRANCH   7  10
ATOM     10  C8  UNL     1      10.325  13.683  27.852  0.00  0.00    +0.076 C 
ATOM     11  C9  UNL     1      10.483  12.159  27.703  0.00  0.00    +0.019 C 
ATOM     12  C10 UNL     1       9.164  11.984  28.441  0.00  0.00    -0.028 C 
ATOM     13  C11 UNL     1       9.121  11.098  29.677  0.00  0.00    +0.007 C 
ATOM     14  C12 UNL     1       7.995  10.297  29.018  0.00  0.00    +0.001 C 
ATOM     15  C13 UNL     1       8.048  11.192  27.777  0.00  0.00    +0.007 C 
ATOM     16  C14 UNL     1       9.000  13.488  28.609  0.00  0.00    +0.019 C 
ENDBRANCH   7  10
ENDBRANCH   4   6
BRANCH   1  17
ATOM     17  C2  UNL     1      12.133  13.943  34.549  0.00  0.00    +0.108 C 
BRANCH  17  20
ATOM     18  O1  UNL     1      10.832  12.491  36.651  0.00  0.00    -0.270 OA
ATOM     19  C1  UNL     1      11.607  11.847  35.892  0.00  0.00    +0.247 C 
ATOM     20  N1  UNL     1      12.349  12.535  34.871  0.00  0.00    -0.311 N 
ATOM     21  H1  UNL     1      12.997  11.998  34.252  0.00  0.00    +0.149 HD
BRANCH  19  22
ATOM     22  C16 UNL     1      11.735  10.388  36.070  0.00  0.00    +0.074 A 
ATOM     23  C17 UNL     1      12.640   9.554  35.437  0.00  0.00    +0.147 A 
ATOM     24  N3  UNL     1      12.456   8.291  35.870  0.00  0.00    -0.182 NA
ATOM     25  N4  UNL     1      11.467   8.306  36.751  0.00  0.00    -0.284 N 
ATOM     26  C18 UNL     1      11.005   9.559  36.899  0.00  0.00    +0.118 A 
ATOM     27  H25 UNL     1      11.114   7.459  37.249  0.00  0.00    +0.188 HD
ENDBRANCH  19  22
ENDBRANCH  17  20
ENDBRANCH   1  17
TORSDOF 5
ENDMDL
MODEL 7
REMARK VINA RESULT:    -6.123      4.610      9.948
REMARK INTER + INTRA:          -8.650
REMARK INTER:                  -8.019
REMARK INTRA:                  -0.632
REMARK UNBOUND:                -0.737
REMARK  Name = /home/qwerty/github/datacon2025hack/step_04_hit_selection/docking/ligands/lig_82.pdb
REMARK  5 active torsions:
REMARK  status: ('A' for Active; 'I' for Inactive)
REMARK    1  A    between atoms: C1_2  and  C16_20
REMARK    2  A    between atoms: N1_3  and  C2_4
REMARK    3  A    between atoms: C2_4  and  C3_5
REMARK    4  A    between atoms: C6_8  and  N2_9
REMARK    5  A    between atoms: C7_10  and  C8_12
REMARK                            x       y       z     vdW  Elec       q    Type
REMARK                         _______ _______ _______ _____ _____    ______ ____
ROOT
ATOM      1  C3  UNL     1      21.855   7.726  36.361  0.00  0.00    +0.008 C 
ATOM      2  C4  UNL     1      23.142   7.052  36.817  0.00  0.00    +0.007 C 
ATOM      3  C5  UNL     1      23.783   6.545  35.541  0.00  0.00    +0.022 C 
ATOM      4  C6  UNL     1      22.625   6.207  34.593  0.00  0.00    +0.073 C 
ATOM      5  C15 UNL     1      21.380   6.902  35.163  0.00  0.00    +0.027 C 
ENDROOT
BRANCH   4   6
ATOM      6  N2  UNL     1      22.411   4.758  34.507  0.00  0.00    -0.312 N 
ATOM      7  C7  UNL     1      21.957   4.129  33.299  0.00  0.00    +0.216 C 
ATOM      8  O2  UNL     1      21.672   4.834  32.292  0.00  0.00    -0.276 OA
ATOM      9  H10 UNL     1      22.570   4.161  35.350  0.00  0.00    +0.149 HD
BRANCH   7  10
ATOM     10  C8  UNL     1      21.730   2.637  33.267  0.00  0.00    +0.076 C 
ATOM     11  C9  UNL     1      20.384   2.173  33.854  0.00  0.00    +0.019 C 
ATOM     12  C10 UNL     1      20.008   1.641  32.478  0.00  0.00    -0.028 C 
ATOM     13  C11 UNL     1      18.707   2.105  31.838  0.00  0.00    +0.007 C 
ATOM     14  C12 UNL     1      18.301   0.637  31.689  0.00  0.00    +0.001 C 
ATOM     15  C13 UNL     1      19.611   0.180  32.336  0.00  0.00    +0.007 C 
ATOM     16  C14 UNL     1      21.328   2.107  31.880  0.00  0.00    +0.019 C 
ENDBRANCH   7  10
ENDBRANCH   4   6
BRANCH   1  17
ATOM     17  C2  UNL     1      20.796   7.815  37.472  0.00  0.00    +0.108 C 
BRANCH  17  20
ATOM     18  O1  UNL     1      18.409   8.467  36.023  0.00  0.00    -0.270 OA
ATOM     19  C1  UNL     1      18.904   9.362  36.762  0.00  0.00    +0.247 C 
ATOM     20  N1  UNL     1      20.143   9.122  37.449  0.00  0.00    -0.311 N 
ATOM     21  H1  UNL     1      20.553   9.870  38.052  0.00  0.00    +0.149 HD
BRANCH  19  22
ATOM     22  C16 UNL     1      18.192  10.647  36.905  0.00  0.00    +0.074 A 
ATOM     23  C17 UNL     1      16.895  10.827  37.350  0.00  0.00    +0.147 A 
ATOM     24  N3  UNL     1      16.608  12.144  37.354  0.00  0.00    -0.182 NA
ATOM     25  N4  UNL     1      17.680  12.793  36.928  0.00  0.00    -0.284 N 
ATOM     26  C18 UNL     1      18.661  11.919  36.646  0.00  0.00    +0.118 A 
ATOM     27  H25 UNL     1      17.737  13.831  36.833  0.00  0.00    +0.188 HD
ENDBRANCH  19  22
ENDBRANCH  17  20
ENDBRANCH   1  17
TORSDOF 5
ENDMDL
MODEL 8
REMARK VINA RESULT:    -6.081      4.919      9.838
REMARK INTER + INTRA:          -8.595
REMARK INTER:                  -7.924
REMARK INTRA:                  -0.672
REMARK UNBOUND:                -0.737
REMARK  Name = /home/qwerty/github/datacon2025hack/step_04_hit_selection/docking/ligands/lig_82.pdb
REMARK  5 active torsions:
REMARK  status: ('A' for Active; 'I' for Inactive)
REMARK    1  A    between atoms: C1_2  and  C16_20
REMARK    2  A    between atoms: N1_3  and  C2_4
REMARK    3  A    between atoms: C2_4  and  C3_5
REMARK    4  A    between atoms: C6_8  and  N2_9
REMARK    5  A    between atoms: C7_10  and  C8_12
REMARK                            x       y       z     vdW  Elec       q    Type
REMARK                         _______ _______ _______ _____ _____    ______ ____
ROOT
ATOM      1  C3  UNL     1      21.840   2.985  27.036  0.00  0.00    +0.008 C 
ATOM      2  C4  UNL     1      22.412   2.855  25.631  0.00  0.00    +0.007 C 
ATOM      3  C5  UNL     1      21.243   3.149  24.712  0.00  0.00    +0.022 C 
ATOM      4  C6  UNL     1      19.991   2.663  25.454  0.00  0.00    +0.073 C 
ATOM      5  C15 UNL     1      20.399   2.487  26.924  0.00  0.00    +0.027 C 
ENDROOT
BRANCH   4   6
ATOM      6  N2  UNL     1      19.502   1.395  24.902  0.00  0.00    -0.312 N 
ATOM      7  C7  UNL     1      18.100   1.097  24.813  0.00  0.00    +0.216 C 
ATOM      8  O2  UNL     1      17.254   1.913  25.273  0.00  0.00    -0.276 OA
ATOM      9  H10 UNL     1      20.185   0.672  24.582  0.00  0.00    +0.149 HD
BRANCH   7  10
ATOM     10  C8  UNL     1      17.646  -0.230  24.257  0.00  0.00    +0.076 C 
ATOM     11  C9  UNL     1      17.527  -1.362  25.295  0.00  0.00    +0.019 C 
ATOM     12  C10 UNL     1      16.035  -1.424  25.003  0.00  0.00    -0.028 C 
ATOM     13  C11 UNL     1      15.050  -1.288  26.156  0.00  0.00    +0.007 C 
ATOM     14  C12 UNL     1      14.426  -2.620  25.732  0.00  0.00    +0.001 C 
ATOM     15  C13 UNL     1      15.422  -2.750  24.577  0.00  0.00    +0.007 C 
ATOM     16  C14 UNL     1      16.134  -0.298  23.984  0.00  0.00    +0.019 C 
ENDBRANCH   7  10
ENDBRANCH   4   6
BRANCH   1  17
ATOM     17  C2  UNL     1      22.651   2.212  28.089  0.00  0.00    +0.108 C 
BRANCH  17  20
ATOM     18  O1  UNL     1      21.657   0.072  29.718  0.00  0.00    -0.270 OA
ATOM     19  C1  UNL     1      21.633   1.235  30.206  0.00  0.00    +0.247 C 
ATOM     20  N1  UNL     1      22.043   2.358  29.409  0.00  0.00    -0.311 N 
ATOM     21  H1  UNL     1      22.011   3.319  29.816  0.00  0.00    +0.149 HD
BRANCH  19  22
ATOM     22  C16 UNL     1      21.182   1.417  31.599  0.00  0.00    +0.074 A 
ATOM     23  C17 UNL     1      21.440   2.503  32.416  0.00  0.00    +0.147 A 
ATOM     24  N3  UNL     1      20.849   2.308  33.612  0.00  0.00    -0.182 NA
ATOM     25  N4  UNL     1      20.231   1.139  33.572  0.00  0.00    -0.284 N 
ATOM     26  C18 UNL     1      20.410   0.569  32.367  0.00  0.00    +0.118 A 
ATOM     27  H25 UNL     1      19.687   0.736  34.367  0.00  0.00    +0.188 HD
ENDBRANCH  19  22
ENDBRANCH  17  20
ENDBRANCH   1  17
TORSDOF 5
ENDMDL
MODEL 9
REMARK VINA RESULT:    -5.984      2.829      7.346
REMARK INTER + INTRA:          -8.470
REMARK INTER:                  -7.672
REMARK INTRA:                  -0.798
REMARK UNBOUND:                -0.737
REMARK  Name = /home/qwerty/github/datacon2025hack/step_04_hit_selection/docking/ligands/lig_82.pdb
REMARK  5 active torsions:
REMARK  status: ('A' for Active; 'I' for Inactive)
REMARK    1  A    between atoms: C1_2  and  C16_20
REMARK    2  A    between atoms: N1_3  and  C2_4
REMARK    3  A    between atoms: C2_4  and  C3_5
REMARK    4  A    between atoms: C6_8  and  N2_9
REMARK    5  A    between atoms: C7_10  and  C8_12
REMARK                            x       y       z     vdW  Elec       q    Type
REMARK                         _______ _______ _______ _____ _____    ______ ____
ROOT
ATOM      1  C3  UNL     1      21.399   4.191  33.562  0.00  0.00    +0.008 C 
ATOM      2  C4  UNL     1      20.392   4.897  32.663  0.00  0.00    +0.007 C 
ATOM      3  C5  UNL     1      19.632   3.774  31.985  0.00  0.00    +0.022 C 
ATOM      4  C6  UNL     1      20.627   2.615  31.846  0.00  0.00    +0.073 C 
ATOM      5  C15 UNL     1      21.790   2.924  32.800  0.00  0.00    +0.027 C 
ENDROOT
BRANCH   4   6
ATOM      6  N2  UNL     1      21.113   2.490  30.467  0.00  0.00    -0.312 N 
ATOM      7  C7  UNL     1      21.202   1.218  29.808  0.00  0.00    +0.216 C 
ATOM      8  O2  UNL     1      20.916   0.162  30.437  0.00  0.00    -0.276 OA
ATOM      9  H10 UNL     1      21.426   3.342  29.950  0.00  0.00    +0.149 HD
BRANCH   7  10
ATOM     10  C8  UNL     1      21.730   1.138  28.396  0.00  0.00    +0.076 C 
ATOM     11  C9  UNL     1      20.877   1.870  27.343  0.00  0.00    +0.019 C 
ATOM     12  C10 UNL     1      22.059   2.791  27.078  0.00  0.00    -0.028 C 
ATOM     13  C11 UNL     1      21.860   4.297  27.184  0.00  0.00    +0.007 C 
ATOM     14  C12 UNL     1      22.399   4.431  25.757  0.00  0.00    +0.001 C 
ATOM     15  C13 UNL     1      22.593   2.916  25.659  0.00  0.00    +0.007 C 
ATOM     16  C14 UNL     1      22.909   2.087  28.125  0.00  0.00    +0.019 C 
ENDBRANCH   7  10
ENDBRANCH   4   6
BRANCH   1  17
ATOM     17  C2  UNL     1      22.613   5.069  33.909  0.00  0.00    +0.108 C 
BRANCH  17  20
ATOM     18  O1  UNL     1      24.788   6.923  33.676  0.00  0.00    -0.270 OA
ATOM     19  C1  UNL     1      23.770   7.127  32.960  0.00  0.00    +0.247 C 
ATOM     20  N1  UNL     1      22.617   6.280  33.091  0.00  0.00    -0.311 N 
ATOM     21  H1  UNL     1      21.773   6.460  32.502  0.00  0.00    +0.149 HD
BRANCH  19  22
ATOM     22  C16 UNL     1      23.786   8.243  31.994  0.00  0.00    +0.074 A 
ATOM     23  C17 UNL     1      24.525   9.408  32.090  0.00  0.00    +0.147 A 
ATOM     24  N3  UNL     1      24.283  10.176  31.009  0.00  0.00    -0.182 NA
ATOM     25  N4  UNL     1      23.419   9.532  30.241  0.00  0.00    -0.284 N 
ATOM     26  C18 UNL     1      23.095   8.355  30.804  0.00  0.00    +0.118 A 
ATOM     27  H25 UNL     1      23.056   9.898  29.332  0.00  0.00    +0.188 HD
ENDBRANCH  19  22
ENDBRANCH  17  20
ENDBRANCH   1  17
TORSDOF 5
ENDMDL
