MODEL 1
REMARK VINA RESULT:    -6.664      0.000      0.000
REMARK INTER + INTRA:          -9.623
REMARK INTER:                  -8.612
REMARK INTRA:                  -1.011
REMARK UNBOUND:                -1.011
REMARK  Name = /home/qwerty/github/datacon2025hack/step_04_hit_selection/docking/ligands/lig_237.pdb
REMARK  7 active torsions:
REMARK  status: ('A' for Active; 'I' for Inactive)
REMARK    1  A    between atoms: C1_1  and  O1_2
REMARK    2  A    between atoms: O1_2  and  C2_3
REMARK    3  A    between atoms: C2_3  and  C3_5
REMARK    4  A    between atoms: C5_7  and  O3_8
REMARK    5  A    between atoms: O3_8  and  C6_9
REMARK    6  A    between atoms: C9_12  and  N1_13
REMARK    7  A    between atoms: C10_14  and  C11_16
REMARK                            x       y       z     vdW  Elec       q    Type
REMARK                         _______ _______ _______ _____ _____    ______ ____
ROOT
ATOM      1  N1  UNL     1      17.981   9.922  35.961  0.00  0.00    -0.281 N 
ATOM      2  C10 UNL     1      18.826   9.522  37.054  0.00  0.00    +0.248 C 
ATOM      3  O4  UNL     1      18.585   9.940  38.219  0.00  0.00    -0.270 OA
ATOM      4  H10 UNL     1      18.200   9.602  34.992  0.00  0.00    +0.155 HD
ENDROOT
BRANCH   2   5
ATOM      5  C11 UNL     1      19.982   8.620  36.838  0.00  0.00    +0.038 A 
ATOM      6  C12 UNL     1      20.251   7.544  37.728  0.00  0.00    +0.015 A 
ATOM      7  C13 UNL     1      21.352   6.692  37.521  0.00  0.00    +0.027 A 
ATOM      8  C14 UNL     1      22.172   6.940  36.425  0.00  0.00    +0.047 A 
ATOM      9  N2  UNL     1      23.261   6.241  36.047  0.00  0.00    -0.358 N 
ATOM     10  C15 UNL     1      23.704   6.852  34.925  0.00  0.00    +0.020 A 
ATOM     11  C16 UNL     1      22.923   7.952  34.615  0.00  0.00    -0.019 A 
ATOM     12  C17 UNL     1      21.931   7.987  35.571  0.00  0.00    +0.004 A 
ATOM     13  C18 UNL     1      20.849   8.847  35.743  0.00  0.00    +0.023 A 
ATOM     14  C19 UNL     1      23.104   8.801  33.393  0.00  0.00    +0.037 C 
ATOM     15  C20 UNL     1      24.518   8.607  32.813  0.00  0.00    +0.005 C 
ATOM     16  C21 UNL     1      24.914   7.116  32.754  0.00  0.00    +0.006 C 
ATOM     17  C22 UNL     1      24.934   6.474  34.156  0.00  0.00    +0.053 C 
ATOM     18  H13 UNL     1      23.674   5.405  36.518  0.00  0.00    +0.166 HD
ENDBRANCH   2   5
BRANCH   1  24
ATOM     19  C3  UNL     1      16.941  12.179  35.978  0.00  0.00    +0.084 A 
ATOM     20  C4  UNL     1      15.818  12.981  36.253  0.00  0.00    +0.062 A 
ATOM     21  C5  UNL     1      14.605  12.417  36.662  0.00  0.00    +0.121 A 
ATOM     22  C7  UNL     1      14.511  11.024  36.808  0.00  0.00    +0.047 A 
ATOM     23  C8  UNL     1      15.617  10.214  36.551  0.00  0.00    +0.028 A 
ATOM     24  C9  UNL     1      16.835  10.773  36.132  0.00  0.00    +0.048 A 
BRANCH  19  25
ATOM     25  C2  UNL     1      18.186  12.834  35.504  0.00  0.00    +0.341 C 
ATOM     26  O2  UNL     1      18.172  13.580  34.487  0.00  0.00    -0.245 OA
BRANCH  25  28
ATOM     27  C1  UNL     1      20.642  12.525  35.572  0.00  0.00    +0.280 C 
ATOM     28  O1  UNL     1      19.378  12.647  36.214  0.00  0.00    -0.464 OA
ENDBRANCH  25  28
ENDBRANCH  19  25
BRANCH  21  29
ATOM     29  O3  UNL     1      13.523  13.274  36.911  0.00  0.00    -0.495 OA
ATOM     30  C6  UNL     1      12.708  13.855  35.899  0.00  0.00    +0.277 C 
ENDBRANCH  21  29
ENDBRANCH   1  24
TORSDOF 5
ENDMDL
MODEL 2
REMARK VINA RESULT:    -6.460      8.613     11.139
REMARK INTER + INTRA:          -9.359
REMARK INTER:                  -8.501
REMARK INTRA:                  -0.859
REMARK UNBOUND:                -1.011
REMARK  Name = /home/qwerty/github/datacon2025hack/step_04_hit_selection/docking/ligands/lig_237.pdb
REMARK  7 active torsions:
REMARK  status: ('A' for Active; 'I' for Inactive)
REMARK    1  A    between atoms: C1_1  and  O1_2
REMARK    2  A    between atoms: O1_2  and  C2_3
REMARK    3  A    between atoms: C2_3  and  C3_5
REMARK    4  A    between atoms: C5_7  and  O3_8
REMARK    5  A    between atoms: O3_8  and  C6_9
REMARK    6  A    between atoms: C9_12  and  N1_13
REMARK    7  A    between atoms: C10_14  and  C11_16
REMARK                            x       y       z     vdW  Elec       q    Type
REMARK                         _______ _______ _______ _____ _____    ______ ____
ROOT
ATOM      1  N1  UNL     1      20.257   2.608  29.006  0.00  0.00    -0.281 N 
ATOM      2  C10 UNL     1      20.748   1.967  30.197  0.00  0.00    +0.248 C 
ATOM      3  O4  UNL     1      20.783   0.708  30.262  0.00  0.00    -0.270 OA
ATOM      4  H10 UNL     1      20.198   3.649  28.965  0.00  0.00    +0.155 HD
ENDROOT
BRANCH   2   5
ATOM      5  C11 UNL     1      21.220   2.762  31.355  0.00  0.00    +0.038 A 
ATOM      6  C12 UNL     1      21.103   2.266  32.682  0.00  0.00    +0.015 A 
ATOM      7  C13 UNL     1      21.549   3.026  33.780  0.00  0.00    +0.027 A 
ATOM      8  C14 UNL     1      22.098   4.278  33.527  0.00  0.00    +0.047 A 
ATOM      9  N2  UNL     1      22.590   5.150  34.429  0.00  0.00    -0.358 N 
ATOM     10  C15 UNL     1      23.022   6.208  33.704  0.00  0.00    +0.020 A 
ATOM     11  C16 UNL     1      22.771   6.022  32.355  0.00  0.00    -0.019 A 
ATOM     12  C17 UNL     1      22.199   4.773  32.250  0.00  0.00    +0.004 A 
ATOM     13  C18 UNL     1      21.772   4.047  31.141  0.00  0.00    +0.023 A 
ATOM     14  C19 UNL     1      23.192   6.975  31.278  0.00  0.00    +0.037 C 
ATOM     15  C20 UNL     1      23.481   8.365  31.877  0.00  0.00    +0.005 C 
ATOM     16  C21 UNL     1      24.327   8.270  33.165  0.00  0.00    +0.006 C 
ATOM     17  C22 UNL     1      23.602   7.469  34.267  0.00  0.00    +0.053 C 
ATOM     18  H13 UNL     1      22.632   5.036  35.467  0.00  0.00    +0.166 HD
ENDBRANCH   2   5
BRANCH   1  24
ATOM     19  C3  UNL     1      20.637   1.760  26.701  0.00  0.00    +0.084 A 
ATOM     20  C4  UNL     1      20.125   1.120  25.558  0.00  0.00    +0.062 A 
ATOM     21  C5  UNL     1      18.830   0.589  25.542  0.00  0.00    +0.121 A 
ATOM     22  C7  UNL     1      18.026   0.707  26.687  0.00  0.00    +0.047 A 
ATOM     23  C8  UNL     1      18.514   1.349  27.825  0.00  0.00    +0.028 A 
ATOM     24  C9  UNL     1      19.815   1.875  27.851  0.00  0.00    +0.048 A 
BRANCH  19  25
ATOM     25  C2  UNL     1      22.034   2.261  26.671  0.00  0.00    +0.341 C 
ATOM     26  O2  UNL     1      22.801   2.087  27.657  0.00  0.00    -0.245 OA
BRANCH  25  28
ATOM     27  C1  UNL     1      22.879   4.277  25.507  0.00  0.00    +0.280 C 
ATOM     28  O1  UNL     1      22.513   2.902  25.522  0.00  0.00    -0.464 OA
ENDBRANCH  25  28
ENDBRANCH  19  25
BRANCH  21  29
ATOM     29  O3  UNL     1      18.385  -0.043  24.372  0.00  0.00    -0.495 OA
ATOM     30  C6  UNL     1      17.623  -1.246  24.348  0.00  0.00    +0.277 C 
ENDBRANCH  21  29
ENDBRANCH   1  24
TORSDOF 5
ENDMDL
MODEL 3
REMARK VINA RESULT:    -6.412     13.338     15.559
REMARK INTER + INTRA:          -9.296
REMARK INTER:                  -8.269
REMARK INTRA:                  -1.027
REMARK UNBOUND:                -1.011
REMARK  Name = /home/qwerty/github/datacon2025hack/step_04_hit_selection/docking/ligands/lig_237.pdb
REMARK  7 active torsions:
REMARK  status: ('A' for Active; 'I' for Inactive)
REMARK    1  A    between atoms: C1_1  and  O1_2
REMARK    2  A    between atoms: O1_2  and  C2_3
REMARK    3  A    between atoms: C2_3  and  C3_5
REMARK    4  A    between atoms: C5_7  and  O3_8
REMARK    5  A    between atoms: O3_8  and  C6_9
REMARK    6  A    between atoms: C9_12  and  N1_13
REMARK    7  A    between atoms: C10_14  and  C11_16
REMARK                            x       y       z     vdW  Elec       q    Type
REMARK                         _______ _______ _______ _____ _____    ______ ____
ROOT
ATOM      1  N1  UNL     1       6.809   8.307  28.567  0.00  0.00    -0.281 N 
ATOM      2  C10 UNL     1       7.570   7.222  29.127  0.00  0.00    +0.248 C 
ATOM      3  O4  UNL     1       8.770   7.409  29.469  0.00  0.00    -0.270 OA
ATOM      4  H10 UNL     1       5.827   8.143  28.254  0.00  0.00    +0.155 HD
ENDROOT
BRANCH   2   5
ATOM      5  C11 UNL     1       6.969   5.881  29.315  0.00  0.00    +0.038 A 
ATOM      6  C12 UNL     1       6.075   5.621  30.390  0.00  0.00    +0.015 A 
ATOM      7  C13 UNL     1       5.510   4.344  30.566  0.00  0.00    +0.027 A 
ATOM      8  C14 UNL     1       5.858   3.345  29.664  0.00  0.00    +0.047 A 
ATOM      9  N2  UNL     1       5.422   2.069  29.651  0.00  0.00    -0.358 N 
ATOM     10  C15 UNL     1       6.025   1.498  28.583  0.00  0.00    +0.020 A 
ATOM     11  C16 UNL     1       6.864   2.395  27.946  0.00  0.00    -0.019 A 
ATOM     12  C17 UNL     1       6.734   3.582  28.633  0.00  0.00    +0.004 A 
ATOM     13  C18 UNL     1       7.309   4.834  28.426  0.00  0.00    +0.023 A 
ATOM     14  C19 UNL     1       7.623   2.097  26.688  0.00  0.00    +0.037 C 
ATOM     15  C20 UNL     1       7.737   0.574  26.481  0.00  0.00    +0.005 C 
ATOM     16  C21 UNL     1       6.392  -0.141  26.732  0.00  0.00    +0.006 C 
ATOM     17  C22 UNL     1       5.899   0.060  28.180  0.00  0.00    +0.053 C 
ATOM     18  H13 UNL     1       4.759   1.617  30.320  0.00  0.00    +0.166 HD
ENDBRANCH   2   5
BRANCH   1  24
ATOM     19  C3  UNL     1       7.862  10.048  27.140  0.00  0.00    +0.084 A 
ATOM     20  C4  UNL     1       8.468  11.314  27.042  0.00  0.00    +0.062 A 
ATOM     21  C5  UNL     1       8.559  12.163  28.149  0.00  0.00    +0.121 A 
ATOM     22  C7  UNL     1       8.042  11.739  29.384  0.00  0.00    +0.047 A 
ATOM     23  C8  UNL     1       7.448  10.483  29.502  0.00  0.00    +0.028 A 
ATOM     24  C9  UNL     1       7.346   9.629  28.393  0.00  0.00    +0.048 A 
BRANCH  19  25
ATOM     25  C2  UNL     1       7.756   9.212  25.918  0.00  0.00    +0.341 C 
ATOM     26  O2  UNL     1       7.252   9.681  24.861  0.00  0.00    -0.245 OA
BRANCH  25  28
ATOM     27  C1  UNL     1       9.639   7.607  26.012  0.00  0.00    +0.280 C 
ATOM     28  O1  UNL     1       8.250   7.903  25.931  0.00  0.00    -0.464 OA
ENDBRANCH  25  28
ENDBRANCH  19  25
BRANCH  21  29
ATOM     29  O3  UNL     1       9.169  13.415  27.979  0.00  0.00    -0.495 OA
ATOM     30  C6  UNL     1      10.510  13.714  28.353  0.00  0.00    +0.277 C 
ENDBRANCH  21  29
ENDBRANCH   1  24
TORSDOF 5
ENDMDL
MODEL 4
REMARK VINA RESULT:    -6.308      9.468     12.743
REMARK INTER + INTRA:          -9.162
REMARK INTER:                  -8.260
REMARK INTRA:                  -0.902
REMARK UNBOUND:                -1.011
REMARK  Name = /home/qwerty/github/datacon2025hack/step_04_hit_selection/docking/ligands/lig_237.pdb
REMARK  7 active torsions:
REMARK  status: ('A' for Active; 'I' for Inactive)
REMARK    1  A    between atoms: C1_1  and  O1_2
REMARK    2  A    between atoms: O1_2  and  C2_3
REMARK    3  A    between atoms: C2_3  and  C3_5
REMARK    4  A    between atoms: C5_7  and  O3_8
REMARK    5  A    between atoms: O3_8  and  C6_9
REMARK    6  A    between atoms: C9_12  and  N1_13
REMARK    7  A    between atoms: C10_14  and  C11_16
REMARK                            x       y       z     vdW  Elec       q    Type
REMARK                         _______ _______ _______ _____ _____    ______ ____
ROOT
ATOM      1  N1  UNL     1      10.449  11.499  29.018  0.00  0.00    -0.281 N 
ATOM      2  C10 UNL     1      10.684  12.890  29.298  0.00  0.00    +0.248 C 
ATOM      3  O4  UNL     1      10.372  13.764  28.443  0.00  0.00    -0.270 OA
ATOM      4  H10 UNL     1      10.737  10.775  29.712  0.00  0.00    +0.155 HD
ENDROOT
BRANCH   2   5
ATOM      5  C11 UNL     1      11.287  13.322  30.581  0.00  0.00    +0.038 A 
ATOM      6  C12 UNL     1      12.015  14.540  30.677  0.00  0.00    +0.015 A 
ATOM      7  C13 UNL     1      12.590  14.944  31.897  0.00  0.00    +0.027 A 
ATOM      8  C14 UNL     1      12.431  14.113  33.001  0.00  0.00    +0.047 A 
ATOM      9  N2  UNL     1      12.889  14.321  34.251  0.00  0.00    -0.358 N 
ATOM     10  C15 UNL     1      12.470  13.252  34.966  0.00  0.00    +0.020 A 
ATOM     11  C16 UNL     1      11.783  12.355  34.166  0.00  0.00    -0.019 A 
ATOM     12  C17 UNL     1      11.744  12.927  32.913  0.00  0.00    +0.004 A 
ATOM     13  C18 UNL     1      11.160  12.498  31.724  0.00  0.00    +0.023 A 
ATOM     14  C19 UNL     1      11.127  11.105  34.667  0.00  0.00    +0.037 C 
ATOM     15  C20 UNL     1      11.716  10.704  36.034  0.00  0.00    +0.005 C 
ATOM     16  C21 UNL     1      11.841  11.915  36.982  0.00  0.00    +0.006 C 
ATOM     17  C22 UNL     1      12.783  12.995  36.409  0.00  0.00    +0.053 C 
ATOM     18  H13 UNL     1      13.447  15.134  34.596  0.00  0.00    +0.166 HD
ENDBRANCH   2   5
BRANCH   1  24
ATOM     19  C3  UNL     1       8.493  10.604  27.773  0.00  0.00    +0.084 A 
ATOM     20  C4  UNL     1       7.972  10.070  26.580  0.00  0.00    +0.062 A 
ATOM     21  C5  UNL     1       8.755   9.972  25.425  0.00  0.00    +0.121 A 
ATOM     22  C7  UNL     1      10.088  10.410  25.461  0.00  0.00    +0.047 A 
ATOM     23  C8  UNL     1      10.625  10.932  26.637  0.00  0.00    +0.028 A 
ATOM     24  C9  UNL     1       9.842  11.040  27.798  0.00  0.00    +0.048 A 
BRANCH  19  25
ATOM     25  C2  UNL     1       7.598  10.723  28.951  0.00  0.00    +0.341 C 
ATOM     26  O2  UNL     1       7.539  11.799  29.607  0.00  0.00    -0.245 OA
BRANCH  25  28
ATOM     27  C1  UNL     1       7.141   8.734  30.353  0.00  0.00    +0.280 C 
ATOM     28  O1  UNL     1       6.789   9.641  29.315  0.00  0.00    -0.464 OA
ENDBRANCH  25  28
ENDBRANCH  19  25
BRANCH  21  29
ATOM     29  O3  UNL     1       8.170   9.437  24.268  0.00  0.00    -0.495 OA
ATOM     30  C6  UNL     1       7.910  10.179  23.081  0.00  0.00    +0.277 C 
ENDBRANCH  21  29
ENDBRANCH   1  24
TORSDOF 5
ENDMDL
MODEL 5
REMARK VINA RESULT:    -6.222      1.383      2.431
REMARK INTER + INTRA:          -9.051
REMARK INTER:                  -8.056
REMARK INTRA:                  -0.995
REMARK UNBOUND:                -1.011
REMARK  Name = /home/qwerty/github/datacon2025hack/step_04_hit_selection/docking/ligands/lig_237.pdb
REMARK  7 active torsions:
REMARK  status: ('A' for Active; 'I' for Inactive)
REMARK    1  A    between atoms: C1_1  and  O1_2
REMARK    2  A    between atoms: O1_2  and  C2_3
REMARK    3  A    between atoms: C2_3  and  C3_5
REMARK    4  A    between atoms: C5_7  and  O3_8
REMARK    5  A    between atoms: O3_8  and  C6_9
REMARK    6  A    between atoms: C9_12  and  N1_13
REMARK    7  A    between atoms: C10_14  and  C11_16
REMARK                            x       y       z     vdW  Elec       q    Type
REMARK                         _______ _______ _______ _____ _____    ______ ____
ROOT
ATOM      1  N1  UNL     1      18.113  10.248  36.091  0.00  0.00    -0.281 N 
ATOM      2  C10 UNL     1      18.944   9.731  37.146  0.00  0.00    +0.248 C 
ATOM      3  O4  UNL     1      18.724  10.072  38.341  0.00  0.00    -0.270 OA
ATOM      4  H10 UNL     1      18.316   9.992  35.100  0.00  0.00    +0.155 HD
ENDROOT
BRANCH   2   5
ATOM      5  C11 UNL     1      20.058   8.798  36.857  0.00  0.00    +0.038 A 
ATOM      6  C12 UNL     1      20.302   7.667  37.683  0.00  0.00    +0.015 A 
ATOM      7  C13 UNL     1      21.364   6.786  37.406  0.00  0.00    +0.027 A 
ATOM      8  C14 UNL     1      22.171   7.060  36.307  0.00  0.00    +0.047 A 
ATOM      9  N2  UNL     1      23.223   6.341  35.868  0.00  0.00    -0.358 N 
ATOM     10  C15 UNL     1      23.667   6.994  34.769  0.00  0.00    +0.020 A 
ATOM     11  C16 UNL     1      22.923   8.138  34.535  0.00  0.00    -0.019 A 
ATOM     12  C17 UNL     1      21.953   8.160  35.514  0.00  0.00    +0.004 A 
ATOM     13  C18 UNL     1      20.910   9.050  35.756  0.00  0.00    +0.023 A 
ATOM     14  C19 UNL     1      23.113   9.043  33.356  0.00  0.00    +0.037 C 
ATOM     15  C20 UNL     1      24.506   8.826  32.734  0.00  0.00    +0.005 C 
ATOM     16  C21 UNL     1      24.841   7.326  32.588  0.00  0.00    +0.006 C 
ATOM     17  C22 UNL     1      24.864   6.610  33.954  0.00  0.00    +0.053 C 
ATOM     18  H13 UNL     1      23.613   5.466  36.284  0.00  0.00    +0.166 HD
ENDBRANCH   2   5
BRANCH   1  24
ATOM     19  C3  UNL     1      15.675  10.647  36.359  0.00  0.00    +0.084 A 
ATOM     20  C4  UNL     1      14.617  11.564  36.497  0.00  0.00    +0.062 A 
ATOM     21  C5  UNL     1      14.857  12.937  36.619  0.00  0.00    +0.121 A 
ATOM     22  C7  UNL     1      16.180  13.407  36.594  0.00  0.00    +0.047 A 
ATOM     23  C8  UNL     1      17.240  12.513  36.445  0.00  0.00    +0.028 A 
ATOM     24  C9  UNL     1      17.007  11.133  36.332  0.00  0.00    +0.048 A 
BRANCH  19  25
ATOM     25  C2  UNL     1      15.357   9.199  36.281  0.00  0.00    +0.341 C 
ATOM     26  O2  UNL     1      14.560   8.763  35.406  0.00  0.00    -0.245 OA
BRANCH  25  28
ATOM     27  C1  UNL     1      16.435   7.023  36.765  0.00  0.00    +0.280 C 
ATOM     28  O1  UNL     1      15.974   8.308  37.166  0.00  0.00    -0.464 OA
ENDBRANCH  25  28
ENDBRANCH  19  25
BRANCH  21  29
ATOM     29  O3  UNL     1      13.757  13.794  36.761  0.00  0.00    -0.495 OA
ATOM     30  C6  UNL     1      12.588  13.746  35.949  0.00  0.00    +0.277 C 
ENDBRANCH  21  29
ENDBRANCH   1  24
TORSDOF 5
ENDMDL
MODEL 6
REMARK VINA RESULT:    -6.195      7.938     10.581
REMARK INTER + INTRA:          -9.016
REMARK INTER:                  -8.132
REMARK INTRA:                  -0.884
REMARK UNBOUND:                -1.011
REMARK  Name = /home/qwerty/github/datacon2025hack/step_04_hit_selection/docking/ligands/lig_237.pdb
REMARK  7 active torsions:
REMARK  status: ('A' for Active; 'I' for Inactive)
REMARK    1  A    between atoms: C1_1  and  O1_2
REMARK    2  A    between atoms: O1_2  and  C2_3
REMARK    3  A    between atoms: C2_3  and  C3_5
REMARK    4  A    between atoms: C5_7  and  O3_8
REMARK    5  A    between atoms: O3_8  and  C6_9
REMARK    6  A    between atoms: C9_12  and  N1_13
REMARK    7  A    between atoms: C10_14  and  C11_16
REMARK                            x       y       z     vdW  Elec       q    Type
REMARK                         _______ _______ _______ _____ _____    ______ ____
ROOT
ATOM      1  N1  UNL     1      12.955  15.192  28.759  0.00  0.00    -0.281 N 
ATOM      2  C10 UNL     1      14.139  14.520  28.293  0.00  0.00    +0.248 C 
ATOM      3  O4  UNL     1      14.088  13.295  27.998  0.00  0.00    -0.270 OA
ATOM      4  H10 UNL     1      13.005  16.198  29.034  0.00  0.00    +0.155 HD
ENDROOT
BRANCH   2   5
ATOM      5  C11 UNL     1      15.424  15.244  28.147  0.00  0.00    +0.038 A 
ATOM      6  C12 UNL     1      15.696  16.032  26.996  0.00  0.00    +0.015 A 
ATOM      7  C13 UNL     1      16.920  16.714  26.860  0.00  0.00    +0.027 A 
ATOM      8  C14 UNL     1      17.855  16.587  27.881  0.00  0.00    +0.047 A 
ATOM      9  N2  UNL     1      19.072  17.162  27.949  0.00  0.00    -0.358 N 
ATOM     10  C15 UNL     1      19.594  16.755  29.129  0.00  0.00    +0.020 A 
ATOM     11  C16 UNL     1      18.728  15.897  29.786  0.00  0.00    -0.019 A 
ATOM     12  C17 UNL     1      17.608  15.813  28.989  0.00  0.00    +0.004 A 
ATOM     13  C18 UNL     1      16.407  15.129  29.158  0.00  0.00    +0.023 A 
ATOM     14  C19 UNL     1      18.976  15.327  31.150  0.00  0.00    +0.037 C 
ATOM     15  C20 UNL     1      20.475  15.410  31.499  0.00  0.00    +0.005 C 
ATOM     16  C21 UNL     1      21.071  16.789  31.145  0.00  0.00    +0.006 C 
ATOM     17  C22 UNL     1      20.965  17.087  29.635  0.00  0.00    +0.053 C 
ATOM     18  H13 UNL     1      19.518  17.791  27.244  0.00  0.00    +0.166 HD
ENDBRANCH   2   5
BRANCH   1  24
ATOM     19  C3  UNL     1      11.278  13.968  30.124  0.00  0.00    +0.084 A 
ATOM     20  C4  UNL     1      10.071  13.247  30.180  0.00  0.00    +0.062 A 
ATOM     21  C5  UNL     1       9.266  13.091  29.047  0.00  0.00    +0.121 A 
ATOM     22  C7  UNL     1       9.676  13.659  27.830  0.00  0.00    +0.047 A 
ATOM     23  C8  UNL     1      10.876  14.366  27.754  0.00  0.00    +0.028 A 
ATOM     24  C9  UNL     1      11.684  14.535  28.890  0.00  0.00    +0.048 A 
BRANCH  19  25
ATOM     25  C2  UNL     1      12.064  14.137  31.372  0.00  0.00    +0.341 C 
ATOM     26  O2  UNL     1      12.470  15.278  31.726  0.00  0.00    -0.245 OA
BRANCH  25  28
ATOM     27  C1  UNL     1      13.166  13.088  33.326  0.00  0.00    +0.280 C 
ATOM     28  O1  UNL     1      12.328  13.024  32.179  0.00  0.00    -0.464 OA
ENDBRANCH  25  28
ENDBRANCH  19  25
BRANCH  21  29
ATOM     29  O3  UNL     1       8.071  12.367  29.174  0.00  0.00    -0.495 OA
ATOM     30  C6  UNL     1       7.988  11.031  29.660  0.00  0.00    +0.277 C 
ENDBRANCH  21  29
ENDBRANCH   1  24
TORSDOF 5
ENDMDL
MODEL 7
REMARK VINA RESULT:    -6.128     16.637     17.503
REMARK INTER + INTRA:          -8.930
REMARK INTER:                  -7.914
REMARK INTRA:                  -1.016
REMARK UNBOUND:                -1.011
REMARK  Name = /home/qwerty/github/datacon2025hack/step_04_hit_selection/docking/ligands/lig_237.pdb
REMARK  7 active torsions:
REMARK  status: ('A' for Active; 'I' for Inactive)
REMARK    1  A    between atoms: C1_1  and  O1_2
REMARK    2  A    between atoms: O1_2  and  C2_3
REMARK    3  A    between atoms: C2_3  and  C3_5
REMARK    4  A    between atoms: C5_7  and  O3_8
REMARK    5  A    between atoms: O3_8  and  C6_9
REMARK    6  A    between atoms: C9_12  and  N1_13
REMARK    7  A    between atoms: C10_14  and  C11_16
REMARK                            x       y       z     vdW  Elec       q    Type
REMARK                         _______ _______ _______ _____ _____    ______ ____
ROOT
ATOM      1  N1  UNL     1      12.761   3.917  21.702  0.00  0.00    -0.281 N 
ATOM      2  C10 UNL     1      13.199   3.028  20.660  0.00  0.00    +0.248 C 
ATOM      3  O4  UNL     1      12.736   3.153  19.493  0.00  0.00    -0.270 OA
ATOM      4  H10 UNL     1      13.121   3.792  22.674  0.00  0.00    +0.155 HD
ENDROOT
BRANCH   2   5
ATOM      5  C11 UNL     1      14.193   1.962  20.929  0.00  0.00    +0.038 A 
ATOM      6  C12 UNL     1      15.281   1.732  20.044  0.00  0.00    +0.015 A 
ATOM      7  C13 UNL     1      16.221   0.716  20.302  0.00  0.00    +0.027 A 
ATOM      8  C14 UNL     1      16.047  -0.060  21.443  0.00  0.00    +0.047 A 
ATOM      9  N2  UNL     1      16.834  -1.066  21.872  0.00  0.00    -0.358 N 
ATOM     10  C15 UNL     1      16.267  -1.495  23.024  0.00  0.00    +0.020 A 
ATOM     11  C16 UNL     1      15.109  -0.788  23.302  0.00  0.00    -0.019 A 
ATOM     12  C17 UNL     1      14.989   0.143  22.294  0.00  0.00    +0.004 A 
ATOM     13  C18 UNL     1      14.044   1.142  22.072  0.00  0.00    +0.023 A 
ATOM     14  C19 UNL     1      14.285  -0.969  24.541  0.00  0.00    +0.037 C 
ATOM     15  C20 UNL     1      14.597  -2.329  25.195  0.00  0.00    +0.005 C 
ATOM     16  C21 UNL     1      16.115  -2.600  25.260  0.00  0.00    +0.006 C 
ATOM     17  C22 UNL     1      16.748  -2.646  23.854  0.00  0.00    +0.053 C 
ATOM     18  H13 UNL     1      17.697  -1.437  21.416  0.00  0.00    +0.166 HD
ENDBRANCH   2   5
BRANCH   1  24
ATOM     19  C3  UNL     1      10.439   4.799  21.740  0.00  0.00    +0.084 A 
ATOM     20  C4  UNL     1       9.541   5.831  21.411  0.00  0.00    +0.062 A 
ATOM     21  C5  UNL     1       9.989   7.029  20.843  0.00  0.00    +0.121 A 
ATOM     22  C7  UNL     1      11.359   7.198  20.590  0.00  0.00    +0.047 A 
ATOM     23  C8  UNL     1      12.262   6.180  20.899  0.00  0.00    +0.028 A 
ATOM     24  C9  UNL     1      11.820   4.980  21.477  0.00  0.00    +0.048 A 
BRANCH  19  25
ATOM     25  C2  UNL     1       9.907   3.571  22.383  0.00  0.00    +0.341 C 
ATOM     26  O2  UNL     1       9.281   3.638  23.476  0.00  0.00    -0.245 OA
BRANCH  25  28
ATOM     27  C1  UNL     1      10.188   1.113  22.473  0.00  0.00    +0.280 C 
ATOM     28  O1  UNL     1      10.073   2.333  21.751  0.00  0.00    -0.464 OA
ENDBRANCH  25  28
ENDBRANCH  19  25
BRANCH  21  29
ATOM     29  O3  UNL     1       9.041   8.020  20.546  0.00  0.00    -0.495 OA
ATOM     30  C6  UNL     1       8.612   9.022  21.463  0.00  0.00    +0.277 C 
ENDBRANCH  21  29
ENDBRANCH   1  24
TORSDOF 5
ENDMDL
MODEL 8
REMARK VINA RESULT:    -6.082      2.289      3.775
REMARK INTER + INTRA:          -8.871
REMARK INTER:                  -7.983
REMARK INTRA:                  -0.888
REMARK UNBOUND:                -1.011
REMARK  Name = /home/qwerty/github/datacon2025hack/step_04_hit_selection/docking/ligands/lig_237.pdb
REMARK  7 active torsions:
REMARK  status: ('A' for Active; 'I' for Inactive)
REMARK    1  A    between atoms: C1_1  and  O1_2
REMARK    2  A    between atoms: O1_2  and  C2_3
REMARK    3  A    between atoms: C2_3  and  C3_5
REMARK    4  A    between atoms: C5_7  and  O3_8
REMARK    5  A    between atoms: O3_8  and  C6_9
REMARK    6  A    between atoms: C9_12  and  N1_13
REMARK    7  A    between atoms: C10_14  and  C11_16
REMARK                            x       y       z     vdW  Elec       q    Type
REMARK                         _______ _______ _______ _____ _____    ______ ____
ROOT
ATOM      1  N1  UNL     1      14.814  11.502  36.772  0.00  0.00    -0.281 N 
ATOM      2  C10 UNL     1      15.719  10.775  35.923  0.00  0.00    +0.248 C 
ATOM      3  O4  UNL     1      15.498  10.706  34.683  0.00  0.00    -0.270 OA
ATOM      4  H10 UNL     1      14.980  11.531  37.802  0.00  0.00    +0.155 HD
ENDROOT
BRANCH   2   5
ATOM      5  C11 UNL     1      16.917  10.101  36.479  0.00  0.00    +0.038 A 
ATOM      6  C12 UNL     1      16.983   9.734  37.850  0.00  0.00    +0.015 A 
ATOM      7  C13 UNL     1      18.124   9.098  38.374  0.00  0.00    +0.027 A 
ATOM      8  C14 UNL     1      19.187   8.849  37.512  0.00  0.00    +0.047 A 
ATOM      9  N2  UNL     1      20.355   8.246  37.810  0.00  0.00    -0.358 N 
ATOM     10  C15 UNL     1      21.049   8.222  36.649  0.00  0.00    +0.020 A 
ATOM     11  C16 UNL     1      20.340   8.837  35.632  0.00  0.00    -0.019 A 
ATOM     12  C17 UNL     1      19.139   9.217  36.190  0.00  0.00    +0.004 A 
ATOM     13  C18 UNL     1      18.025   9.843  35.637  0.00  0.00    +0.023 A 
ATOM     14  C19 UNL     1      20.800   8.913  34.207  0.00  0.00    +0.037 C 
ATOM     15  C20 UNL     1      22.320   8.673  34.123  0.00  0.00    +0.005 C 
ATOM     16  C21 UNL     1      22.759   7.472  34.988  0.00  0.00    +0.006 C 
ATOM     17  C22 UNL     1      22.443   7.698  36.481  0.00  0.00    +0.053 C 
ATOM     18  H13 UNL     1      20.660   7.875  38.738  0.00  0.00    +0.166 HD
ENDBRANCH   2   5
BRANCH   1  24
ATOM     19  C3  UNL     1      13.682  13.590  36.041  0.00  0.00    +0.084 A 
ATOM     20  C4  UNL     1      12.497  14.237  35.645  0.00  0.00    +0.062 A 
ATOM     21  C5  UNL     1      11.306  13.526  35.466  0.00  0.00    +0.121 A 
ATOM     22  C7  UNL     1      11.293  12.140  35.693  0.00  0.00    +0.047 A 
ATOM     23  C8  UNL     1      12.456  11.484  36.097  0.00  0.00    +0.028 A 
ATOM     24  C9  UNL     1      13.657  12.191  36.270  0.00  0.00    +0.048 A 
BRANCH  19  25
ATOM     25  C2  UNL     1      14.923  14.393  36.169  0.00  0.00    +0.341 C 
ATOM     26  O2  UNL     1      15.936  14.128  35.465  0.00  0.00    -0.245 OA
BRANCH  25  28
ATOM     27  C1  UNL     1      15.160  16.815  36.628  0.00  0.00    +0.280 C 
ATOM     28  O1  UNL     1      14.958  15.474  37.058  0.00  0.00    -0.464 OA
ENDBRANCH  25  28
ENDBRANCH  19  25
BRANCH  21  29
ATOM     29  O3  UNL     1      10.163  14.232  35.063  0.00  0.00    -0.495 OA
ATOM     30  C6  UNL     1       9.097  14.600  35.932  0.00  0.00    +0.277 C 
ENDBRANCH  21  29
ENDBRANCH   1  24
TORSDOF 5
ENDMDL
MODEL 9
REMARK VINA RESULT:    -5.989     12.207     14.248
REMARK INTER + INTRA:          -8.750
REMARK INTER:                  -7.836
REMARK INTRA:                  -0.914
REMARK UNBOUND:                -1.011
REMARK  Name = /home/qwerty/github/datacon2025hack/step_04_hit_selection/docking/ligands/lig_237.pdb
REMARK  7 active torsions:
REMARK  status: ('A' for Active; 'I' for Inactive)
REMARK    1  A    between atoms: C1_1  and  O1_2
REMARK    2  A    between atoms: O1_2  and  C2_3
REMARK    3  A    between atoms: C2_3  and  C3_5
REMARK    4  A    between atoms: C5_7  and  O3_8
REMARK    5  A    between atoms: O3_8  and  C6_9
REMARK    6  A    between atoms: C9_12  and  N1_13
REMARK    7  A    between atoms: C10_14  and  C11_16
REMARK                            x       y       z     vdW  Elec       q    Type
REMARK                         _______ _______ _______ _____ _____    ______ ____
ROOT
ATOM      1  N1  UNL     1      18.340   2.088  25.266  0.00  0.00    -0.281 N 
ATOM      2  C10 UNL     1      19.678   1.598  25.461  0.00  0.00    +0.248 C 
ATOM      3  O4  UNL     1      20.304   1.083  24.494  0.00  0.00    -0.270 OA
ATOM      4  H10 UNL     1      17.810   2.484  26.073  0.00  0.00    +0.155 HD
ENDROOT
BRANCH   2   5
ATOM      5  C11 UNL     1      20.342   1.689  26.783  0.00  0.00    +0.038 A 
ATOM      6  C12 UNL     1      21.719   2.024  26.891  0.00  0.00    +0.015 A 
ATOM      7  C13 UNL     1      22.347   2.106  28.148  0.00  0.00    +0.027 A 
ATOM      8  C14 UNL     1      21.581   1.841  29.278  0.00  0.00    +0.047 A 
ATOM      9  N2  UNL     1      21.985   1.875  30.564  0.00  0.00    -0.358 N 
ATOM     10  C15 UNL     1      20.888   1.563  31.291  0.00  0.00    +0.020 A 
ATOM     11  C16 UNL     1      19.806   1.297  30.469  0.00  0.00    -0.019 A 
ATOM     12  C17 UNL     1      20.255   1.498  29.182  0.00  0.00    +0.004 A 
ATOM     13  C18 UNL     1      19.601   1.413  27.956  0.00  0.00    +0.023 A 
ATOM     14  C19 UNL     1      18.424   0.991  30.963  0.00  0.00    +0.037 C 
ATOM     15  C20 UNL     1      18.472   0.536  32.435  0.00  0.00    +0.005 C 
ATOM     16  C21 UNL     1      19.387   1.442  33.286  0.00  0.00    +0.006 C 
ATOM     17  C22 UNL     1      20.845   1.416  32.781  0.00  0.00    +0.053 C 
ATOM     18  H13 UNL     1      22.940   2.097  30.924  0.00  0.00    +0.166 HD
ENDBRANCH   2   5
BRANCH   1  24
ATOM     19  C3  UNL     1      17.004   0.868  23.561  0.00  0.00    +0.084 A 
ATOM     20  C4  UNL     1      16.449   0.836  22.269  0.00  0.00    +0.062 A 
ATOM     21  C5  UNL     1      16.532   1.942  21.416  0.00  0.00    +0.121 A 
ATOM     22  C7  UNL     1      17.191   3.101  21.856  0.00  0.00    +0.047 A 
ATOM     23  C8  UNL     1      17.757   3.146  23.130  0.00  0.00    +0.028 A 
ATOM     24  C9  UNL     1      17.669   2.043  23.995  0.00  0.00    +0.048 A 
BRANCH  19  25
ATOM     25  C2  UNL     1      16.842  -0.321  24.435  0.00  0.00    +0.341 C 
ATOM     26  O2  UNL     1      16.458  -0.192  25.630  0.00  0.00    -0.245 OA
BRANCH  25  28
ATOM     27  C1  UNL     1      16.468  -2.768  24.436  0.00  0.00    +0.280 C 
ATOM     28  O1  UNL     1      17.087  -1.598  23.916  0.00  0.00    -0.464 OA
ENDBRANCH  25  28
ENDBRANCH  19  25
BRANCH  21  29
ATOM     29  O3  UNL     1      15.950   1.846  20.143  0.00  0.00    -0.495 OA
ATOM     30  C6  UNL     1      15.076   0.797  19.736  0.00  0.00    +0.277 C 
ENDBRANCH  21  29
ENDBRANCH   1  24
TORSDOF 5
ENDMDL
