MODEL 1
REMARK VINA RESULT:    -6.829      0.000      0.000
REMARK INTER + INTRA:          -9.371
REMARK INTER:                  -8.625
REMARK INTRA:                  -0.745
REMARK UNBOUND:                -0.745
REMARK  Name = /home/qwerty/github/datacon2025hack/step_04_hit_selection/docking/ligands/lig_786.pdb
REMARK  5 active torsions:
REMARK  status: ('A' for Active; 'I' for Inactive)
REMARK    1  A    between atoms: C1_2  and  C14_19
REMARK    2  A    between atoms: N1_3  and  C2_4
REMARK    3  A    between atoms: C5_7  and  C6_8
REMARK    4  A    between atoms: C10_14  and  C11_15
REMARK    5  A    between atoms: C11_15  and  O3_16
REMARK                            x       y       z     vdW  Elec       q    Type
REMARK                         _______ _______ _______ _____ _____    ______ ____
ROOT
ATOM      1  C2  UNL     1      21.871   5.124  24.558  0.00  0.00    +0.034 A 
ATOM      2  C3  UNL     1      20.555   4.692  24.776  0.00  0.00    +0.024 A 
ATOM      3  C4  UNL     1      20.298   3.564  25.560  0.00  0.00    +0.015 A 
ATOM      4  C5  UNL     1      21.355   2.849  26.144  0.00  0.00    +0.037 A 
ATOM      5  C12 UNL     1      22.671   3.304  25.961  0.00  0.00    +0.015 A 
ATOM      6  C13 UNL     1      22.928   4.431  25.175  0.00  0.00    +0.024 A 
ENDROOT
BRANCH   4   7
ATOM      7  C6  UNL     1      21.090   1.664  26.986  0.00  0.00    +0.247 C 
ATOM      8  O2  UNL     1      20.654   0.611  26.445  0.00  0.00    -0.270 OA
ATOM      9  N2  UNL     1      21.308   1.691  28.410  0.00  0.00    -0.292 N 
ATOM     10  C7  UNL     1      21.033   2.866  29.224  0.00  0.00    +0.108 C 
ATOM     11  C8  UNL     1      20.786   2.344  30.632  0.00  0.00    +0.021 C 
ATOM     12  C9  UNL     1      21.412   0.954  30.670  0.00  0.00    +0.026 C 
ATOM     13  C10 UNL     1      21.455   0.483  29.212  0.00  0.00    +0.102 C 
BRANCH  13  14
ATOM     14  C11 UNL     1      22.768  -0.239  28.876  0.00  0.00    +0.178 C 
BRANCH  14  15
ATOM     15  O3  UNL     1      22.503  -1.376  28.102  0.00  0.00    -0.393 OA
ATOM     16  H13 UNL     1      21.915  -1.953  28.654  0.00  0.00    +0.209 HD
ENDBRANCH  14  15
ENDBRANCH  13  14
ENDBRANCH   4   7
BRANCH   1  19
ATOM     17  O1  UNL     1      21.786   5.316  21.670  0.00  0.00    -0.270 OA
ATOM     18  C1  UNL     1      22.257   6.281  22.334  0.00  0.00    +0.248 C 
ATOM     19  N1  UNL     1      22.108   6.300  23.764  0.00  0.00    -0.282 N 
ATOM     20  H1  UNL     1      22.054   7.228  24.240  0.00  0.00    +0.155 HD
BRANCH  18  21
ATOM     21  C14 UNL     1      22.912   7.404  21.623  0.00  0.00    +0.041 A 
ATOM     22  C15 UNL     1      24.327   7.433  21.486  0.00  0.00    +0.017 A 
ATOM     23  C16 UNL     1      24.964   8.496  20.820  0.00  0.00    +0.050 A 
ATOM     24  C17 UNL     1      24.166   9.514  20.311  0.00  0.00    +0.166 A 
ATOM     25  C18 UNL     1      22.817   9.503  20.443  0.00  0.00    +0.167 A 
ATOM     26  C19 UNL     1      22.145   8.471  21.093  0.00  0.00    +0.062 A 
ATOM     27  O4  UNL     1      22.287  10.635  19.854  0.00  0.00    -0.453 OA
ATOM     28  C20 UNL     1      23.372  11.403  19.316  0.00  0.00    +0.466 C 
ATOM     29  O5  UNL     1      24.554  10.652  19.630  0.00  0.00    -0.453 OA
ENDBRANCH  18  21
ENDBRANCH   1  19
TORSDOF 5
ENDMDL
MODEL 2
REMARK VINA RESULT:    -6.421      2.529      3.650
REMARK INTER + INTRA:          -8.855
REMARK INTER:                  -8.177
REMARK INTRA:                  -0.678
REMARK UNBOUND:                -0.745
REMARK  Name = /home/qwerty/github/datacon2025hack/step_04_hit_selection/docking/ligands/lig_786.pdb
REMARK  5 active torsions:
REMARK  status: ('A' for Active; 'I' for Inactive)
REMARK    1  A    between atoms: C1_2  and  C14_19
REMARK    2  A    between atoms: N1_3  and  C2_4
REMARK    3  A    between atoms: C5_7  and  C6_8
REMARK    4  A    between atoms: C10_14  and  C11_15
REMARK    5  A    between atoms: C11_15  and  O3_16
REMARK                            x       y       z     vdW  Elec       q    Type
REMARK                         _______ _______ _______ _____ _____    ______ ____
ROOT
ATOM      1  C2  UNL     1      21.842   4.458  26.636  0.00  0.00    +0.034 A 
ATOM      2  C3  UNL     1      22.470   3.206  26.702  0.00  0.00    +0.024 A 
ATOM      3  C4  UNL     1      22.467   2.473  27.892  0.00  0.00    +0.015 A 
ATOM      4  C5  UNL     1      21.832   2.978  29.037  0.00  0.00    +0.037 A 
ATOM      5  C12 UNL     1      21.167   4.213  28.960  0.00  0.00    +0.015 A 
ATOM      6  C13 UNL     1      21.171   4.947  27.770  0.00  0.00    +0.024 A 
ENDROOT
BRANCH   4   7
ATOM      7  C6  UNL     1      21.813   2.202  30.294  0.00  0.00    +0.247 C 
ATOM      8  O2  UNL     1      22.903   1.801  30.784  0.00  0.00    -0.270 OA
ATOM      9  N2  UNL     1      20.576   1.886  30.962  0.00  0.00    -0.292 N 
ATOM     10  C7  UNL     1      19.354   1.564  30.240  0.00  0.00    +0.108 C 
ATOM     11  C8  UNL     1      18.519   0.724  31.197  0.00  0.00    +0.021 C 
ATOM     12  C9  UNL     1      19.072   1.015  32.587  0.00  0.00    +0.026 C 
ATOM     13  C10 UNL     1      20.511   1.495  32.365  0.00  0.00    +0.102 C 
BRANCH  13  14
ATOM     14  C11 UNL     1      20.874   2.676  33.277  0.00  0.00    +0.178 C 
BRANCH  14  15
ATOM     15  O3  UNL     1      22.215   2.581  33.671  0.00  0.00    -0.393 OA
ATOM     16  H13 UNL     1      22.581   3.502  33.628  0.00  0.00    +0.209 HD
ENDBRANCH  14  15
ENDBRANCH  13  14
ENDBRANCH   4   7
BRANCH   1  19
ATOM     17  O1  UNL     1      20.264   3.869  24.280  0.00  0.00    -0.270 OA
ATOM     18  C1  UNL     1      21.194   4.718  24.197  0.00  0.00    +0.248 C 
ATOM     19  N1  UNL     1      21.841   5.184  25.393  0.00  0.00    -0.282 N 
ATOM     20  H1  UNL     1      22.233   6.152  25.394  0.00  0.00    +0.155 HD
BRANCH  18  21
ATOM     21  C14 UNL     1      21.571   5.258  22.869  0.00  0.00    +0.041 A 
ATOM     22  C15 UNL     1      20.968   4.739  21.691  0.00  0.00    +0.017 A 
ATOM     23  C16 UNL     1      21.321   5.237  20.423  0.00  0.00    +0.050 A 
ATOM     24  C17 UNL     1      22.278   6.242  20.363  0.00  0.00    +0.166 A 
ATOM     25  C18 UNL     1      22.868   6.740  21.479  0.00  0.00    +0.167 A 
ATOM     26  C19 UNL     1      22.548   6.277  22.753  0.00  0.00    +0.062 A 
ATOM     27  O4  UNL     1      23.778   7.715  21.123  0.00  0.00    -0.453 OA
ATOM     28  C20 UNL     1      23.758   7.839  19.694  0.00  0.00    +0.466 C 
ATOM     29  O5  UNL     1      22.787   6.881  19.249  0.00  0.00    -0.453 OA
ENDBRANCH  18  21
ENDBRANCH   1  19
TORSDOF 5
ENDMDL
MODEL 3
REMARK VINA RESULT:    -6.319      6.152      7.155
REMARK INTER + INTRA:          -8.726
REMARK INTER:                  -7.933
REMARK INTRA:                  -0.793
REMARK UNBOUND:                -0.745
REMARK  Name = /home/qwerty/github/datacon2025hack/step_04_hit_selection/docking/ligands/lig_786.pdb
REMARK  5 active torsions:
REMARK  status: ('A' for Active; 'I' for Inactive)
REMARK    1  A    between atoms: C1_2  and  C14_19
REMARK    2  A    between atoms: N1_3  and  C2_4
REMARK    3  A    between atoms: C5_7  and  C6_8
REMARK    4  A    between atoms: C10_14  and  C11_15
REMARK    5  A    between atoms: C11_15  and  O3_16
REMARK                            x       y       z     vdW  Elec       q    Type
REMARK                         _______ _______ _______ _____ _____    ______ ____
ROOT
ATOM      1  C2  UNL     1      16.274   5.292  20.229  0.00  0.00    +0.034 A 
ATOM      2  C3  UNL     1      17.111   4.725  21.199  0.00  0.00    +0.024 A 
ATOM      3  C4  UNL     1      16.995   3.374  21.537  0.00  0.00    +0.015 A 
ATOM      4  C5  UNL     1      16.039   2.564  20.905  0.00  0.00    +0.037 A 
ATOM      5  C12 UNL     1      15.227   3.120  19.903  0.00  0.00    +0.015 A 
ATOM      6  C13 UNL     1      15.342   4.472  19.567  0.00  0.00    +0.024 A 
ENDROOT
BRANCH   4   7
ATOM      7  C6  UNL     1      15.920   1.130  21.246  0.00  0.00    +0.247 C 
ATOM      8  O2  UNL     1      16.345   0.268  20.430  0.00  0.00    -0.270 OA
ATOM      9  N2  UNL     1      15.319   0.701  22.482  0.00  0.00    -0.292 N 
ATOM     10  C7  UNL     1      14.177   1.381  23.077  0.00  0.00    +0.108 C 
ATOM     11  C8  UNL     1      13.484   0.341  23.945  0.00  0.00    +0.021 C 
ATOM     12  C9  UNL     1      14.527  -0.741  24.201  0.00  0.00    +0.026 C 
ATOM     13  C10 UNL     1      15.531  -0.625  23.048  0.00  0.00    +0.102 C 
BRANCH  13  14
ATOM     14  C11 UNL     1      16.981  -0.788  23.525  0.00  0.00    +0.178 C 
BRANCH  14  15
ATOM     15  O3  UNL     1      17.704  -1.552  22.600  0.00  0.00    -0.393 OA
ATOM     16  H13 UNL     1      18.427  -1.997  23.115  0.00  0.00    +0.209 HD
ENDBRANCH  14  15
ENDBRANCH  13  14
ENDBRANCH   4   7
BRANCH   1  19
ATOM     17  O1  UNL     1      18.227   6.428  18.419  0.00  0.00    -0.270 OA
ATOM     18  C1  UNL     1      17.546   7.202  19.147  0.00  0.00    +0.248 C 
ATOM     19  N1  UNL     1      16.427   6.680  19.886  0.00  0.00    -0.282 N 
ATOM     20  H1  UNL     1      15.628   7.323  20.084  0.00  0.00    +0.155 HD
BRANCH  18  21
ATOM     21  C14 UNL     1      17.878   8.645  19.190  0.00  0.00    +0.041 A 
ATOM     22  C15 UNL     1      16.860   9.604  19.445  0.00  0.00    +0.017 A 
ATOM     23  C16 UNL     1      17.159  10.978  19.481  0.00  0.00    +0.050 A 
ATOM     24  C17 UNL     1      18.475  11.363  19.253  0.00  0.00    +0.166 A 
ATOM     25  C18 UNL     1      19.454  10.459  18.999  0.00  0.00    +0.167 A 
ATOM     26  C19 UNL     1      19.203   9.090  18.955  0.00  0.00    +0.062 A 
ATOM     27  O4  UNL     1      20.651  11.119  18.805  0.00  0.00    -0.453 OA
ATOM     28  C20 UNL     1      20.410  12.526  18.947  0.00  0.00    +0.466 C 
ATOM     29  O5  UNL     1      19.008  12.637  19.233  0.00  0.00    -0.453 OA
ENDBRANCH  18  21
ENDBRANCH   1  19
TORSDOF 5
ENDMDL
MODEL 4
REMARK VINA RESULT:    -6.221     11.528     14.854
REMARK INTER + INTRA:          -8.602
REMARK INTER:                  -7.942
REMARK INTRA:                  -0.661
REMARK UNBOUND:                -0.745
REMARK  Name = /home/qwerty/github/datacon2025hack/step_04_hit_selection/docking/ligands/lig_786.pdb
REMARK  5 active torsions:
REMARK  status: ('A' for Active; 'I' for Inactive)
REMARK    1  A    between atoms: C1_2  and  C14_19
REMARK    2  A    between atoms: N1_3  and  C2_4
REMARK    3  A    between atoms: C5_7  and  C6_8
REMARK    4  A    between atoms: C10_14  and  C11_15
REMARK    5  A    between atoms: C11_15  and  O3_16
REMARK                            x       y       z     vdW  Elec       q    Type
REMARK                         _______ _______ _______ _____ _____    ______ ____
ROOT
ATOM      1  C2  UNL     1      18.298   9.655  36.508  0.00  0.00    +0.034 A 
ATOM      2  C3  UNL     1      17.784  10.159  35.306  0.00  0.00    +0.024 A 
ATOM      3  C4  UNL     1      16.629  10.947  35.302  0.00  0.00    +0.015 A 
ATOM      4  C5  UNL     1      15.971  11.247  36.504  0.00  0.00    +0.037 A 
ATOM      5  C12 UNL     1      16.508  10.777  37.713  0.00  0.00    +0.015 A 
ATOM      6  C13 UNL     1      17.662   9.987  37.717  0.00  0.00    +0.024 A 
ENDROOT
BRANCH   4   7
ATOM      7  C6  UNL     1      14.757  12.091  36.509  0.00  0.00    +0.247 C 
ATOM      8  O2  UNL     1      14.766  13.175  37.154  0.00  0.00    -0.270 OA
ATOM      9  N2  UNL     1      13.565  11.695  35.805  0.00  0.00    -0.292 N 
ATOM     10  C7  UNL     1      13.124  10.309  35.725  0.00  0.00    +0.108 C 
ATOM     11  C8  UNL     1      11.622  10.368  35.486  0.00  0.00    +0.021 C 
ATOM     12  C9  UNL     1      11.346  11.767  34.948  0.00  0.00    +0.026 C 
ATOM     13  C10 UNL     1      12.511  12.634  35.440  0.00  0.00    +0.102 C 
BRANCH  13  14
ATOM     14  C11 UNL     1      13.001  13.611  34.362  0.00  0.00    +0.178 C 
BRANCH  14  15
ATOM     15  O3  UNL     1      13.162  14.889  34.913  0.00  0.00    -0.393 OA
ATOM     16  H13 UNL     1      12.249  15.270  34.994  0.00  0.00    +0.209 HD
ENDBRANCH  14  15
ENDBRANCH  13  14
ENDBRANCH   4   7
BRANCH   1  19
ATOM     17  O1  UNL     1      20.994  10.600  36.033  0.00  0.00    -0.270 OA
ATOM     18  C1  UNL     1      20.774   9.357  36.039  0.00  0.00    +0.248 C 
ATOM     19  N1  UNL     1      19.500   8.863  36.487  0.00  0.00    -0.282 N 
ATOM     20  H1  UNL     1      19.468   7.917  36.927  0.00  0.00    +0.155 HD
BRANCH  18  21
ATOM     21  C14 UNL     1      21.851   8.424  35.632  0.00  0.00    +0.041 A 
ATOM     22  C15 UNL     1      22.270   7.391  36.515  0.00  0.00    +0.017 A 
ATOM     23  C16 UNL     1      23.296   6.503  36.146  0.00  0.00    +0.050 A 
ATOM     24  C17 UNL     1      23.886   6.673  34.900  0.00  0.00    +0.166 A 
ATOM     25  C18 UNL     1      23.502   7.659  34.052  0.00  0.00    +0.167 A 
ATOM     26  C19 UNL     1      22.490   8.560  34.376  0.00  0.00    +0.062 A 
ATOM     27  O4  UNL     1      24.259   7.596  32.899  0.00  0.00    -0.453 OA
ATOM     28  C20 UNL     1      25.175   6.501  33.029  0.00  0.00    +0.466 C 
ATOM     29  O5  UNL     1      24.903   5.939  34.321  0.00  0.00    -0.453 OA
ENDBRANCH  18  21
ENDBRANCH   1  19
TORSDOF 5
ENDMDL
MODEL 5
REMARK VINA RESULT:    -6.209     13.552     17.442
REMARK INTER + INTRA:          -8.587
REMARK INTER:                  -8.298
REMARK INTRA:                  -0.290
REMARK UNBOUND:                -0.745
REMARK  Name = /home/qwerty/github/datacon2025hack/step_04_hit_selection/docking/ligands/lig_786.pdb
REMARK  5 active torsions:
REMARK  status: ('A' for Active; 'I' for Inactive)
REMARK    1  A    between atoms: C1_2  and  C14_19
REMARK    2  A    between atoms: N1_3  and  C2_4
REMARK    3  A    between atoms: C5_7  and  C6_8
REMARK    4  A    between atoms: C10_14  and  C11_15
REMARK    5  A    between atoms: C11_15  and  O3_16
REMARK                            x       y       z     vdW  Elec       q    Type
REMARK                         _______ _______ _______ _____ _____    ______ ____
ROOT
ATOM      1  C2  UNL     1       9.136   1.590  25.401  0.00  0.00    +0.034 A 
ATOM      2  C3  UNL     1       9.907   1.418  24.244  0.00  0.00    +0.024 A 
ATOM      3  C4  UNL     1       9.763   2.287  23.158  0.00  0.00    +0.015 A 
ATOM      4  C5  UNL     1       8.845   3.347  23.214  0.00  0.00    +0.037 A 
ATOM      5  C12 UNL     1       8.100   3.545  24.388  0.00  0.00    +0.015 A 
ATOM      6  C13 UNL     1       8.244   2.674  25.473  0.00  0.00    +0.024 A 
ENDROOT
BRANCH   4   7
ATOM      7  C6  UNL     1       8.696   4.278  22.076  0.00  0.00    +0.247 C 
ATOM      8  O2  UNL     1       8.940   3.865  20.909  0.00  0.00    -0.270 OA
ATOM      9  N2  UNL     1       8.292   5.646  22.274  0.00  0.00    -0.292 N 
ATOM     10  C7  UNL     1       8.723   6.434  23.420  0.00  0.00    +0.108 C 
ATOM     11  C8  UNL     1       8.636   7.888  22.977  0.00  0.00    +0.021 C 
ATOM     12  C9  UNL     1       7.696   7.896  21.777  0.00  0.00    +0.026 C 
ATOM     13  C10 UNL     1       7.748   6.474  21.205  0.00  0.00    +0.102 C 
BRANCH  13  14
ATOM     14  C11 UNL     1       6.362   5.972  20.777  0.00  0.00    +0.178 C 
BRANCH  14  15
ATOM     15  O3  UNL     1       6.482   5.132  19.662  0.00  0.00    -0.393 OA
ATOM     16  H13 UNL     1       7.444   5.133  19.419  0.00  0.00    +0.209 HD
ENDBRANCH  14  15
ENDBRANCH  13  14
ENDBRANCH   4   7
BRANCH   1  19
ATOM     17  O1  UNL     1       7.174  -0.233  26.504  0.00  0.00    -0.270 OA
ATOM     18  C1  UNL     1       8.244  -0.028  27.140  0.00  0.00    +0.248 C 
ATOM     19  N1  UNL     1       9.318   0.694  26.512  0.00  0.00    -0.282 N 
ATOM     20  H1  UNL     1      10.296   0.470  26.802  0.00  0.00    +0.155 HD
BRANCH  18  21
ATOM     21  C14 UNL     1       8.397  -0.580  28.507  0.00  0.00    +0.041 A 
ATOM     22  C15 UNL     1       9.572  -1.299  28.858  0.00  0.00    +0.017 A 
ATOM     23  C16 UNL     1       9.729  -1.835  30.149  0.00  0.00    +0.050 A 
ATOM     24  C17 UNL     1       8.697  -1.645  31.061  0.00  0.00    +0.166 A 
ATOM     25  C18 UNL     1       7.568  -0.969  30.736  0.00  0.00    +0.167 A 
ATOM     26  C19 UNL     1       7.372  -0.420  29.471  0.00  0.00    +0.062 A 
ATOM     27  O4  UNL     1       6.719  -0.940  31.825  0.00  0.00    -0.453 OA
ATOM     28  C20 UNL     1       7.356  -1.641  32.902  0.00  0.00    +0.466 C 
ATOM     29  O5  UNL     1       8.617  -2.074  32.372  0.00  0.00    -0.453 OA
ENDBRANCH  18  21
ENDBRANCH   1  19
TORSDOF 5
ENDMDL
MODEL 6
REMARK VINA RESULT:    -6.185     13.528     15.957
REMARK INTER + INTRA:          -8.558
REMARK INTER:                  -7.783
REMARK INTRA:                  -0.775
REMARK UNBOUND:                -0.745
REMARK  Name = /home/qwerty/github/datacon2025hack/step_04_hit_selection/docking/ligands/lig_786.pdb
REMARK  5 active torsions:
REMARK  status: ('A' for Active; 'I' for Inactive)
REMARK    1  A    between atoms: C1_2  and  C14_19
REMARK    2  A    between atoms: N1_3  and  C2_4
REMARK    3  A    between atoms: C5_7  and  C6_8
REMARK    4  A    between atoms: C10_14  and  C11_15
REMARK    5  A    between atoms: C11_15  and  O3_16
REMARK                            x       y       z     vdW  Elec       q    Type
REMARK                         _______ _______ _______ _____ _____    ______ ____
ROOT
ATOM      1  C2  UNL     1       9.548  10.570  26.668  0.00  0.00    +0.034 A 
ATOM      2  C3  UNL     1       8.267  10.380  26.133  0.00  0.00    +0.024 A 
ATOM      3  C4  UNL     1       8.099  10.087  24.776  0.00  0.00    +0.015 A 
ATOM      4  C5  UNL     1       9.214   9.973  23.932  0.00  0.00    +0.037 A 
ATOM      5  C12 UNL     1      10.501  10.122  24.475  0.00  0.00    +0.015 A 
ATOM      6  C13 UNL     1      10.668  10.418  25.831  0.00  0.00    +0.024 A 
ENDROOT
BRANCH   4   7
ATOM      7  C6  UNL     1       9.046   9.649  22.499  0.00  0.00    +0.247 C 
ATOM      8  O2  UNL     1       8.775  10.576  21.688  0.00  0.00    -0.270 OA
ATOM      9  N2  UNL     1       9.175   8.299  22.016  0.00  0.00    -0.292 N 
ATOM     10  C7  UNL     1       8.711   7.146  22.775  0.00  0.00    +0.108 C 
ATOM     11  C8  UNL     1       8.446   6.055  21.747  0.00  0.00    +0.021 C 
ATOM     12  C9  UNL     1       9.234   6.461  20.506  0.00  0.00    +0.026 C 
ATOM     13  C10 UNL     1       9.420   7.978  20.615  0.00  0.00    +0.102 C 
BRANCH  13  14
ATOM     14  C11 UNL     1      10.829   8.420  20.194  0.00  0.00    +0.178 C 
BRANCH  14  15
ATOM     15  O3  UNL     1      10.750   9.573  19.402  0.00  0.00    -0.393 OA
ATOM     16  H13 UNL     1      10.492  10.310  20.014  0.00  0.00    +0.209 HD
ENDBRANCH  14  15
ENDBRANCH  13  14
ENDBRANCH   4   7
BRANCH   1  19
ATOM     17  O1  UNL     1       9.614  13.180  27.920  0.00  0.00    -0.270 OA
ATOM     18  C1  UNL     1       9.929  12.166  28.602  0.00  0.00    +0.248 C 
ATOM     19  N1  UNL     1       9.694  10.851  28.071  0.00  0.00    -0.282 N 
ATOM     20  H1  UNL     1       9.506  10.076  28.746  0.00  0.00    +0.155 HD
BRANCH  18  21
ATOM     21  C14 UNL     1      10.491  12.349  29.961  0.00  0.00    +0.041 A 
ATOM     22  C15 UNL     1      10.718  11.220  30.796  0.00  0.00    +0.017 A 
ATOM     23  C16 UNL     1      11.244  11.377  32.092  0.00  0.00    +0.050 A 
ATOM     24  C17 UNL     1      11.525  12.667  32.526  0.00  0.00    +0.166 A 
ATOM     25  C18 UNL     1      11.305  13.752  31.743  0.00  0.00    +0.167 A 
ATOM     26  C19 UNL     1      10.787  13.643  30.455  0.00  0.00    +0.062 A 
ATOM     27  O4  UNL     1      11.665  14.896  32.429  0.00  0.00    -0.453 OA
ATOM     28  C20 UNL     1      12.143  14.504  33.724  0.00  0.00    +0.466 C 
ATOM     29  O5  UNL     1      12.037  13.073  33.743  0.00  0.00    -0.453 OA
ENDBRANCH  18  21
ENDBRANCH   1  19
TORSDOF 5
ENDMDL
MODEL 7
REMARK VINA RESULT:    -6.158      5.594     12.996
REMARK INTER + INTRA:          -8.524
REMARK INTER:                  -7.967
REMARK INTRA:                  -0.557
REMARK UNBOUND:                -0.745
REMARK  Name = /home/qwerty/github/datacon2025hack/step_04_hit_selection/docking/ligands/lig_786.pdb
REMARK  5 active torsions:
REMARK  status: ('A' for Active; 'I' for Inactive)
REMARK    1  A    between atoms: C1_2  and  C14_19
REMARK    2  A    between atoms: N1_3  and  C2_4
REMARK    3  A    between atoms: C5_7  and  C6_8
REMARK    4  A    between atoms: C10_14  and  C11_15
REMARK    5  A    between atoms: C11_15  and  O3_16
REMARK                            x       y       z     vdW  Elec       q    Type
REMARK                         _______ _______ _______ _____ _____    ______ ____
ROOT
ATOM      1  C2  UNL     1      18.881   0.788  31.456  0.00  0.00    +0.034 A 
ATOM      2  C3  UNL     1      18.283   1.268  30.283  0.00  0.00    +0.024 A 
ATOM      3  C4  UNL     1      19.040   1.452  29.123  0.00  0.00    +0.015 A 
ATOM      4  C5  UNL     1      20.411   1.152  29.116  0.00  0.00    +0.037 A 
ATOM      5  C12 UNL     1      21.003   0.632  30.278  0.00  0.00    +0.015 A 
ATOM      6  C13 UNL     1      20.246   0.450  31.439  0.00  0.00    +0.024 A 
ENDROOT
BRANCH   4   7
ATOM      7  C6  UNL     1      21.216   1.330  27.889  0.00  0.00    +0.247 C 
ATOM      8  O2  UNL     1      21.823   0.337  27.404  0.00  0.00    -0.270 OA
ATOM      9  N2  UNL     1      21.330   2.614  27.246  0.00  0.00    -0.292 N 
ATOM     10  C7  UNL     1      21.403   3.862  27.992  0.00  0.00    +0.108 C 
ATOM     11  C8  UNL     1      22.113   4.849  27.077  0.00  0.00    +0.021 C 
ATOM     12  C9  UNL     1      21.976   4.276  25.671  0.00  0.00    +0.026 C 
ATOM     13  C10 UNL     1      21.753   2.771  25.860  0.00  0.00    +0.102 C 
BRANCH  13  14
ATOM     14  C11 UNL     1      20.689   2.219  24.900  0.00  0.00    +0.178 C 
BRANCH  14  15
ATOM     15  O3  UNL     1      21.215   2.134  23.604  0.00  0.00    -0.393 OA
ATOM     16  H13 UNL     1      21.275   3.066  23.269  0.00  0.00    +0.209 HD
ENDBRANCH  14  15
ENDBRANCH  13  14
ENDBRANCH   4   7
BRANCH   1  19
ATOM     17  O1  UNL     1      18.640   2.575  33.722  0.00  0.00    -0.270 OA
ATOM     18  C1  UNL     1      18.162   1.410  33.808  0.00  0.00    +0.248 C 
ATOM     19  N1  UNL     1      18.074   0.589  32.631  0.00  0.00    -0.282 N 
ATOM     20  H1  UNL     1      17.307  -0.118  32.582  0.00  0.00    +0.155 HD
BRANCH  18  21
ATOM     21  C14 UNL     1      17.650   0.927  35.112  0.00  0.00    +0.041 A 
ATOM     22  C15 UNL     1      18.111   1.516  36.322  0.00  0.00    +0.017 A 
ATOM     23  C16 UNL     1      17.641   1.063  37.568  0.00  0.00    +0.050 A 
ATOM     24  C17 UNL     1      16.720   0.021  37.575  0.00  0.00    +0.166 A 
ATOM     25  C18 UNL     1      16.280  -0.555  36.429  0.00  0.00    +0.167 A 
ATOM     26  C19 UNL     1      16.718  -0.138  35.175  0.00  0.00    +0.062 A 
ATOM     27  O4  UNL     1      15.384  -1.561  36.735  0.00  0.00    -0.453 OA
ATOM     28  C20 UNL     1      15.253  -1.619  38.162  0.00  0.00    +0.466 C 
ATOM     29  O5  UNL     1      16.123  -0.592  38.659  0.00  0.00    -0.453 OA
ENDBRANCH  18  21
ENDBRANCH   1  19
TORSDOF 5
ENDMDL
MODEL 8
REMARK VINA RESULT:    -6.117     14.062     15.518
REMARK INTER + INTRA:          -8.471
REMARK INTER:                  -7.663
REMARK INTRA:                  -0.808
REMARK UNBOUND:                -0.745
REMARK  Name = /home/qwerty/github/datacon2025hack/step_04_hit_selection/docking/ligands/lig_786.pdb
REMARK  5 active torsions:
REMARK  status: ('A' for Active; 'I' for Inactive)
REMARK    1  A    between atoms: C1_2  and  C14_19
REMARK    2  A    between atoms: N1_3  and  C2_4
REMARK    3  A    between atoms: C5_7  and  C6_8
REMARK    4  A    between atoms: C10_14  and  C11_15
REMARK    5  A    between atoms: C11_15  and  O3_16
REMARK                            x       y       z     vdW  Elec       q    Type
REMARK                         _______ _______ _______ _____ _____    ______ ____
ROOT
ATOM      1  C2  UNL     1      10.909  12.409  30.645  0.00  0.00    +0.034 A 
ATOM      2  C3  UNL     1      10.988  13.714  31.150  0.00  0.00    +0.024 A 
ATOM      3  C4  UNL     1      11.278  13.938  32.499  0.00  0.00    +0.015 A 
ATOM      4  C5  UNL     1      11.499  12.858  33.366  0.00  0.00    +0.037 A 
ATOM      5  C12 UNL     1      11.461  11.551  32.854  0.00  0.00    +0.015 A 
ATOM      6  C13 UNL     1      11.168  11.327  31.505  0.00  0.00    +0.024 A 
ENDROOT
BRANCH   4   7
ATOM      7  C6  UNL     1      11.821  13.087  34.791  0.00  0.00    +0.247 C 
ATOM      8  O2  UNL     1      10.891  13.380  35.591  0.00  0.00    -0.270 OA
ATOM      9  N2  UNL     1      13.173  12.994  35.279  0.00  0.00    -0.292 N 
ATOM     10  C7  UNL     1      14.320  13.442  34.502  0.00  0.00    +0.108 C 
ATOM     11  C8  UNL     1      15.407  13.760  35.518  0.00  0.00    +0.021 C 
ATOM     12  C9  UNL     1      15.011  13.018  36.790  0.00  0.00    +0.026 C 
ATOM     13  C10 UNL     1      13.495  12.809  36.688  0.00  0.00    +0.102 C 
BRANCH  13  14
ATOM     14  C11 UNL     1      13.070  11.413  37.166  0.00  0.00    +0.178 C 
BRANCH  14  15
ATOM     15  O3  UNL     1      11.881  11.502  37.902  0.00  0.00    -0.393 OA
ATOM     16  H13 UNL     1      11.258  12.045  37.353  0.00  0.00    +0.209 HD
ENDBRANCH  14  15
ENDBRANCH  13  14
ENDBRANCH   4   7
BRANCH   1  19
ATOM     17  O1  UNL     1       8.363  11.682  29.472  0.00  0.00    -0.270 OA
ATOM     18  C1  UNL     1       9.401  11.644  28.754  0.00  0.00    +0.248 C 
ATOM     19  N1  UNL     1      10.628  12.206  29.249  0.00  0.00    -0.282 N 
ATOM     20  H1  UNL     1      11.305  12.593  28.554  0.00  0.00    +0.155 HD
BRANCH  18  21
ATOM     21  C14 UNL     1       9.324  11.064  27.392  0.00  0.00    +0.041 A 
ATOM     22  C15 UNL     1       8.084  10.583  26.891  0.00  0.00    +0.017 A 
ATOM     23  C16 UNL     1       7.997  10.024  25.603  0.00  0.00    +0.050 A 
ATOM     24  C17 UNL     1       9.160   9.952  24.846  0.00  0.00    +0.166 A 
ATOM     25  C18 UNL     1      10.351  10.399  25.316  0.00  0.00    +0.167 A 
ATOM     26  C19 UNL     1      10.482  10.961  26.583  0.00  0.00    +0.062 A 
ATOM     27  O4  UNL     1      11.328  10.197  24.361  0.00  0.00    -0.453 OA
ATOM     28  C20 UNL     1      10.711   9.586  23.219  0.00  0.00    +0.466 C 
ATOM     29  O5  UNL     1       9.327   9.448  23.571  0.00  0.00    -0.453 OA
ENDBRANCH  18  21
ENDBRANCH   1  19
TORSDOF 5
ENDMDL
MODEL 9
REMARK VINA RESULT:    -6.050     11.910     14.799
REMARK INTER + INTRA:          -8.386
REMARK INTER:                  -7.650
REMARK INTRA:                  -0.736
REMARK UNBOUND:                -0.745
REMARK  Name = /home/qwerty/github/datacon2025hack/step_04_hit_selection/docking/ligands/lig_786.pdb
REMARK  5 active torsions:
REMARK  status: ('A' for Active; 'I' for Inactive)
REMARK    1  A    between atoms: C1_2  and  C14_19
REMARK    2  A    between atoms: N1_3  and  C2_4
REMARK    3  A    between atoms: C5_7  and  C6_8
REMARK    4  A    between atoms: C10_14  and  C11_15
REMARK    5  A    between atoms: C11_15  and  O3_16
REMARK                            x       y       z     vdW  Elec       q    Type
REMARK                         _______ _______ _______ _____ _____    ______ ____
ROOT
ATOM      1  C2  UNL     1      18.119  10.768  35.438  0.00  0.00    +0.034 A 
ATOM      2  C3  UNL     1      18.151   9.384  35.219  0.00  0.00    +0.024 A 
ATOM      3  C4  UNL     1      19.369   8.699  35.177  0.00  0.00    +0.015 A 
ATOM      4  C5  UNL     1      20.578   9.389  35.358  0.00  0.00    +0.037 A 
ATOM      5  C12 UNL     1      20.545  10.768  35.618  0.00  0.00    +0.015 A 
ATOM      6  C13 UNL     1      19.327  11.453  35.658  0.00  0.00    +0.024 A 
ENDROOT
BRANCH   4   7
ATOM      7  C6  UNL     1      21.869   8.670  35.329  0.00  0.00    +0.247 C 
ATOM      8  O2  UNL     1      22.342   8.214  36.405  0.00  0.00    -0.270 OA
ATOM      9  N2  UNL     1      22.600   8.491  34.101  0.00  0.00    -0.292 N 
ATOM     10  C7  UNL     1      22.653   9.510  33.062  0.00  0.00    +0.108 C 
ATOM     11  C8  UNL     1      23.936   9.245  32.289  0.00  0.00    +0.021 C 
ATOM     12  C9  UNL     1      24.310   7.800  32.598  0.00  0.00    +0.026 C 
ATOM     13  C10 UNL     1      23.634   7.477  33.935  0.00  0.00    +0.102 C 
BRANCH  13  14
ATOM     14  C11 UNL     1      23.023   6.068  33.950  0.00  0.00    +0.178 C 
BRANCH  14  15
ATOM     15  O3  UNL     1      23.228   5.472  35.201  0.00  0.00    -0.393 OA
ATOM     16  H13 UNL     1      23.720   6.139  35.746  0.00  0.00    +0.209 HD
ENDBRANCH  14  15
ENDBRANCH  13  14
ENDBRANCH   4   7
BRANCH   1  19
ATOM     17  O1  UNL     1      16.556  11.327  37.811  0.00  0.00    -0.270 OA
ATOM     18  C1  UNL     1      16.031  11.504  36.677  0.00  0.00    +0.248 C 
ATOM     19  N1  UNL     1      16.851  11.445  35.497  0.00  0.00    -0.282 N 
ATOM     20  H1  UNL     1      16.567  12.020  34.672  0.00  0.00    +0.155 HD
BRANCH  18  21
ATOM     21  C14 UNL     1      14.587  11.821  36.583  0.00  0.00    +0.041 A 
ATOM     22  C15 UNL     1      13.617  10.841  36.932  0.00  0.00    +0.017 A 
ATOM     23  C16 UNL     1      12.243  11.125  36.842  0.00  0.00    +0.050 A 
ATOM     24  C17 UNL     1      11.868  12.386  36.396  0.00  0.00    +0.166 A 
ATOM     25  C18 UNL     1      12.781  13.327  36.051  0.00  0.00    +0.167 A 
ATOM     26  C19 UNL     1      14.152  13.090  36.126  0.00  0.00    +0.062 A 
ATOM     27  O4  UNL     1      12.130  14.473  35.640  0.00  0.00    -0.453 OA
ATOM     28  C20 UNL     1      10.718  14.238  35.734  0.00  0.00    +0.466 C 
ATOM     29  O5  UNL     1      10.595  12.894  36.221  0.00  0.00    -0.453 OA
ENDBRANCH  18  21
ENDBRANCH   1  19
TORSDOF 5
ENDMDL
