REMARK  Name = /home/qwerty/github/datacon2025hack/step_04_hit_selection/docking/ligands/lig_688.pdb
REMARK  6 active torsions:
REMARK  status: ('A' for Active; 'I' for Inactive)
REMARK    1  A    between atoms: C1_1  and  C2_2
REMARK    2  A    between atoms: C2_2  and  C3_3
REMARK    3  A    between atoms: C5_5  and  C6_6
REMARK    4  A    between atoms: C6_6  and  C7_7
REMARK    5  A    between atoms: N1_9  and  C8_10
REMARK    6  A    between atoms: C13_17  and  C14_19
REMARK                            x       y       z     vdW  Elec       q    Type
REMARK                         _______ _______ _______ _____ _____    ______ ____
ROOT
ATOM      1  C8  UNL     1      -0.721  -2.613  -0.313  0.00  0.00    +0.035 A 
ATOM      2  C9  UNL     1      -0.088  -3.627   0.443  0.00  0.00    +0.025 A 
ATOM      3  C10 UNL     1       1.229  -3.468   0.901  0.00  0.00    +0.031 A 
ATOM      4  C11 UNL     1       1.901  -2.281   0.612  0.00  0.00    +0.080 A 
ATOM      5  N2  UNL     1       3.170  -2.004   1.003  0.00  0.00    -0.225 NA
ATOM      6  C12 UNL     1       3.545  -0.767   0.595  0.00  0.00    +0.166 A 
ATOM      7  N3  UNL     1       4.860  -0.249   0.836  0.00  0.00    -0.261 N 
ATOM      8  C13 UNL     1       5.220   1.132   0.680  0.00  0.00    +0.250 C 
ATOM      9  O2  UNL     1       4.325   2.019   0.692  0.00  0.00    -0.270 OA
ATOM     10  S1  UNL     1       2.324   0.018  -0.285  0.00  0.00    -0.052 S 
ATOM     11  C20 UNL     1       1.275  -1.281  -0.114  0.00  0.00    +0.043 A 
ATOM     12  C21 UNL     1      -0.026  -1.413  -0.586  0.00  0.00    +0.040 A 
ATOM     13  H15 UNL     1       5.580  -0.918   1.186  0.00  0.00    +0.157 HD
ENDROOT
BRANCH   8  14
ATOM     14  C14 UNL     1       6.641   1.535   0.551  0.00  0.00    +0.037 A 
ATOM     15  C15 UNL     1       7.608   0.633   0.071  0.00  0.00    +0.013 A 
ATOM     16  C16 UNL     1       8.945   1.026  -0.047  0.00  0.00    +0.001 A 
ATOM     17  C17 UNL     1       9.331   2.321   0.307  0.00  0.00    +0.000 A 
ATOM     18  C18 UNL     1       8.379   3.227   0.777  0.00  0.00    +0.001 A 
ATOM     19  C19 UNL     1       7.041   2.840   0.896  0.00  0.00    +0.013 A 
ENDBRANCH   8  14
BRANCH   1  22
ATOM     20  C7  UNL     1      -2.639  -2.214  -1.920  0.00  0.00    +0.218 C 
ATOM     21  O1  UNL     1      -1.887  -1.870  -2.873  0.00  0.00    -0.275 OA
ATOM     22  N1  UNL     1      -2.084  -2.792  -0.726  0.00  0.00    -0.285 N 
ATOM     23  H12 UNL     1      -2.701  -3.400  -0.139  0.00  0.00    +0.155 HD
BRANCH  20  24
ATOM     24  C6  UNL     1      -4.123  -2.031  -2.049  0.00  0.00    +0.109 C 
BRANCH  24  27
ATOM     25  C3  UNL     1      -5.538   0.741  -0.140  0.00  0.00    +0.073 C 
ATOM     26  C4  UNL     1      -4.207   0.128  -0.651  0.00  0.00    +0.035 C 
ATOM     27  C5  UNL     1      -4.495  -0.539  -2.018  0.00  0.00    +0.085 C 
ATOM     28  C22 UNL     1      -5.955  -0.348  -2.177  0.00  0.00    +0.217 C 
ATOM     29  O3  UNL     1      -6.614  -0.753  -3.170  0.00  0.00    -0.275 OA
ATOM     30  N4  UNL     1      -6.545   0.372  -1.119  0.00  0.00    -0.312 N 
ATOM     31  H22 UNL     1      -7.568   0.560  -1.031  0.00  0.00    +0.149 HD
BRANCH  25  33
ATOM     32  C1  UNL     1      -6.702   2.876   0.622  0.00  0.00    +0.006 C 
ATOM     33  C2  UNL     1      -5.445   2.272  -0.004  0.00  0.00    +0.019 C 
ENDBRANCH  25  33
ENDBRANCH  24  27
ENDBRANCH  20  24
ENDBRANCH   1  22
TORSDOF 5
