MODEL 1
REMARK VINA RESULT:    -6.247      0.000      0.000
REMARK INTER + INTRA:          -6.822
REMARK INTER:                  -6.978
REMARK INTRA:                   0.156
REMARK UNBOUND:                 0.156
REMARK  Name = /home/qwerty/github/datacon2025hack/step_04_hit_selection/docking/ligands/lig_350.pdb
REMARK  2 active torsions:
REMARK  status: ('A' for Active; 'I' for Inactive)
REMARK    1  A    between atoms: C1_2  and  C2_3
REMARK    2  A    between atoms: N4_18  and  C13_19
REMARK                            x       y       z     vdW  Elec       q    Type
REMARK                         _______ _______ _______ _____ _____    ______ ____
ROOT
ATOM      1  O1  UNL     1      20.970   1.954  25.028  0.00  0.00    -0.268 OA
ATOM      2  C1  UNL     1      20.403   1.418  26.016  0.00  0.00    +0.263 C 
ATOM      3  N3  UNL     1      20.860   1.751  27.330  0.00  0.00    -0.293 N 
ATOM      4  C9  UNL     1      20.575   1.422  28.747  0.00  0.00    +0.132 C 
ATOM      5  C10 UNL     1      21.646   2.294  29.314  0.00  0.00    +0.055 C 
ATOM      6  C11 UNL     1      22.680   1.657  30.214  0.00  0.00    +0.041 C 
ATOM      7  C12 UNL     1      22.140   2.647  31.251  0.00  0.00    +0.087 C 
ATOM      8  N4  UNL     1      21.182   3.270  30.309  0.00  0.00    -0.291 NA
ATOM      9  C18 UNL     1      21.910   2.637  27.880  0.00  0.00    +0.132 C 
ENDROOT
BRANCH   2  10
ATOM     10  C2  UNL     1      19.294   0.468  25.778  0.00  0.00    +0.104 A 
ATOM     11  C3  UNL     1      18.018   0.602  26.332  0.00  0.00    +0.042 A 
ATOM     12  C4  UNL     1      17.308  -0.480  25.863  0.00  0.00    +0.021 A 
ATOM     13  C5  UNL     1      15.994  -0.882  26.073  0.00  0.00    +0.033 A 
ATOM     14  C6  UNL     1      15.571  -2.064  25.437  0.00  0.00    +0.060 A 
ATOM     15 CL1  UNL     1      13.927  -2.637  25.651  0.00  0.00    -0.082 Cl
ATOM     16  C7  UNL     1      16.476  -2.787  24.626  0.00  0.00    +0.133 A 
ATOM     17  N1  UNL     1      17.759  -2.347  24.454  0.00  0.00    -0.236 NA
ATOM     18  C8  UNL     1      18.152  -1.205  25.074  0.00  0.00    +0.139 A 
ATOM     19  N2  UNL     1      19.369  -0.647  25.006  0.00  0.00    -0.335 N 
ATOM     20  H4  UNL     1      20.181  -1.018  24.469  0.00  0.00    +0.167 HD
ENDBRANCH   2  10
BRANCH   8  21
ATOM     21  C13 UNL     1      21.441   4.710  30.021  0.00  0.00    +0.057 C 
ATOM     22  C14 UNL     1      20.164   5.392  29.509  0.00  0.00    +0.019 C 
ATOM     23  C15 UNL     1      19.777   6.430  30.549  0.00  0.00    +0.002 C 
ATOM     24  C16 UNL     1      21.063   6.805  31.261  0.00  0.00    +0.002 C 
ATOM     25  C17 UNL     1      21.962   5.578  31.193  0.00  0.00    +0.019 C 
ENDBRANCH   8  21
TORSDOF 2
ENDMDL
MODEL 2
REMARK VINA RESULT:    -6.167     12.920     14.347
REMARK INTER + INTRA:          -6.732
REMARK INTER:                  -6.864
REMARK INTRA:                   0.131
REMARK UNBOUND:                 0.156
REMARK  Name = /home/qwerty/github/datacon2025hack/step_04_hit_selection/docking/ligands/lig_350.pdb
REMARK  2 active torsions:
REMARK  status: ('A' for Active; 'I' for Inactive)
REMARK    1  A    between atoms: C1_2  and  C2_3
REMARK    2  A    between atoms: N4_18  and  C13_19
REMARK                            x       y       z     vdW  Elec       q    Type
REMARK                         _______ _______ _______ _____ _____    ______ ____
ROOT
ATOM      1  O1  UNL     1       7.162   8.952  26.882  0.00  0.00    -0.268 OA
ATOM      2  C1  UNL     1       7.957   9.862  26.525  0.00  0.00    +0.263 C 
ATOM      3  N3  UNL     1       8.471  10.751  27.522  0.00  0.00    -0.293 N 
ATOM      4  C9  UNL     1       9.367  11.925  27.641  0.00  0.00    +0.132 C 
ATOM      5  C10 UNL     1       9.189  12.091  29.113  0.00  0.00    +0.055 C 
ATOM      6  C11 UNL     1       8.699  13.428  29.625  0.00  0.00    +0.041 C 
ATOM      7  C12 UNL     1      10.034  13.438  30.377  0.00  0.00    +0.087 C 
ATOM      8  N4  UNL     1      10.438  12.100  29.886  0.00  0.00    -0.291 NA
ATOM      9  C18 UNL     1       8.303  10.890  28.986  0.00  0.00    +0.132 C 
ENDROOT
BRANCH   2  10
ATOM     10  C2  UNL     1       8.321   9.976  25.096  0.00  0.00    +0.104 A 
ATOM     11  C3  UNL     1       9.584   9.668  24.584  0.00  0.00    +0.042 A 
ATOM     12  C4  UNL     1       9.494   9.914  23.233  0.00  0.00    +0.021 A 
ATOM     13  C5  UNL     1      10.426   9.792  22.209  0.00  0.00    +0.033 A 
ATOM     14  C6  UNL     1      10.007  10.132  20.910  0.00  0.00    +0.060 A 
ATOM     15 CL1  UNL     1      11.124  10.005  19.564  0.00  0.00    -0.082 Cl
ATOM     16  C7  UNL     1       8.681  10.579  20.695  0.00  0.00    +0.133 A 
ATOM     17  N1  UNL     1       7.805  10.681  21.739  0.00  0.00    -0.236 NA
ATOM     18  C8  UNL     1       8.225  10.348  22.986  0.00  0.00    +0.139 A 
ATOM     19  N2  UNL     1       7.490  10.395  24.106  0.00  0.00    -0.335 N 
ATOM     20  H4  UNL     1       6.496  10.698  24.171  0.00  0.00    +0.167 HD
ENDBRANCH   2  10
BRANCH   8  21
ATOM     21  C13 UNL     1      10.585  11.067  30.952  0.00  0.00    +0.057 C 
ATOM     22  C14 UNL     1      11.410   9.880  30.436  0.00  0.00    +0.019 C 
ATOM     23  C15 UNL     1      12.689   9.848  31.256  0.00  0.00    +0.002 C 
ATOM     24  C16 UNL     1      12.352  10.514  32.576  0.00  0.00    +0.002 C 
ATOM     25  C17 UNL     1      11.245  11.516  32.279  0.00  0.00    +0.019 C 
ENDBRANCH   8  21
TORSDOF 2
ENDMDL
MODEL 3
REMARK VINA RESULT:    -6.166      6.564      8.966
REMARK INTER + INTRA:          -6.731
REMARK INTER:                  -6.869
REMARK INTRA:                   0.137
REMARK UNBOUND:                 0.156
REMARK  Name = /home/qwerty/github/datacon2025hack/step_04_hit_selection/docking/ligands/lig_350.pdb
REMARK  2 active torsions:
REMARK  status: ('A' for Active; 'I' for Inactive)
REMARK    1  A    between atoms: C1_2  and  C2_3
REMARK    2  A    between atoms: N4_18  and  C13_19
REMARK                            x       y       z     vdW  Elec       q    Type
REMARK                         _______ _______ _______ _____ _____    ______ ____
ROOT
ATOM      1  O1  UNL     1      14.889   1.114  19.569  0.00  0.00    -0.268 OA
ATOM      2  C1  UNL     1      14.316   1.334  20.669  0.00  0.00    +0.263 C 
ATOM      3  N3  UNL     1      14.811   0.679  21.840  0.00  0.00    -0.293 N 
ATOM      4  C9  UNL     1      14.522   0.577  23.290  0.00  0.00    +0.132 C 
ATOM      5  C10 UNL     1      15.618  -0.392  23.587  0.00  0.00    +0.055 C 
ATOM      6  C11 UNL     1      15.249  -1.704  24.242  0.00  0.00    +0.041 C 
ATOM      7  C12 UNL     1      16.178  -1.213  25.357  0.00  0.00    +0.087 C 
ATOM      8  N4  UNL     1      16.545   0.032  24.644  0.00  0.00    -0.291 NA
ATOM      9  C18 UNL     1      15.916  -0.264  22.125  0.00  0.00    +0.132 C 
ENDROOT
BRANCH   2  10
ATOM     10  C2  UNL     1      13.158   2.252  20.702  0.00  0.00    +0.104 A 
ATOM     11  C3  UNL     1      13.194   3.573  20.246  0.00  0.00    +0.042 A 
ATOM     12  C4  UNL     1      11.925   4.061  20.460  0.00  0.00    +0.021 A 
ATOM     13  C5  UNL     1      11.362   5.307  20.210  0.00  0.00    +0.033 A 
ATOM     14  C6  UNL     1      10.010   5.487  20.556  0.00  0.00    +0.060 A 
ATOM     15 CL1  UNL     1       9.227   7.030  20.271  0.00  0.00    -0.082 Cl
ATOM     16  C7  UNL     1       9.286   4.418  21.135  0.00  0.00    +0.133 A 
ATOM     17  N1  UNL     1       9.890   3.212  21.360  0.00  0.00    -0.236 NA
ATOM     18  C8  UNL     1      11.194   3.055  21.020  0.00  0.00    +0.139 A 
ATOM     19  N2  UNL     1      11.924   1.941  21.178  0.00  0.00    -0.335 N 
ATOM     20  H4  UNL     1      11.587   1.045  21.587  0.00  0.00    +0.167 HD
ENDBRANCH   2  10
BRANCH   8  21
ATOM     21  C13 UNL     1      17.987   0.138  24.280  0.00  0.00    +0.057 C 
ATOM     22  C14 UNL     1      18.359   1.597  23.986  0.00  0.00    +0.019 C 
ATOM     23  C15 UNL     1      19.356   2.018  25.052  0.00  0.00    +0.002 C 
ATOM     24  C16 UNL     1      20.030   0.741  25.518  0.00  0.00    +0.002 C 
ATOM     25  C17 UNL     1      19.013  -0.374  25.322  0.00  0.00    +0.019 C 
ENDBRANCH   8  21
TORSDOF 2
ENDMDL
MODEL 4
REMARK VINA RESULT:    -6.146     12.734     15.487
REMARK INTER + INTRA:          -6.708
REMARK INTER:                  -6.955
REMARK INTRA:                   0.246
REMARK UNBOUND:                 0.156
REMARK  Name = /home/qwerty/github/datacon2025hack/step_04_hit_selection/docking/ligands/lig_350.pdb
REMARK  2 active torsions:
REMARK  status: ('A' for Active; 'I' for Inactive)
REMARK    1  A    between atoms: C1_2  and  C2_3
REMARK    2  A    between atoms: N4_18  and  C13_19
REMARK                            x       y       z     vdW  Elec       q    Type
REMARK                         _______ _______ _______ _____ _____    ______ ____
ROOT
ATOM      1  O1  UNL     1      24.961  15.528  23.593  0.00  0.00    -0.268 OA
ATOM      2  C1  UNL     1      23.819  15.108  23.917  0.00  0.00    +0.263 C 
ATOM      3  N3  UNL     1      22.874  14.825  22.880  0.00  0.00    -0.293 N 
ATOM      4  C9  UNL     1      21.479  14.353  22.715  0.00  0.00    +0.132 C 
ATOM      5  C10 UNL     1      21.474  14.444  21.225  0.00  0.00    +0.055 C 
ATOM      6  C11 UNL     1      20.410  15.296  20.568  0.00  0.00    +0.041 C 
ATOM      7  C12 UNL     1      20.005  13.976  19.903  0.00  0.00    +0.087 C 
ATOM      8  N4  UNL     1      21.099  13.204  20.534  0.00  0.00    -0.291 NA
ATOM      9  C18 UNL     1      22.890  14.898  21.402  0.00  0.00    +0.132 C 
ENDROOT
BRANCH   2  10
ATOM     10  C2  UNL     1      23.501  14.929  25.350  0.00  0.00    +0.104 A 
ATOM     11  C3  UNL     1      22.624  15.750  26.065  0.00  0.00    +0.042 A 
ATOM     12  C4  UNL     1      22.619  15.242  27.344  0.00  0.00    +0.021 A 
ATOM     13  C5  UNL     1      21.942  15.639  28.491  0.00  0.00    +0.033 A 
ATOM     14  C6  UNL     1      22.163  14.893  29.663  0.00  0.00    +0.060 A 
ATOM     15 CL1  UNL     1      21.345  15.330  31.151  0.00  0.00    -0.082 Cl
ATOM     16  C7  UNL     1      23.049  13.790  29.636  0.00  0.00    +0.133 A 
ATOM     17  N1  UNL     1      23.691  13.443  28.479  0.00  0.00    -0.236 NA
ATOM     18  C8  UNL     1      23.466  14.173  27.357  0.00  0.00    +0.139 A 
ATOM     19  N2  UNL     1      24.016  13.961  26.153  0.00  0.00    -0.335 N 
ATOM     20  H4  UNL     1      24.695  13.208  25.917  0.00  0.00    +0.167 HD
ENDBRANCH   2  10
BRANCH   8  21
ATOM     21  C13 UNL     1      22.090  12.634  19.576  0.00  0.00    +0.057 C 
ATOM     22  C14 UNL     1      23.101  11.746  20.315  0.00  0.00    +0.019 C 
ATOM     23  C15 UNL     1      22.895  10.330  19.801  0.00  0.00    +0.002 C 
ATOM     24  C16 UNL     1      22.307  10.475  18.410  0.00  0.00    +0.002 C 
ATOM     25  C17 UNL     1      21.530  11.783  18.409  0.00  0.00    +0.019 C 
ENDBRANCH   8  21
TORSDOF 2
ENDMDL
MODEL 5
REMARK VINA RESULT:    -6.138      6.079      9.016
REMARK INTER + INTRA:          -6.699
REMARK INTER:                  -6.848
REMARK INTRA:                   0.148
REMARK UNBOUND:                 0.156
REMARK  Name = /home/qwerty/github/datacon2025hack/step_04_hit_selection/docking/ligands/lig_350.pdb
REMARK  2 active torsions:
REMARK  status: ('A' for Active; 'I' for Inactive)
REMARK    1  A    between atoms: C1_2  and  C2_3
REMARK    2  A    between atoms: N4_18  and  C13_19
REMARK                            x       y       z     vdW  Elec       q    Type
REMARK                         _______ _______ _______ _____ _____    ______ ____
ROOT
ATOM      1  O1  UNL     1      23.800   5.949  34.971  0.00  0.00    -0.268 OA
ATOM      2  C1  UNL     1      22.580   5.718  34.760  0.00  0.00    +0.263 C 
ATOM      3  N3  UNL     1      21.607   6.570  35.370  0.00  0.00    -0.293 N 
ATOM      4  C9  UNL     1      20.136   6.729  35.460  0.00  0.00    +0.132 C 
ATOM      5  C10 UNL     1      20.176   7.911  36.371  0.00  0.00    +0.055 C 
ATOM      6  C11 UNL     1      19.437   7.820  37.688  0.00  0.00    +0.041 C 
ATOM      7  C12 UNL     1      18.650   9.012  37.134  0.00  0.00    +0.087 C 
ATOM      8  N4  UNL     1      19.443   9.087  35.885  0.00  0.00    -0.291 NA
ATOM      9  C18 UNL     1      21.661   7.756  36.255  0.00  0.00    +0.132 C 
ENDROOT
BRANCH   2  10
ATOM     10  C2  UNL     1      22.206   4.576  33.898  0.00  0.00    +0.104 A 
ATOM     11  C3  UNL     1      22.737   4.352  32.624  0.00  0.00    +0.042 A 
ATOM     12  C4  UNL     1      22.126   3.202  32.178  0.00  0.00    +0.021 A 
ATOM     13  C5  UNL     1      22.249   2.495  30.988  0.00  0.00    +0.033 A 
ATOM     14  C6  UNL     1      21.464   1.337  30.840  0.00  0.00    +0.060 A 
ATOM     15 CL1  UNL     1      21.563   0.389  29.368  0.00  0.00    -0.082 Cl
ATOM     16  C7  UNL     1      20.595   0.941  31.884  0.00  0.00    +0.133 A 
ATOM     17  N1  UNL     1      20.512   1.675  33.035  0.00  0.00    -0.236 NA
ATOM     18  C8  UNL     1      21.276   2.789  33.161  0.00  0.00    +0.139 A 
ATOM     19  N2  UNL     1      21.308   3.610  34.221  0.00  0.00    -0.335 N 
ATOM     20  H4  UNL     1      20.745   3.505  35.090  0.00  0.00    +0.167 HD
ENDBRANCH   2  10
BRANCH   8  21
ATOM     21  C13 UNL     1      20.219  10.350  35.717  0.00  0.00    +0.057 C 
ATOM     22  C14 UNL     1      20.578  10.565  34.240  0.00  0.00    +0.019 C 
ATOM     23  C15 UNL     1      19.848  11.821  33.792  0.00  0.00    +0.002 C 
ATOM     24  C16 UNL     1      19.636  12.647  35.046  0.00  0.00    +0.002 C 
ATOM     25  C17 UNL     1      19.544  11.658  36.199  0.00  0.00    +0.019 C 
ENDBRANCH   8  21
TORSDOF 2
ENDMDL
MODEL 6
REMARK VINA RESULT:    -6.120     10.572     13.259
REMARK INTER + INTRA:          -6.680
REMARK INTER:                  -6.802
REMARK INTRA:                   0.122
REMARK UNBOUND:                 0.156
REMARK  Name = /home/qwerty/github/datacon2025hack/step_04_hit_selection/docking/ligands/lig_350.pdb
REMARK  2 active torsions:
REMARK  status: ('A' for Active; 'I' for Inactive)
REMARK    1  A    between atoms: C1_2  and  C2_3
REMARK    2  A    between atoms: N4_18  and  C13_19
REMARK                            x       y       z     vdW  Elec       q    Type
REMARK                         _______ _______ _______ _____ _____    ______ ____
ROOT
ATOM      1  O1  UNL     1      20.893  12.654  35.764  0.00  0.00    -0.268 OA
ATOM      2  C1  UNL     1      20.278  11.556  35.710  0.00  0.00    +0.263 C 
ATOM      3  N3  UNL     1      18.862  11.555  35.912  0.00  0.00    -0.293 N 
ATOM      4  C9  UNL     1      17.725  10.607  35.965  0.00  0.00    +0.132 C 
ATOM      5  C10 UNL     1      16.691  11.640  36.264  0.00  0.00    +0.055 C 
ATOM      6  C11 UNL     1      15.848  11.465  37.508  0.00  0.00    +0.041 C 
ATOM      7  C12 UNL     1      14.685  11.434  36.511  0.00  0.00    +0.087 C 
ATOM      8  N4  UNL     1      15.555  11.661  35.333  0.00  0.00    -0.291 NA
ATOM      9  C18 UNL     1      17.843  12.593  36.186  0.00  0.00    +0.132 C 
ENDROOT
BRANCH   2  10
ATOM     10  C2  UNL     1      21.043  10.319  35.446  0.00  0.00    +0.104 A 
ATOM     11  C3  UNL     1      21.380   9.865  34.168  0.00  0.00    +0.042 A 
ATOM     12  C4  UNL     1      22.077   8.697  34.373  0.00  0.00    +0.021 A 
ATOM     13  C5  UNL     1      22.660   7.802  33.483  0.00  0.00    +0.033 A 
ATOM     14  C6  UNL     1      23.310   6.679  34.028  0.00  0.00    +0.060 A 
ATOM     15 CL1  UNL     1      24.071   5.505  32.971  0.00  0.00    -0.082 Cl
ATOM     16  C7  UNL     1      23.347   6.503  35.432  0.00  0.00    +0.133 A 
ATOM     17  N1  UNL     1      22.756   7.414  36.262  0.00  0.00    -0.236 NA
ATOM     18  C8  UNL     1      22.133   8.491  35.720  0.00  0.00    +0.139 A 
ATOM     19  N2  UNL     1      21.510   9.467  36.396  0.00  0.00    -0.335 N 
ATOM     20  H4  UNL     1      21.417   9.528  37.432  0.00  0.00    +0.167 HD
ENDBRANCH   2  10
BRANCH   8  21
ATOM     21  C13 UNL     1      15.296  12.938  34.607  0.00  0.00    +0.057 C 
ATOM     22  C14 UNL     1      15.731  12.817  33.140  0.00  0.00    +0.019 C 
ATOM     23  C15 UNL     1      14.471  12.940  32.299  0.00  0.00    +0.002 C 
ATOM     24  C16 UNL     1      13.491  13.740  33.135  0.00  0.00    +0.002 C 
ATOM     25  C17 UNL     1      13.835  13.452  34.590  0.00  0.00    +0.019 C 
ENDBRANCH   8  21
TORSDOF 2
ENDMDL
MODEL 7
REMARK VINA RESULT:    -6.083      4.099      8.300
REMARK INTER + INTRA:          -6.638
REMARK INTER:                  -7.062
REMARK INTRA:                   0.424
REMARK UNBOUND:                 0.156
REMARK  Name = /home/qwerty/github/datacon2025hack/step_04_hit_selection/docking/ligands/lig_350.pdb
REMARK  2 active torsions:
REMARK  status: ('A' for Active; 'I' for Inactive)
REMARK    1  A    between atoms: C1_2  and  C2_3
REMARK    2  A    between atoms: N4_18  and  C13_19
REMARK                            x       y       z     vdW  Elec       q    Type
REMARK                         _______ _______ _______ _____ _____    ______ ____
ROOT
ATOM      1  O1  UNL     1      16.161   1.819  27.432  0.00  0.00    -0.268 OA
ATOM      2  C1  UNL     1      17.145   1.255  26.884  0.00  0.00    +0.263 C 
ATOM      3  N3  UNL     1      16.959   0.650  25.601  0.00  0.00    -0.293 N 
ATOM      4  C9  UNL     1      17.725  -0.106  24.583  0.00  0.00    +0.132 C 
ATOM      5  C10 UNL     1      16.579  -0.280  23.643  0.00  0.00    +0.055 C 
ATOM      6  C11 UNL     1      16.200  -1.687  23.234  0.00  0.00    +0.041 C 
ATOM      7  C12 UNL     1      16.519  -1.181  21.823  0.00  0.00    +0.087 C 
ATOM      8  N4  UNL     1      16.826   0.195  22.276  0.00  0.00    -0.291 NA
ATOM      9  C18 UNL     1      15.820   0.505  24.668  0.00  0.00    +0.132 C 
ENDROOT
BRANCH   2  10
ATOM     10  C2  UNL     1      18.445   1.238  27.589  0.00  0.00    +0.104 A 
ATOM     11  C3  UNL     1      19.679   1.094  26.949  0.00  0.00    +0.042 A 
ATOM     12  C4  UNL     1      20.614   1.128  27.959  0.00  0.00    +0.021 A 
ATOM     13  C5  UNL     1      22.000   1.032  27.936  0.00  0.00    +0.033 A 
ATOM     14  C6  UNL     1      22.673   1.102  29.170  0.00  0.00    +0.060 A 
ATOM     15 CL1  UNL     1      24.422   0.989  29.225  0.00  0.00    -0.082 Cl
ATOM     16  C7  UNL     1      21.932   1.263  30.365  0.00  0.00    +0.133 A 
ATOM     17  N1  UNL     1      20.568   1.352  30.330  0.00  0.00    -0.236 NA
ATOM     18  C8  UNL     1      19.935   1.283  29.132  0.00  0.00    +0.139 A 
ATOM     19  N2  UNL     1      18.611   1.353  28.932  0.00  0.00    -0.335 N 
ATOM     20  H4  UNL     1      17.888   1.466  29.673  0.00  0.00    +0.167 HD
ENDBRANCH   2  10
BRANCH   8  21
ATOM     21  C13 UNL     1      15.908   1.243  21.744  0.00  0.00    +0.057 C 
ATOM     22  C14 UNL     1      16.439   2.643  22.083  0.00  0.00    +0.019 C 
ATOM     23  C15 UNL     1      16.777   3.314  20.761  0.00  0.00    +0.002 C 
ATOM     24  C16 UNL     1      15.894   2.650  19.722  0.00  0.00    +0.002 C 
ATOM     25  C17 UNL     1      15.639   1.234  20.219  0.00  0.00    +0.019 C 
ENDBRANCH   8  21
TORSDOF 2
ENDMDL
MODEL 8
REMARK VINA RESULT:    -6.029      4.140      5.455
REMARK INTER + INTRA:          -6.578
REMARK INTER:                  -6.703
REMARK INTRA:                   0.125
REMARK UNBOUND:                 0.156
REMARK  Name = /home/qwerty/github/datacon2025hack/step_04_hit_selection/docking/ligands/lig_350.pdb
REMARK  2 active torsions:
REMARK  status: ('A' for Active; 'I' for Inactive)
REMARK    1  A    between atoms: C1_2  and  C2_3
REMARK    2  A    between atoms: N4_18  and  C13_19
REMARK                            x       y       z     vdW  Elec       q    Type
REMARK                         _______ _______ _______ _____ _____    ______ ____
ROOT
ATOM      1  O1  UNL     1      22.952   1.395  30.126  0.00  0.00    -0.268 OA
ATOM      2  C1  UNL     1      21.756   1.477  29.743  0.00  0.00    +0.263 C 
ATOM      3  N3  UNL     1      20.715   1.220  30.690  0.00  0.00    -0.293 N 
ATOM      4  C9  UNL     1      19.236   1.168  30.763  0.00  0.00    +0.132 C 
ATOM      5  C10 UNL     1      19.178   0.781  32.203  0.00  0.00    +0.055 C 
ATOM      6  C11 UNL     1      18.435  -0.485  32.570  0.00  0.00    +0.041 C 
ATOM      7  C12 UNL     1      17.565   0.467  33.397  0.00  0.00    +0.087 C 
ATOM      8  N4  UNL     1      18.362   1.665  33.046  0.00  0.00    -0.291 NA
ATOM      9  C18 UNL     1      20.671   0.858  32.124  0.00  0.00    +0.132 C 
ENDROOT
BRANCH   2  10
ATOM     10  C2  UNL     1      21.477   1.829  28.333  0.00  0.00    +0.104 A 
ATOM     11  C3  UNL     1      21.805   3.059  27.755  0.00  0.00    +0.042 A 
ATOM     12  C4  UNL     1      21.375   2.968  26.451  0.00  0.00    +0.021 A 
ATOM     13  C5  UNL     1      21.426   3.874  25.399  0.00  0.00    +0.033 A 
ATOM     14  C6  UNL     1      20.884   3.465  24.166  0.00  0.00    +0.060 A 
ATOM     15 CL1  UNL     1      20.911   4.550  22.790  0.00  0.00    -0.082 Cl
ATOM     16  C7  UNL     1      20.317   2.174  24.044  0.00  0.00    +0.133 A 
ATOM     17  N1  UNL     1      20.292   1.322  25.113  0.00  0.00    -0.236 NA
ATOM     18  C8  UNL     1      20.820   1.733  26.294  0.00  0.00    +0.139 A 
ATOM     19  N2  UNL     1      20.870   1.019  27.428  0.00  0.00    -0.335 N 
ATOM     20  H4  UNL     1      20.507   0.051  27.556  0.00  0.00    +0.167 HD
ENDBRANCH   2  10
BRANCH   8  21
ATOM     21  C13 UNL     1      19.042   2.319  34.201  0.00  0.00    +0.057 C 
ATOM     22  C14 UNL     1      19.274   3.809  33.912  0.00  0.00    +0.019 C 
ATOM     23  C15 UNL     1      18.435   4.584  34.914  0.00  0.00    +0.002 C 
ATOM     24  C16 UNL     1      18.266   3.668  36.111  0.00  0.00    +0.002 C 
ATOM     25  C17 UNL     1      18.324   2.245  35.572  0.00  0.00    +0.019 C 
ENDBRANCH   8  21
TORSDOF 2
ENDMDL
MODEL 9
REMARK VINA RESULT:    -6.018      3.675      4.940
REMARK INTER + INTRA:          -6.565
REMARK INTER:                  -6.689
REMARK INTRA:                   0.123
REMARK UNBOUND:                 0.156
REMARK  Name = /home/qwerty/github/datacon2025hack/step_04_hit_selection/docking/ligands/lig_350.pdb
REMARK  2 active torsions:
REMARK  status: ('A' for Active; 'I' for Inactive)
REMARK    1  A    between atoms: C1_2  and  C2_3
REMARK    2  A    between atoms: N4_18  and  C13_19
REMARK                            x       y       z     vdW  Elec       q    Type
REMARK                         _______ _______ _______ _____ _____    ______ ____
ROOT
ATOM      1  O1  UNL     1      23.228   0.997  29.711  0.00  0.00    -0.268 OA
ATOM      2  C1  UNL     1      22.324   1.841  29.476  0.00  0.00    +0.263 C 
ATOM      3  N3  UNL     1      21.804   2.609  30.566  0.00  0.00    -0.293 N 
ATOM      4  C9  UNL     1      20.793   3.658  30.833  0.00  0.00    +0.132 C 
ATOM      5  C10 UNL     1      21.041   3.724  32.303  0.00  0.00    +0.055 C 
ATOM      6  C11 UNL     1      19.870   3.493  33.233  0.00  0.00    +0.041 C 
ATOM      7  C12 UNL     1      20.187   4.914  33.710  0.00  0.00    +0.087 C 
ATOM      8  N4  UNL     1      21.358   5.063  32.815  0.00  0.00    -0.291 NA
ATOM      9  C18 UNL     1      22.076   2.680  32.019  0.00  0.00    +0.132 C 
ENDROOT
BRANCH   2  10
ATOM     10  C2  UNL     1      21.837   2.001  28.089  0.00  0.00    +0.104 A 
ATOM     11  C3  UNL     1      22.154   3.089  27.269  0.00  0.00    +0.042 A 
ATOM     12  C4  UNL     1      21.501   2.846  26.082  0.00  0.00    +0.021 A 
ATOM     13  C5  UNL     1      21.440   3.571  24.898  0.00  0.00    +0.033 A 
ATOM     14  C6  UNL     1      20.666   3.037  23.852  0.00  0.00    +0.060 A 
ATOM     15 CL1  UNL     1      20.540   3.891  22.326  0.00  0.00    -0.082 Cl
ATOM     16  C7  UNL     1      19.990   1.807  24.037  0.00  0.00    +0.133 A 
ATOM     17  N1  UNL     1      20.083   1.135  25.224  0.00  0.00    -0.236 NA
ATOM     18  C8  UNL     1      20.835   1.664  26.222  0.00  0.00    +0.139 A 
ATOM     19  N2  UNL     1      21.024   1.130  27.438  0.00  0.00    -0.335 N 
ATOM     20  H4  UNL     1      20.615   0.235  27.780  0.00  0.00    +0.167 HD
ENDBRANCH   2  10
BRANCH   8  21
ATOM     21  C13 UNL     1      22.662   5.230  33.520  0.00  0.00    +0.057 C 
ATOM     22  C14 UNL     1      23.635   6.048  32.659  0.00  0.00    +0.019 C 
ATOM     23  C15 UNL     1      23.903   7.341  33.411  0.00  0.00    +0.002 C 
ATOM     24  C16 UNL     1      23.663   7.027  34.875  0.00  0.00    +0.002 C 
ATOM     25  C17 UNL     1      22.626   5.913  34.910  0.00  0.00    +0.019 C 
ENDBRANCH   8  21
TORSDOF 2
ENDMDL
