REMARK  Name = /home/qwerty/github/datacon2025hack/step_04_hit_selection/docking/ligands/lig_458.pdb
REMARK  10 active torsions:
REMARK  status: ('A' for Active; 'I' for Inactive)
REMARK    1  A    between atoms: C1_1  and  C2_2
REMARK    2  A    between atoms: C2_2  and  C3_3
REMARK    3  A    between atoms: C2_2  and  N1_4
REMARK    4  A    between atoms: N1_4  and  C4_5
REMARK    5  A    between atoms: C4_5  and  C5_6
REMARK    6  A    between atoms: C5_6  and  N2_7
REMARK    7  A    between atoms: N2_7  and  C6_8
REMARK    8  A    between atoms: C7_9  and  C8_11
REMARK    9  A    between atoms: C10_13  and  C11_14
REMARK   10  A    between atoms: C13_21  and  C14_23
REMARK                            x       y       z     vdW  Elec       q    Type
REMARK                         _______ _______ _______ _____ _____    ______ ____
ROOT
ATOM      1  N2  UNL     1       0.281  -1.965  -0.365  0.00  0.00    -0.298 N 
ATOM      2  C6  UNL     1      -0.135  -1.990   1.041  0.00  0.00    +0.132 C 
ATOM      3  C7  UNL     1       1.590  -1.482  -0.753  0.00  0.00    +0.263 C 
ATOM      4  O1  UNL     1       1.925  -1.489  -1.969  0.00  0.00    -0.268 OA
ENDROOT
BRANCH   3   5
ATOM      5  C8  UNL     1       2.544  -0.916   0.219  0.00  0.00    +0.103 A 
ATOM      6  C9  UNL     1       3.254   0.256   0.029  0.00  0.00    +0.044 A 
ATOM      7  C10 UNL     1       4.061   0.391   1.141  0.00  0.00    +0.041 A 
ATOM      8  C12 UNL     1       3.826  -0.703   1.950  0.00  0.00    +0.095 A 
ATOM      9  N7  UNL     1       2.905  -1.500   1.379  0.00  0.00    -0.356 N 
ATOM     10  H18 UNL     1       2.583  -2.420   1.751  0.00  0.00    +0.165 HD
BRANCH   7  11
ATOM     11  C11 UNL     1       5.004   1.484   1.404  0.00  0.00    +0.206 A 
ATOM     12  N3  UNL     1       5.783   1.567   2.501  0.00  0.00    -0.108 NA
ATOM     13  N4  UNL     1       6.469   2.687   2.343  0.00  0.00    -0.049 NA
ATOM     14  N5  UNL     1       6.119   3.253   1.200  0.00  0.00    -0.176 N 
ATOM     15  N6  UNL     1       5.202   2.530   0.581  0.00  0.00    -0.133 NA
ATOM     16  H16 UNL     1       6.512   4.148   0.837  0.00  0.00    +0.214 HD
ENDBRANCH   7  11
ENDBRANCH   3   5
BRANCH   1  17
ATOM     17  C5  UNL     1      -0.646  -2.470  -1.391  0.00  0.00    +0.127 C 
BRANCH  17  18
ATOM     18  C4  UNL     1      -1.224  -1.332  -2.246  0.00  0.00    +0.127 C 
BRANCH  18  19
ATOM     19  N1  UNL     1      -1.997  -0.371  -1.435  0.00  0.00    -0.292 N 
ATOM     20  C13 UNL     1      -3.248  -0.818  -0.864  0.00  0.00    +0.265 C 
ATOM     21  O2  UNL     1      -3.939  -1.672  -1.483  0.00  0.00    -0.268 OA
BRANCH  20  22
ATOM     22  C14 UNL     1      -3.760  -0.309   0.429  0.00  0.00    +0.129 A 
ATOM     23  C15 UNL     1      -2.919   0.278   1.385  0.00  0.00    +0.053 A 
ATOM     24  C16 UNL     1      -3.471   0.711   2.590  0.00  0.00    +0.115 A 
ATOM     25  N8  UNL     1      -4.799   0.553   2.824  0.00  0.00    -0.244 NA
ATOM     26  C17 UNL     1      -5.603  -0.028   1.897  0.00  0.00    +0.221 A 
ATOM     27  N9  UNL     1      -5.083  -0.456   0.718  0.00  0.00    -0.231 NA
ENDBRANCH  20  22
BRANCH  19  29
ATOM     28  C1  UNL     1      -2.064   1.578  -2.965  0.00  0.00    +0.028 C 
ATOM     29  C2  UNL     1      -1.736   1.081  -1.552  0.00  0.00    +0.070 C 
ATOM     30  C3  UNL     1      -0.294   1.436  -1.160  0.00  0.00    +0.028 C 
ENDBRANCH  19  29
ENDBRANCH  18  19
ENDBRANCH  17  18
ENDBRANCH   1  17
TORSDOF 7
