REMARK  Name = /home/qwerty/github/datacon2025hack/step_04_hit_selection/docking/ligands/lig_147.pdb
REMARK  9 active torsions:
REMARK  status: ('A' for Active; 'I' for Inactive)
REMARK    1  A    between atoms: C1_1  and  C2_2
REMARK    2  A    between atoms: C4_5  and  C5_6
REMARK    3  A    between atoms: C5_6  and  N2_7
REMARK    4  A    between atoms: N2_7  and  C6_8
REMARK    5  A    between atoms: C6_8  and  C7_9
REMARK    6  A    between atoms: C7_9  and  N3_10
REMARK    7  A    between atoms: C8_11  and  C9_13
REMARK    8  A    between atoms: C12_16  and  C13_17
REMARK    9  A    between atoms: C14_18  and  C15_19
REMARK                            x       y       z     vdW  Elec       q    Type
REMARK                         _______ _______ _______ _____ _____    ______ ____
ROOT
ATOM      1  C6  UNL     1       1.717  -0.497   1.177  0.00  0.00    +0.035 C 
ATOM      2  C17 UNL     1       0.804  -0.050   2.334  0.00  0.00    +0.024 C 
ATOM      3  C18 UNL     1       1.086   1.407   2.001  0.00  0.00    +0.004 C 
ATOM      4  C19 UNL     1       2.041   0.979   0.896  0.00  0.00    +0.024 C 
ENDROOT
BRANCH   1   5
ATOM      5  N2  UNL     1       2.886  -1.244   1.703  0.00  0.00    -0.301 NA
ATOM      6  H7  UNL     1       2.524  -2.070   2.237  0.00  0.00    +0.123 HD
BRANCH   5   7
ATOM      7  C5  UNL     1       3.818  -1.770   0.690  0.00  0.00    +0.178 C 
BRANCH   7  12
ATOM      8  C1  UNL     1       6.899   1.961  -0.229  0.00  0.00    +0.088 C 
ATOM      9  C2  UNL     1       5.839   0.927  -0.408  0.00  0.00    +0.122 A 
ATOM     10  C3  UNL     1       5.105   0.693  -1.548  0.00  0.00    +0.155 A 
ATOM     11  N1  UNL     1       4.262  -0.331  -1.317  0.00  0.00    -0.220 NA
ATOM     12  C4  UNL     1       4.530  -0.675  -0.038  0.00  0.00    +0.210 A 
ATOM     13  O2  UNL     1       5.468   0.068   0.507  0.00  0.00    -0.444 OA
ENDBRANCH   7  12
ENDBRANCH   5   7
ENDBRANCH   1   5
BRANCH   1  14
ATOM     14  C7  UNL     1       0.960  -1.228   0.026  0.00  0.00    +0.126 C 
BRANCH  14  15
ATOM     15  N3  UNL     1      -0.316  -0.587  -0.314  0.00  0.00    -0.310 N 
ATOM     16  C8  UNL     1      -1.592  -1.191  -0.038  0.00  0.00    +0.244 C 
ATOM     17  O1  UNL     1      -1.649  -2.242   0.657  0.00  0.00    -0.270 OA
ATOM     18  H10 UNL     1      -0.285   0.368  -0.734  0.00  0.00    +0.149 HD
BRANCH  16  19
ATOM     19  C9  UNL     1      -2.849  -0.580  -0.533  0.00  0.00    +0.037 A 
ATOM     20  C10 UNL     1      -2.861   0.215  -1.690  0.00  0.00    +0.013 A 
ATOM     21  C11 UNL     1      -4.051   0.779  -2.150  0.00  0.00    +0.004 A 
ATOM     22  C12 UNL     1      -5.259   0.557  -1.471  0.00  0.00    -0.047 A 
ATOM     23  C13 UNL     1      -6.525   1.186  -1.991  0.00  0.00    +0.044 C 
ATOM     24  C14 UNL     1      -5.261  -0.240  -0.303  0.00  0.00    -0.047 A 
ATOM     25  C15 UNL     1      -6.534  -0.509   0.457  0.00  0.00    +0.044 C 
ATOM     26  C16 UNL     1      -4.057  -0.810   0.147  0.00  0.00    +0.016 A 
ENDBRANCH  16  19
ENDBRANCH  14  15
ENDBRANCH   1  14
TORSDOF 6
