REMARK  Name = /home/qwerty/github/datacon2025hack/step_04_hit_selection/docking/ligands/lig_516.pdb
REMARK  3 active torsions:
REMARK  status: ('A' for Active; 'I' for Inactive)
REMARK    1  A    between atoms: C1_2  and  C8_13
REMARK    2  A    between atoms: N1_3  and  C2_4
REMARK    3  A    between atoms: C13_18  and  C14_19
REMARK                            x       y       z     vdW  Elec       q    Type
REMARK                         _______ _______ _______ _____ _____    ______ ____
ROOT
ATOM      1  C8  UNL     1       3.148  -3.246  -1.052  0.00  0.00    +0.049 A 
ATOM      2  C9  UNL     1       4.219  -4.046  -1.489  0.00  0.00    +0.014 A 
ATOM      3  C10 UNL     1       4.096  -5.435  -1.539  0.00  0.00    +0.001 A 
ATOM      4  C11 UNL     1       2.904  -6.044  -1.154  0.00  0.00    +0.001 A 
ATOM      5  C12 UNL     1       1.823  -5.266  -0.736  0.00  0.00    +0.014 A 
ATOM      6  C13 UNL     1       1.919  -3.866  -0.702  0.00  0.00    +0.049 A 
ENDROOT
BRANCH   6   7
ATOM      7  C14 UNL     1       0.714  -3.085  -0.346  0.00  0.00    +0.250 C 
ATOM      8  O2  UNL     1       0.023  -3.433   0.651  0.00  0.00    -0.270 OA
ATOM      9  N5  UNL     1       0.303  -1.977  -1.160  0.00  0.00    -0.265 N 
ATOM     10  C15 UNL     1      -0.575  -0.944  -0.697  0.00  0.00    +0.151 A 
ATOM     11  C16 UNL     1      -0.926   0.178  -1.437  0.00  0.00    +0.112 A 
ATOM     12  C17 UNL     1      -1.612   0.941  -0.525  0.00  0.00    +0.215 A 
ATOM     13  N6  UNL     1      -1.697   0.293   0.644  0.00  0.00    -0.231 N 
ATOM     14  N7  UNL     1      -1.041  -0.852   0.569  0.00  0.00    -0.153 NA
ATOM     15  C18 UNL     1      -2.311   0.851   1.844  0.00  0.00    +0.157 C 
ATOM     16  C19 UNL     1      -3.276   2.001   1.446  0.00  0.00    +0.024 C 
ATOM     17  C20 UNL     1      -4.665   1.520   1.009  0.00  0.00    +0.012 C 
ATOM     18  C21 UNL     1      -5.285   2.255   2.189  0.00  0.00    +0.001 C 
ATOM     19  C22 UNL     1      -3.906   2.719   2.642  0.00  0.00    +0.012 C 
ATOM     20  C23 UNL     1      -2.621   2.955   0.415  0.00  0.00    +0.239 C 
ATOM     21  O3  UNL     1      -2.138   2.218  -0.712  0.00  0.00    -0.476 OA
ATOM     22  H10 UNL     1       0.718  -1.880  -2.114  0.00  0.00    +0.157 HD
ENDBRANCH   6   7
BRANCH   1  24
ATOM     23  O1  UNL     1       4.050  -1.177  -1.779  0.00  0.00    -0.270 OA
ATOM     24  C1  UNL     1       3.366  -1.786  -0.915  0.00  0.00    +0.249 C 
ATOM     25  N1  UNL     1       2.877  -1.086   0.239  0.00  0.00    -0.280 N 
ATOM     26  H1  UNL     1       2.754  -1.639   1.118  0.00  0.00    +0.155 HD
BRANCH  25  27
ATOM     27  C2  UNL     1       2.505   0.302   0.257  0.00  0.00    +0.053 A 
ATOM     28  C3  UNL     1       2.334   0.957   1.506  0.00  0.00    +0.136 A 
ATOM     29  N2  UNL     1       1.870   2.241   1.569  0.00  0.00    -0.234 NA
ATOM     30  C4  UNL     1       1.580   2.884   0.415  0.00  0.00    +0.156 A 
ATOM     31  N3  UNL     1       1.078   4.115   0.280  0.00  0.00    -0.260 N 
ATOM     32  N4  UNL     1       0.896   4.341  -1.017  0.00  0.00    -0.180 NA
ATOM     33  C5  UNL     1       1.289   3.243  -1.707  0.00  0.00    +0.144 A 
ATOM     34  C6  UNL     1       1.733   2.306  -0.802  0.00  0.00    +0.040 A 
ATOM     35  C7  UNL     1       2.195   1.005  -0.933  0.00  0.00    +0.038 A 
ATOM     36  H3  UNL     1       0.851   4.789   1.043  0.00  0.00    +0.191 HD
ENDBRANCH  25  27
ENDBRANCH   1  24
TORSDOF 3
