REMARK  Name = /home/qwerty/github/datacon2025hack/step_04_hit_selection/docking/ligands/lig_581.pdb
REMARK  4 active torsions:
REMARK  status: ('A' for Active; 'I' for Inactive)
REMARK    1  A    between atoms: C1_2  and  O2_3
REMARK    2  A    between atoms: C1_2  and  C2_4
REMARK    3  A    between atoms: C6_9  and  S1_10
REMARK    4  A    between atoms: S1_10  and  N1_13
REMARK                            x       y       z     vdW  Elec       q    Type
REMARK                         _______ _______ _______ _____ _____    ______ ____
ROOT
ATOM      1  S1  UNL     1       1.233  -2.470   1.238  0.00  0.00    +0.062 S 
ATOM      2  O3  UNL     1       1.326  -2.208   2.716  0.00  0.00    -0.153 OA
ATOM      3  O4  UNL     1       1.757  -3.859   1.008  0.00  0.00    -0.153 OA
ENDROOT
BRANCH   1   4
ATOM      4  N1  UNL     1      -0.452  -2.409   0.766  0.00  0.00    -0.173 NA
ATOM      5  C7  UNL     1      -0.725  -2.837  -0.623  0.00  0.00    +0.128 C 
ATOM      6  C8  UNL     1      -0.589  -1.703  -1.646  0.00  0.00    +0.126 C 
ATOM      7  N2  UNL     1      -1.260  -0.517  -1.142  0.00  0.00    -0.288 N 
ATOM      8  C9  UNL     1      -2.422   0.101  -1.685  0.00  0.00    +0.248 C 
ATOM      9  O5  UNL     1      -2.902  -0.152  -2.822  0.00  0.00    -0.270 OA
ATOM     10  C10 UNL     1      -2.957   1.037  -0.728  0.00  0.00    +0.042 A 
ATOM     11  C11 UNL     1      -4.055   1.892  -0.812  0.00  0.00    +0.013 A 
ATOM     12  C12 UNL     1      -4.336   2.713   0.292  0.00  0.00    +0.001 A 
ATOM     13  C13 UNL     1      -3.522   2.665   1.442  0.00  0.00    +0.000 A 
ATOM     14  C14 UNL     1      -2.421   1.792   1.499  0.00  0.00    +0.006 A 
ATOM     15  C15 UNL     1      -2.159   0.978   0.395  0.00  0.00    -0.014 A 
ATOM     16  C16 UNL     1      -1.050  -0.028   0.218  0.00  0.00    +0.123 C 
ATOM     17  C17 UNL     1      -1.174  -1.198   1.209  0.00  0.00    +0.136 C 
ENDBRANCH   1   4
BRANCH   1  23
ATOM     18  C2  UNL     1       3.224   0.963   0.380  0.00  0.00    +0.061 A 
ATOM     19  C3  UNL     1       3.890   0.655  -0.814  0.00  0.00    +0.016 A 
ATOM     20  C4  UNL     1       3.757  -0.609  -1.391  0.00  0.00    +0.023 A 
ATOM     21  C5  UNL     1       2.953  -1.585  -0.793  0.00  0.00    +0.067 A 
ATOM     22 CL1  UNL     1       2.845  -3.148  -1.597  0.00  0.00    -0.082 Cl
ATOM     23  C6  UNL     1       2.258  -1.286   0.402  0.00  0.00    +0.124 A 
ATOM     24  C18 UNL     1       2.420  -0.018   0.985  0.00  0.00    +0.045 A 
BRANCH  18  26
ATOM     25  O1  UNL     1       2.759   2.588   2.058  0.00  0.00    -0.245 OA
ATOM     26  C1  UNL     1       3.365   2.304   0.989  0.00  0.00    +0.337 C 
BRANCH  26  27
ATOM     27  O2  UNL     1       4.170   3.268   0.386  0.00  0.00    -0.477 OA
ATOM     28  H1  UNL     1       4.273   4.189   0.794  0.00  0.00    +0.295 HD
ENDBRANCH  26  27
ENDBRANCH  18  26
ENDBRANCH   1  23
TORSDOF 4
