REMARK  Name = /home/qwerty/github/datacon2025hack/step_04_hit_selection/docking/ligands/lig_15.pdb
REMARK  5 active torsions:
REMARK  status: ('A' for Active; 'I' for Inactive)
REMARK    1  A    between atoms: C1_1  and  C2_2
REMARK    2  A    between atoms: C4_4  and  C5_5
REMARK    3  A    between atoms: C6_6  and  C7_7
REMARK    4  A    between atoms: C9_11  and  N2_12
REMARK    5  A    between atoms: C10_13  and  C11_15
REMARK                            x       y       z     vdW  Elec       q    Type
REMARK                         _______ _______ _______ _____ _____    ______ ____
ROOT
ATOM      1  N2  UNL     1      -1.592   0.023  -1.374  0.00  0.00    -0.305 N 
ATOM      2  C10 UNL     1      -2.372   1.141  -0.919  0.00  0.00    +0.246 C 
ATOM      3  O2  UNL     1      -1.868   2.297  -0.934  0.00  0.00    -0.270 OA
ATOM      4  H11 UNL     1      -1.957  -0.945  -1.240  0.00  0.00    +0.149 HD
ENDROOT
BRANCH   2   5
ATOM      5  C11 UNL     1      -3.753   0.959  -0.411  0.00  0.00    +0.057 A 
ATOM      6  C12 UNL     1      -4.316   1.920   0.481  0.00  0.00    +0.126 A 
ATOM      7  N3  UNL     1      -5.591   1.777   0.956  0.00  0.00    -0.234 NA
ATOM      8  C13 UNL     1      -6.307   0.702   0.555  0.00  0.00    +0.176 A 
ATOM      9  N4  UNL     1      -7.561   0.376   0.880  0.00  0.00    -0.240 N 
ATOM     10  N5  UNL     1      -7.830  -0.750   0.224  0.00  0.00    -0.066 NA
ATOM     11  N6  UNL     1      -6.786  -1.148  -0.507  0.00  0.00    -0.128 NA
ATOM     12  C14 UNL     1      -5.828  -0.230  -0.294  0.00  0.00    +0.132 A 
ATOM     13  C15 UNL     1      -4.544  -0.146  -0.815  0.00  0.00    +0.048 A 
ATOM     14  H13 UNL     1      -8.218   0.885   1.511  0.00  0.00    +0.192 HD
ENDBRANCH   2   5
BRANCH   1  19
ATOM     15  C7  UNL     1       2.725  -1.392  -0.757  0.00  0.00    +0.282 C 
ATOM     16  O1  UNL     1       3.052  -2.516  -1.221  0.00  0.00    -0.267 OA
ATOM     17  N1  UNL     1       1.544  -0.754  -1.242  0.00  0.00    -0.291 N 
ATOM     18  C8  UNL     1       0.484  -1.048  -2.223  0.00  0.00    +0.132 C 
ATOM     19  C9  UNL     1      -0.285   0.221  -2.007  0.00  0.00    +0.108 C 
ATOM     20  C16 UNL     1       0.800   0.499  -1.015  0.00  0.00    +0.132 C 
BRANCH  15  26
ATOM     21  C1  UNL     1       4.171   1.982   2.502  0.00  0.00    +0.086 C 
ATOM     22  C2  UNL     1       4.180   0.735   1.685  0.00  0.00    +0.103 A 
ATOM     23  C3  UNL     1       5.126  -0.268   1.761  0.00  0.00    +0.048 A 
ATOM     24  C4  UNL     1       4.721  -1.221   0.848  0.00  0.00    +0.000 A 
ATOM     25  C5  UNL     1       5.423  -2.510   0.558  0.00  0.00    +0.048 C 
ATOM     26  C6  UNL     1       3.551  -0.740   0.275  0.00  0.00    +0.192 A 
ATOM     27  O3  UNL     1       3.258   0.428   0.801  0.00  0.00    -0.455 OA
ENDBRANCH  15  26
ENDBRANCH   1  19
TORSDOF 3
