REMARK  Name = /home/qwerty/github/datacon2025hack/step_04_hit_selection/docking/ligands/lig_186.pdb
REMARK  11 active torsions:
REMARK  status: ('A' for Active; 'I' for Inactive)
REMARK    1  A    between atoms: C1_1  and  C2_2
REMARK    2  A    between atoms: C4_4  and  C5_5
REMARK    3  A    between atoms: N1_7  and  C6_8
REMARK    4  A    between atoms: C8_10  and  C9_11
REMARK    5  A    between atoms: C9_11  and  N2_12
REMARK    6  A    between atoms: C10_13  and  C11_15
REMARK    7  A    between atoms: C11_15  and  C12_16
REMARK    8  A    between atoms: C12_16  and  C13_17
REMARK    9  A    between atoms: C12_16  and  C14_18
REMARK   10  A    between atoms: C14_18  and  C15_19
REMARK   11  A    between atoms: C14_18  and  C16_20
REMARK                            x       y       z     vdW  Elec       q    Type
REMARK                         _______ _______ _______ _____ _____    ______ ____
ROOT
ATOM      1  C6  UNL     1       2.890   2.445  -0.365  0.00  0.00    +0.074 C 
ATOM      2  C7  UNL     1       2.538   2.790   1.083  0.00  0.00    +0.027 C 
ATOM      3  C8  UNL     1       1.056   2.599   0.768  0.00  0.00    +0.010 C 
ATOM      4  C17 UNL     1       1.408   2.263  -0.682  0.00  0.00    +0.027 C 
ENDROOT
BRANCH   1   7
ATOM      5  C5  UNL     1       3.964   0.640  -1.774  0.00  0.00    +0.282 C 
ATOM      6  O1  UNL     1       3.601   1.233  -2.826  0.00  0.00    -0.267 OA
ATOM      7  N1  UNL     1       3.642   1.194  -0.490  0.00  0.00    -0.306 N 
ATOM      8  H5  UNL     1       4.007   0.727   0.368  0.00  0.00    +0.149 HD
BRANCH   5  12
ATOM      9  C1  UNL     1       6.534  -3.591  -0.888  0.00  0.00    +0.069 C 
ATOM     10  C2  UNL     1       5.808  -2.456  -1.530  0.00  0.00    +0.081 A 
ATOM     11  C3  UNL     1       5.158  -1.434  -0.869  0.00  0.00    +0.080 A 
ATOM     12  C4  UNL     1       4.725  -0.614  -1.893  0.00  0.00    +0.222 A 
ATOM     13  O3  UNL     1       5.110  -1.131  -3.038  0.00  0.00    -0.350 OA
ATOM     14  N3  UNL     1       5.773  -2.238  -2.858  0.00  0.00    -0.083 NA
ENDBRANCH   5  12
ENDBRANCH   1   7
BRANCH   3  15
ATOM     15  C9  UNL     1       0.413   1.440   1.544  0.00  0.00    +0.107 C 
BRANCH  15  16
ATOM     16  N2  UNL     1      -0.992   1.307   1.169  0.00  0.00    -0.315 N 
ATOM     17  C10 UNL     1      -1.466   0.315   0.246  0.00  0.00    +0.213 C 
ATOM     18  O2  UNL     1      -0.688  -0.576  -0.190  0.00  0.00    -0.276 OA
ATOM     19  H12 UNL     1      -1.660   2.027   1.520  0.00  0.00    +0.149 HD
BRANCH  17  20
ATOM     20  C11 UNL     1      -2.905   0.312  -0.185  0.00  0.00    +0.099 C 
BRANCH  20  21
ATOM     21  C12 UNL     1      -3.723  -0.780   0.545  0.00  0.00    -0.003 C 
ATOM     22  C13 UNL     1      -3.812  -0.482   2.055  0.00  0.00    +0.008 C 
BRANCH  21  23
ATOM     23  C14 UNL     1      -5.121  -0.982  -0.124  0.00  0.00    -0.014 C 
ATOM     24  C15 UNL     1      -6.098   0.181   0.125  0.00  0.00    +0.007 C 
ATOM     25  C16 UNL     1      -5.769  -2.312   0.292  0.00  0.00    +0.007 C 
ENDBRANCH  21  23
ENDBRANCH  20  21
ENDBRANCH  17  20
ENDBRANCH  15  16
ENDBRANCH   3  15
TORSDOF 7
