MODEL 1
REMARK VINA RESULT:    -5.501      0.000      0.000
REMARK INTER + INTRA:          -7.811
REMARK INTER:                  -7.109
REMARK INTRA:                  -0.702
REMARK UNBOUND:                -0.702
REMARK  Name = /home/qwerty/github/datacon2025hack/step_04_hit_selection/docking/ligands/lig_219.pdb
REMARK  7 active torsions:
REMARK  status: ('A' for Active; 'I' for Inactive)
REMARK    1  A    between atoms: C1_1  and  C2_2
REMARK    2  A    between atoms: C2_2  and  C3_3
REMARK    3  A    between atoms: C6_6  and  C7_7
REMARK    4  A    between atoms: N1_9  and  C8_10
REMARK    5  A    between atoms: N1_9  and  C9_11
REMARK    6  A    between atoms: N2_14  and  C12_15
REMARK    7  A    between atoms: C12_15  and  C13_16
REMARK                            x       y       z     vdW  Elec       q    Type
REMARK                         _______ _______ _______ _____ _____    ______ ____
ROOT
ATOM      1  C9  UNL     1      10.633  13.051  28.734  0.00  0.00    +0.078 C 
ATOM      2  C10 UNL     1      11.069  12.357  27.429  0.00  0.00    +0.038 C 
ATOM      3  C11 UNL     1      10.155  11.153  27.103  0.00  0.00    +0.086 C 
ATOM      4  N2  UNL     1       8.845  11.239  27.789  0.00  0.00    -0.295 NA
ATOM      5  C17 UNL     1       8.299  12.609  27.778  0.00  0.00    +0.086 C 
ATOM      6  C18 UNL     1       9.166  13.532  28.653  0.00  0.00    +0.038 C 
ENDROOT
BRANCH   1   9
ATOM      7  C7  UNL     1      12.024  14.339  30.443  0.00  0.00    +0.244 C 
ATOM      8  O1  UNL     1      13.126  14.924  30.636  0.00  0.00    -0.273 OA
ATOM      9  N1  UNL     1      11.545  14.160  29.091  0.00  0.00    -0.299 N 
ATOM     10  C8  UNL     1      11.991  15.126  28.079  0.00  0.00    +0.132 C 
BRANCH   7  14
ATOM     11  C3  UNL     1      11.973  13.764  33.801  0.00  0.00    +0.119 C 
ATOM     12  C4  UNL     1      12.415  12.447  33.184  0.00  0.00    +0.034 C 
ATOM     13  C5  UNL     1      11.583  12.377  31.940  0.00  0.00    +0.043 C 
ATOM     14  C6  UNL     1      11.253  13.840  31.641  0.00  0.00    +0.204 C 
ATOM     15  O2  UNL     1      11.568  14.633  32.767  0.00  0.00    -0.364 OA
BRANCH  11  17
ATOM     16  C1  UNL     1      14.434  13.768  34.552  0.00  0.00    +0.006 C 
ATOM     17  C2  UNL     1      13.054  14.417  34.684  0.00  0.00    +0.028 C 
ENDBRANCH  11  17
ENDBRANCH   7  14
ENDBRANCH   1   9
BRANCH   4  18
ATOM     18  C12 UNL     1       7.882  10.221  27.315  0.00  0.00    +0.160 C 
BRANCH  18  19
ATOM     19  C13 UNL     1       7.573   9.162  28.340  0.00  0.00    +0.143 A 
ATOM     20  N3  UNL     1       7.593   7.846  27.990  0.00  0.00    -0.239 NA
ATOM     21  C14 UNL     1       7.310   6.877  28.899  0.00  0.00    +0.114 A 
ATOM     22  C15 UNL     1       6.991   7.225  30.211  0.00  0.00    +0.039 A 
ATOM     23  C16 UNL     1       6.977   8.576  30.554  0.00  0.00    +0.114 A 
ATOM     24  N4  UNL     1       7.267   9.516  29.618  0.00  0.00    -0.239 NA
ENDBRANCH  18  19
ENDBRANCH   4  18
TORSDOF 5
ENDMDL
MODEL 2
REMARK VINA RESULT:    -5.464      3.682      8.444
REMARK INTER + INTRA:          -7.763
REMARK INTER:                  -7.030
REMARK INTRA:                  -0.733
REMARK UNBOUND:                -0.702
REMARK  Name = /home/qwerty/github/datacon2025hack/step_04_hit_selection/docking/ligands/lig_219.pdb
REMARK  7 active torsions:
REMARK  status: ('A' for Active; 'I' for Inactive)
REMARK    1  A    between atoms: C1_1  and  C2_2
REMARK    2  A    between atoms: C2_2  and  C3_3
REMARK    3  A    between atoms: C6_6  and  C7_7
REMARK    4  A    between atoms: N1_9  and  C8_10
REMARK    5  A    between atoms: N1_9  and  C9_11
REMARK    6  A    between atoms: N2_14  and  C12_15
REMARK    7  A    between atoms: C12_15  and  C13_16
REMARK                            x       y       z     vdW  Elec       q    Type
REMARK                         _______ _______ _______ _____ _____    ______ ____
ROOT
ATOM      1  C9  UNL     1       8.866  11.061  28.622  0.00  0.00    +0.078 C 
ATOM      2  C10 UNL     1       9.536  10.673  29.954  0.00  0.00    +0.038 C 
ATOM      3  C11 UNL     1      10.651  11.675  30.333  0.00  0.00    +0.086 C 
ATOM      4  N2  UNL     1      10.495  12.977  29.645  0.00  0.00    -0.295 NA
ATOM      5  C17 UNL     1       9.087  13.417  29.599  0.00  0.00    +0.086 C 
ATOM      6  C18 UNL     1       8.272  12.486  28.684  0.00  0.00    +0.038 C 
ENDROOT
BRANCH   1   9
ATOM      7  C7  UNL     1       7.773   9.571  26.862  0.00  0.00    +0.244 C 
ATOM      8  O1  UNL     1       7.281   8.428  26.648  0.00  0.00    -0.273 OA
ATOM      9  N1  UNL     1       7.847  10.068  28.217  0.00  0.00    -0.299 N 
ATOM     10  C8  UNL     1       6.865   9.558  29.182  0.00  0.00    +0.132 C 
BRANCH   7  14
ATOM     11  C3  UNL     1       8.476   9.660  23.529  0.00  0.00    +0.119 C 
ATOM     12  C4  UNL     1       9.790   9.290  24.197  0.00  0.00    +0.034 C 
ATOM     13  C5  UNL     1       9.764  10.122  25.443  0.00  0.00    +0.043 C 
ATOM     14  C6  UNL     1       8.276  10.370  25.684  0.00  0.00    +0.204 C 
ATOM     15  O2  UNL     1       7.545  10.014  24.527  0.00  0.00    -0.364 OA
BRANCH  11  17
ATOM     16  C1  UNL     1       8.579   7.183  22.840  0.00  0.00    +0.006 C 
ATOM     17  C2  UNL     1       7.919   8.546  22.622  0.00  0.00    +0.028 C 
ENDBRANCH  11  17
ENDBRANCH   7  14
ENDBRANCH   1   9
BRANCH   4  18
ATOM     18  C12 UNL     1      11.415  14.013  30.164  0.00  0.00    +0.160 C 
BRANCH  18  19
ATOM     19  C13 UNL     1      12.497  14.400  29.190  0.00  0.00    +0.143 A 
ATOM     20  N3  UNL     1      13.775  14.576  29.623  0.00  0.00    -0.239 NA
ATOM     21  C14 UNL     1      14.763  14.932  28.761  0.00  0.00    +0.114 A 
ATOM     22  C15 UNL     1      14.472  15.121  27.411  0.00  0.00    +0.039 A 
ATOM     23  C16 UNL     1      13.159  14.934  26.981  0.00  0.00    +0.114 A 
ATOM     24  N4  UNL     1      12.199  14.578  27.874  0.00  0.00    -0.239 NA
ENDBRANCH  18  19
ENDBRANCH   4  18
TORSDOF 5
ENDMDL
MODEL 3
REMARK VINA RESULT:    -5.451     14.208     15.984
REMARK INTER + INTRA:          -7.747
REMARK INTER:                  -6.977
REMARK INTRA:                  -0.770
REMARK UNBOUND:                -0.702
REMARK  Name = /home/qwerty/github/datacon2025hack/step_04_hit_selection/docking/ligands/lig_219.pdb
REMARK  7 active torsions:
REMARK  status: ('A' for Active; 'I' for Inactive)
REMARK    1  A    between atoms: C1_1  and  C2_2
REMARK    2  A    between atoms: C2_2  and  C3_3
REMARK    3  A    between atoms: C6_6  and  C7_7
REMARK    4  A    between atoms: N1_9  and  C8_10
REMARK    5  A    between atoms: N1_9  and  C9_11
REMARK    6  A    between atoms: N2_14  and  C12_15
REMARK    7  A    between atoms: C12_15  and  C13_16
REMARK                            x       y       z     vdW  Elec       q    Type
REMARK                         _______ _______ _______ _____ _____    ______ ____
ROOT
ATOM      1  C9  UNL     1      21.232   2.194  27.746  0.00  0.00    +0.078 C 
ATOM      2  C10 UNL     1      21.414   3.572  28.410  0.00  0.00    +0.038 C 
ATOM      3  C11 UNL     1      21.215   3.487  29.941  0.00  0.00    +0.086 C 
ATOM      4  N2  UNL     1      21.389   2.109  30.455  0.00  0.00    -0.295 NA
ATOM      5  C17 UNL     1      22.523   1.415  29.815  0.00  0.00    +0.086 C 
ATOM      6  C18 UNL     1      22.213   1.152  28.331  0.00  0.00    +0.038 C 
ENDROOT
BRANCH   1   9
ATOM      7  C7  UNL     1      20.383   1.654  25.400  0.00  0.00    +0.244 C 
ATOM      8  O1  UNL     1      20.201   2.124  24.242  0.00  0.00    -0.273 OA
ATOM      9  N1  UNL     1      21.350   2.279  26.274  0.00  0.00    -0.299 N 
ATOM     10  C8  UNL     1      22.465   3.000  25.646  0.00  0.00    +0.132 C 
BRANCH   7  14
ATOM     11  C3  UNL     1      17.890  -0.548  24.663  0.00  0.00    +0.119 C 
ATOM     12  C4  UNL     1      17.217   0.550  25.472  0.00  0.00    +0.034 C 
ATOM     13  C5  UNL     1      18.262   0.886  26.492  0.00  0.00    +0.043 C 
ATOM     14  C6  UNL     1      19.570   0.456  25.828  0.00  0.00    +0.204 C 
ATOM     15  O2  UNL     1      19.285  -0.346  24.700  0.00  0.00    -0.364 OA
BRANCH  11  17
ATOM     16  C1  UNL     1      16.774   0.671  22.690  0.00  0.00    +0.006 C 
ATOM     17  C2  UNL     1      17.379  -0.635  23.212  0.00  0.00    +0.028 C 
ENDBRANCH  11  17
ENDBRANCH   7  14
ENDBRANCH   1   9
BRANCH   4  18
ATOM     18  C12 UNL     1      21.425   2.049  31.933  0.00  0.00    +0.160 C 
BRANCH  18  19
ATOM     19  C13 UNL     1      20.166   1.492  32.544  0.00  0.00    +0.143 A 
ATOM     20  N3  UNL     1      19.574   2.131  33.589  0.00  0.00    -0.239 NA
ATOM     21  C14 UNL     1      18.442   1.640  34.158  0.00  0.00    +0.114 A 
ATOM     22  C15 UNL     1      17.872   0.465  33.670  0.00  0.00    +0.039 A 
ATOM     23  C16 UNL     1      18.489  -0.176  32.598  0.00  0.00    +0.114 A 
ATOM     24  N4  UNL     1      19.619   0.346  32.056  0.00  0.00    -0.239 NA
ENDBRANCH  18  19
ENDBRANCH   4  18
TORSDOF 5
ENDMDL
MODEL 4
REMARK VINA RESULT:    -5.425     13.814     15.282
REMARK INTER + INTRA:          -7.713
REMARK INTER:                  -7.042
REMARK INTRA:                  -0.671
REMARK UNBOUND:                -0.702
REMARK  Name = /home/qwerty/github/datacon2025hack/step_04_hit_selection/docking/ligands/lig_219.pdb
REMARK  7 active torsions:
REMARK  status: ('A' for Active; 'I' for Inactive)
REMARK    1  A    between atoms: C1_1  and  C2_2
REMARK    2  A    between atoms: C2_2  and  C3_3
REMARK    3  A    between atoms: C6_6  and  C7_7
REMARK    4  A    between atoms: N1_9  and  C8_10
REMARK    5  A    between atoms: N1_9  and  C9_11
REMARK    6  A    between atoms: N2_14  and  C12_15
REMARK    7  A    between atoms: C12_15  and  C13_16
REMARK                            x       y       z     vdW  Elec       q    Type
REMARK                         _______ _______ _______ _____ _____    ______ ____
ROOT
ATOM      1  C9  UNL     1      22.797  11.646  21.006  0.00  0.00    +0.078 C 
ATOM      2  C10 UNL     1      24.001  11.411  20.074  0.00  0.00    +0.038 C 
ATOM      3  C11 UNL     1      24.490   9.946  20.149  0.00  0.00    +0.086 C 
ATOM      4  N2  UNL     1      23.448   9.031  20.672  0.00  0.00    -0.295 NA
ATOM      5  C17 UNL     1      22.112   9.341  20.127  0.00  0.00    +0.086 C 
ATOM      6  C18 UNL     1      21.624  10.699  20.661  0.00  0.00    +0.038 C 
ENDROOT
BRANCH   1   9
ATOM      7  C7  UNL     1      23.135  14.090  21.660  0.00  0.00    +0.244 C 
ATOM      8  O1  UNL     1      23.063  15.281  21.248  0.00  0.00    -0.273 OA
ATOM      9  N1  UNL     1      22.368  13.062  20.993  0.00  0.00    -0.299 N 
ATOM     10  C8  UNL     1      21.138  13.472  20.305  0.00  0.00    +0.132 C 
BRANCH   7  14
ATOM     11  C3  UNL     1      23.624  14.247  25.028  0.00  0.00    +0.119 C 
ATOM     12  C4  UNL     1      24.297  15.493  24.476  0.00  0.00    +0.034 C 
ATOM     13  C5  UNL     1      24.896  14.996  23.196  0.00  0.00    +0.043 C 
ATOM     14  C6  UNL     1      24.033  13.787  22.835  0.00  0.00    +0.204 C 
ATOM     15  O2  UNL     1      23.244  13.423  23.950  0.00  0.00    -0.364 OA
BRANCH  11  17
ATOM     16  C1  UNL     1      22.495  15.929  26.615  0.00  0.00    +0.006 C 
ATOM     17  C2  UNL     1      22.421  14.557  25.941  0.00  0.00    +0.028 C 
ENDBRANCH  11  17
ENDBRANCH   7  14
ENDBRANCH   1   9
BRANCH   4  18
ATOM     18  C12 UNL     1      23.819   7.605  20.539  0.00  0.00    +0.160 C 
BRANCH  18  19
ATOM     19  C13 UNL     1      22.834   6.666  21.184  0.00  0.00    +0.143 A 
ATOM     20  N3  UNL     1      22.666   6.675  22.535  0.00  0.00    -0.239 NA
ATOM     21  C14 UNL     1      21.788   5.830  23.136  0.00  0.00    +0.114 A 
ATOM     22  C15 UNL     1      21.045   4.937  22.366  0.00  0.00    +0.039 A 
ATOM     23  C16 UNL     1      21.226   4.941  20.984  0.00  0.00    +0.114 A 
ATOM     24  N4  UNL     1      22.113   5.801  20.420  0.00  0.00    -0.239 NA
ENDBRANCH  18  19
ENDBRANCH   4  18
TORSDOF 5
ENDMDL
MODEL 5
REMARK VINA RESULT:    -5.358     13.878     14.796
REMARK INTER + INTRA:          -7.627
REMARK INTER:                  -6.773
REMARK INTRA:                  -0.853
REMARK UNBOUND:                -0.702
REMARK  Name = /home/qwerty/github/datacon2025hack/step_04_hit_selection/docking/ligands/lig_219.pdb
REMARK  7 active torsions:
REMARK  status: ('A' for Active; 'I' for Inactive)
REMARK    1  A    between atoms: C1_1  and  C2_2
REMARK    2  A    between atoms: C2_2  and  C3_3
REMARK    3  A    between atoms: C6_6  and  C7_7
REMARK    4  A    between atoms: N1_9  and  C8_10
REMARK    5  A    between atoms: N1_9  and  C9_11
REMARK    6  A    between atoms: N2_14  and  C12_15
REMARK    7  A    between atoms: C12_15  and  C13_16
REMARK                            x       y       z     vdW  Elec       q    Type
REMARK                         _______ _______ _______ _____ _____    ______ ____
ROOT
ATOM      1  C9  UNL     1      20.916  12.777  20.319  0.00  0.00    +0.078 C 
ATOM      2  C10 UNL     1      21.831  12.524  19.106  0.00  0.00    +0.038 C 
ATOM      3  C11 UNL     1      21.801  11.038  18.682  0.00  0.00    +0.086 C 
ATOM      4  N2  UNL     1      20.592  10.337  19.174  0.00  0.00    -0.295 NA
ATOM      5  C17 UNL     1      19.379  11.168  19.054  0.00  0.00    +0.086 C 
ATOM      6  C18 UNL     1      19.456  12.362  20.021  0.00  0.00    +0.038 C 
ENDROOT
BRANCH   1   9
ATOM      7  C7  UNL     1      22.030  14.627  21.680  0.00  0.00    +0.244 C 
ATOM      8  O1  UNL     1      22.387  15.838  21.665  0.00  0.00    -0.273 OA
ATOM      9  N1  UNL     1      20.994  14.182  20.776  0.00  0.00    -0.299 N 
ATOM     10  C8  UNL     1      20.010  15.177  20.329  0.00  0.00    +0.132 C 
BRANCH   7  14
ATOM     11  C3  UNL     1      23.626  14.215  24.662  0.00  0.00    +0.119 C 
ATOM     12  C4  UNL     1      24.738  14.436  23.649  0.00  0.00    +0.034 C 
ATOM     13  C5  UNL     1      24.230  13.702  22.446  0.00  0.00    +0.043 C 
ATOM     14  C6  UNL     1      22.714  13.687  22.642  0.00  0.00    +0.204 C 
ATOM     15  O2  UNL     1      22.407  14.066  23.969  0.00  0.00    -0.364 OA
BRANCH  11  17
ATOM     16  C1  UNL     1      23.002  16.661  25.165  0.00  0.00    +0.006 C 
ATOM     17  C2  UNL     1      23.531  15.334  25.717  0.00  0.00    +0.028 C 
ENDBRANCH  11  17
ENDBRANCH   7  14
ENDBRANCH   1   9
BRANCH   4  18
ATOM     18  C12 UNL     1      20.436   8.985  18.592  0.00  0.00    +0.160 C 
BRANCH  18  19
ATOM     19  C13 UNL     1      21.006   7.890  19.454  0.00  0.00    +0.143 A 
ATOM     20  N3  UNL     1      21.223   8.108  20.781  0.00  0.00    -0.239 NA
ATOM     21  C14 UNL     1      21.743   7.135  21.573  0.00  0.00    +0.114 A 
ATOM     22  C15 UNL     1      22.062   5.892  21.029  0.00  0.00    +0.039 A 
ATOM     23  C16 UNL     1      21.832   5.683  19.670  0.00  0.00    +0.114 A 
ATOM     24  N4  UNL     1      21.311   6.681  18.911  0.00  0.00    -0.239 NA
ENDBRANCH  18  19
ENDBRANCH   4  18
TORSDOF 5
ENDMDL
MODEL 6
REMARK VINA RESULT:    -5.330      3.403      7.068
REMARK INTER + INTRA:          -7.590
REMARK INTER:                  -6.893
REMARK INTRA:                  -0.697
REMARK UNBOUND:                -0.702
REMARK  Name = /home/qwerty/github/datacon2025hack/step_04_hit_selection/docking/ligands/lig_219.pdb
REMARK  7 active torsions:
REMARK  status: ('A' for Active; 'I' for Inactive)
REMARK    1  A    between atoms: C1_1  and  C2_2
REMARK    2  A    between atoms: C2_2  and  C3_3
REMARK    3  A    between atoms: C6_6  and  C7_7
REMARK    4  A    between atoms: N1_9  and  C8_10
REMARK    5  A    between atoms: N1_9  and  C9_11
REMARK    6  A    between atoms: N2_14  and  C12_15
REMARK    7  A    between atoms: C12_15  and  C13_16
REMARK                            x       y       z     vdW  Elec       q    Type
REMARK                         _______ _______ _______ _____ _____    ______ ____
ROOT
ATOM      1  C9  UNL     1      12.569  13.614  31.302  0.00  0.00    +0.078 C 
ATOM      2  C10 UNL     1      12.068  14.744  32.221  0.00  0.00    +0.038 C 
ATOM      3  C11 UNL     1      12.141  14.330  33.709  0.00  0.00    +0.086 C 
ATOM      4  N2  UNL     1      13.088  13.215  33.937  0.00  0.00    -0.295 NA
ATOM      5  C17 UNL     1      14.326  13.365  33.148  0.00  0.00    +0.086 C 
ATOM      6  C18 UNL     1      14.020  13.207  31.648  0.00  0.00    +0.038 C 
ENDROOT
BRANCH   1   9
ATOM      7  C7  UNL     1      11.188  13.808  29.164  0.00  0.00    +0.244 C 
ATOM      8  O1  UNL     1      10.940  14.541  28.167  0.00  0.00    -0.273 OA
ATOM      9  N1  UNL     1      12.437  13.975  29.874  0.00  0.00    -0.299 N 
ATOM     10  C8  UNL     1      13.578  14.512  29.121  0.00  0.00    +0.132 C 
BRANCH   7  14
ATOM     11  C3  UNL     1       8.823  11.548  28.214  0.00  0.00    +0.119 C 
ATOM     12  C4  UNL     1       8.056  12.836  28.463  0.00  0.00    +0.034 C 
ATOM     13  C5  UNL     1       8.763  13.408  29.654  0.00  0.00    +0.043 C 
ATOM     14  C6  UNL     1      10.158  12.787  29.581  0.00  0.00    +0.204 C 
ATOM     15  O2  UNL     1      10.151  11.719  28.655  0.00  0.00    -0.364 OA
BRANCH  11  17
ATOM     16  C1  UNL     1       7.924   9.842  26.509  0.00  0.00    +0.006 C 
ATOM     17  C2  UNL     1       8.782  11.088  26.743  0.00  0.00    +0.028 C 
ENDBRANCH  11  17
ENDBRANCH   7  14
ENDBRANCH   1   9
BRANCH   4  18
ATOM     18  C12 UNL     1      13.337  12.958  35.373  0.00  0.00    +0.160 C 
BRANCH  18  19
ATOM     19  C13 UNL     1      12.491  11.850  35.942  0.00  0.00    +0.143 A 
ATOM     20  N3  UNL     1      12.415  10.651  35.301  0.00  0.00    -0.239 NA
ATOM     21  C14 UNL     1      11.652   9.642  35.794  0.00  0.00    +0.114 A 
ATOM     22  C15 UNL     1      10.932   9.827  36.973  0.00  0.00    +0.039 A 
ATOM     23  C16 UNL     1      11.021  11.059  37.619  0.00  0.00    +0.114 A 
ATOM     24  N4  UNL     1      11.796  12.044  37.095  0.00  0.00    -0.239 NA
ENDBRANCH  18  19
ENDBRANCH   4  18
TORSDOF 5
ENDMDL
MODEL 7
REMARK VINA RESULT:    -5.317     13.719     15.089
REMARK INTER + INTRA:          -7.573
REMARK INTER:                  -6.910
REMARK INTRA:                  -0.663
REMARK UNBOUND:                -0.702
REMARK  Name = /home/qwerty/github/datacon2025hack/step_04_hit_selection/docking/ligands/lig_219.pdb
REMARK  7 active torsions:
REMARK  status: ('A' for Active; 'I' for Inactive)
REMARK    1  A    between atoms: C1_1  and  C2_2
REMARK    2  A    between atoms: C2_2  and  C3_3
REMARK    3  A    between atoms: C6_6  and  C7_7
REMARK    4  A    between atoms: N1_9  and  C8_10
REMARK    5  A    between atoms: N1_9  and  C9_11
REMARK    6  A    between atoms: N2_14  and  C12_15
REMARK    7  A    between atoms: C12_15  and  C13_16
REMARK                            x       y       z     vdW  Elec       q    Type
REMARK                         _______ _______ _______ _____ _____    ______ ____
ROOT
ATOM      1  C9  UNL     1      20.796   1.729  30.226  0.00  0.00    +0.078 C 
ATOM      2  C10 UNL     1      19.463   1.389  29.533  0.00  0.00    +0.038 C 
ATOM      3  C11 UNL     1      19.544   1.638  28.009  0.00  0.00    +0.086 C 
ATOM      4  N2  UNL     1      20.941   1.656  27.516  0.00  0.00    -0.295 NA
ATOM      5  C17 UNL     1      21.766   0.604  28.141  0.00  0.00    +0.086 C 
ATOM      6  C18 UNL     1      21.964   0.906  29.637  0.00  0.00    +0.038 C 
ENDROOT
BRANCH   1   9
ATOM      7  C7  UNL     1      21.079   2.623  32.600  0.00  0.00    +0.244 C 
ATOM      8  O1  UNL     1      20.554   2.671  33.747  0.00  0.00    -0.273 OA
ATOM      9  N1  UNL     1      20.704   1.562  31.693  0.00  0.00    -0.299 N 
ATOM     10  C8  UNL     1      20.233   0.301  32.281  0.00  0.00    +0.132 C 
BRANCH   7  14
ATOM     11  C3  UNL     1      22.573   5.582  33.385  0.00  0.00    +0.119 C 
ATOM     12  C4  UNL     1      21.406   5.958  32.486  0.00  0.00    +0.034 C 
ATOM     13  C5  UNL     1      21.398   4.844  31.485  0.00  0.00    +0.043 C 
ATOM     14  C6  UNL     1      22.078   3.689  32.220  0.00  0.00    +0.204 C 
ATOM     15  O2  UNL     1      22.710   4.180  33.385  0.00  0.00    -0.364 OA
BRANCH  11  17
ATOM     16  C1  UNL     1      23.767   6.550  35.449  0.00  0.00    +0.006 C 
ATOM     17  C2  UNL     1      22.438   6.127  34.820  0.00  0.00    +0.028 C 
ENDBRANCH  11  17
ENDBRANCH   7  14
ENDBRANCH   1   9
BRANCH   4  18
ATOM     18  C12 UNL     1      21.027   1.667  26.039  0.00  0.00    +0.160 C 
BRANCH  18  19
ATOM     19  C13 UNL     1      21.484   2.986  25.473  0.00  0.00    +0.143 A 
ATOM     20  N3  UNL     1      20.822   3.544  24.423  0.00  0.00    -0.239 NA
ATOM     21  C14 UNL     1      21.223   4.730  23.893  0.00  0.00    +0.114 A 
ATOM     22  C15 UNL     1      22.328   5.390  24.428  0.00  0.00    +0.039 A 
ATOM     23  C16 UNL     1      22.994   4.808  25.504  0.00  0.00    +0.114 A 
ATOM     24  N4  UNL     1      22.562   3.622  26.006  0.00  0.00    -0.239 NA
ENDBRANCH  18  19
ENDBRANCH   4  18
TORSDOF 5
ENDMDL
MODEL 8
REMARK VINA RESULT:    -5.261     13.916     15.763
REMARK INTER + INTRA:          -7.501
REMARK INTER:                  -6.683
REMARK INTRA:                  -0.818
REMARK UNBOUND:                -0.702
REMARK  Name = /home/qwerty/github/datacon2025hack/step_04_hit_selection/docking/ligands/lig_219.pdb
REMARK  7 active torsions:
REMARK  status: ('A' for Active; 'I' for Inactive)
REMARK    1  A    between atoms: C1_1  and  C2_2
REMARK    2  A    between atoms: C2_2  and  C3_3
REMARK    3  A    between atoms: C6_6  and  C7_7
REMARK    4  A    between atoms: N1_9  and  C8_10
REMARK    5  A    between atoms: N1_9  and  C9_11
REMARK    6  A    between atoms: N2_14  and  C12_15
REMARK    7  A    between atoms: C12_15  and  C13_16
REMARK                            x       y       z     vdW  Elec       q    Type
REMARK                         _______ _______ _______ _____ _____    ______ ____
ROOT
ATOM      1  C9  UNL     1      20.575   1.615  27.701  0.00  0.00    +0.078 C 
ATOM      2  C10 UNL     1      21.596   0.558  28.163  0.00  0.00    +0.038 C 
ATOM      3  C11 UNL     1      21.904   0.698  29.671  0.00  0.00    +0.086 C 
ATOM      4  N2  UNL     1      20.842   1.432  30.397  0.00  0.00    -0.295 NA
ATOM      5  C17 UNL     1      19.491   1.044  29.950  0.00  0.00    +0.086 C 
ATOM      6  C18 UNL     1      19.257   1.514  28.503  0.00  0.00    +0.038 C 
ENDROOT
BRANCH   1   9
ATOM      7  C7  UNL     1      20.748   2.585  25.347  0.00  0.00    +0.244 C 
ATOM      8  O1  UNL     1      20.988   2.308  24.139  0.00  0.00    -0.273 OA
ATOM      9  N1  UNL     1      20.328   1.534  26.245  0.00  0.00    -0.299 N 
ATOM     10  C8  UNL     1      19.637   0.377  25.660  0.00  0.00    +0.132 C 
BRANCH   7  14
ATOM     11  C3  UNL     1      21.549   5.796  24.537  0.00  0.00    +0.119 C 
ATOM     12  C4  UNL     1      22.847   5.183  25.039  0.00  0.00    +0.034 C 
ATOM     13  C5  UNL     1      22.378   4.307  26.160  0.00  0.00    +0.043 C 
ATOM     14  C6  UNL     1      20.920   4.013  25.807  0.00  0.00    +0.204 C 
ATOM     15  O2  UNL     1      20.497   4.891  24.783  0.00  0.00    -0.364 OA
BRANCH  11  17
ATOM     16  C1  UNL     1      21.117   5.101  22.097  0.00  0.00    +0.006 C 
ATOM     17  C2  UNL     1      21.600   6.198  23.050  0.00  0.00    +0.028 C 
ENDBRANCH  11  17
ENDBRANCH   7  14
ENDBRANCH   1   9
BRANCH   4  18
ATOM     18  C12 UNL     1      21.010   1.379  31.866  0.00  0.00    +0.160 C 
BRANCH  18  19
ATOM     19  C13 UNL     1      21.394   2.701  32.476  0.00  0.00    +0.143 A 
ATOM     20  N3  UNL     1      22.564   3.302  32.123  0.00  0.00    -0.239 NA
ATOM     21  C14 UNL     1      22.932   4.491  32.668  0.00  0.00    +0.114 A 
ATOM     22  C15 UNL     1      22.105   5.113  33.602  0.00  0.00    +0.039 A 
ATOM     23  C16 UNL     1      20.910   4.488  33.951  0.00  0.00    +0.114 A 
ATOM     24  N4  UNL     1      20.577   3.299  33.385  0.00  0.00    -0.239 NA
ENDBRANCH  18  19
ENDBRANCH   4  18
TORSDOF 5
ENDMDL
MODEL 9
REMARK VINA RESULT:    -5.249      4.493      7.050
REMARK INTER + INTRA:          -7.485
REMARK INTER:                  -6.822
REMARK INTRA:                  -0.663
REMARK UNBOUND:                -0.702
REMARK  Name = /home/qwerty/github/datacon2025hack/step_04_hit_selection/docking/ligands/lig_219.pdb
REMARK  7 active torsions:
REMARK  status: ('A' for Active; 'I' for Inactive)
REMARK    1  A    between atoms: C1_1  and  C2_2
REMARK    2  A    between atoms: C2_2  and  C3_3
REMARK    3  A    between atoms: C6_6  and  C7_7
REMARK    4  A    between atoms: N1_9  and  C8_10
REMARK    5  A    between atoms: N1_9  and  C9_11
REMARK    6  A    between atoms: N2_14  and  C12_15
REMARK    7  A    between atoms: C12_15  and  C13_16
REMARK                            x       y       z     vdW  Elec       q    Type
REMARK                         _______ _______ _______ _____ _____    ______ ____
ROOT
ATOM      1  C9  UNL     1       8.473   8.834  26.025  0.00  0.00    +0.078 C 
ATOM      2  C10 UNL     1       7.515   9.495  25.015  0.00  0.00    +0.038 C 
ATOM      3  C11 UNL     1       8.054   9.375  23.571  0.00  0.00    +0.086 C 
ATOM      4  N2  UNL     1       9.043   8.282  23.428  0.00  0.00    -0.295 NA
ATOM      5  C17 UNL     1       8.647   7.072  24.175  0.00  0.00    +0.086 C 
ATOM      6  C18 UNL     1       8.704   7.342  25.689  0.00  0.00    +0.038 C 
ENDROOT
BRANCH   1   9
ATOM      7  C7  UNL     1       7.991  10.301  28.057  0.00  0.00    +0.244 C 
ATOM      8  O1  UNL     1       7.169  10.526  28.988  0.00  0.00    -0.273 OA
ATOM      9  N1  UNL     1       8.000   9.006  27.416  0.00  0.00    -0.299 N 
ATOM     10  C8  UNL     1       7.527   7.858  28.201  0.00  0.00    +0.132 C 
BRANCH   7  14
ATOM     11  C3  UNL     1      10.324  12.601  28.996  0.00  0.00    +0.119 C 
ATOM     12  C4  UNL     1       9.002  13.351  29.018  0.00  0.00    +0.034 C 
ATOM     13  C5  UNL     1       8.286  12.780  27.832  0.00  0.00    +0.043 C 
ATOM     14  C6  UNL     1       8.932  11.408  27.644  0.00  0.00    +0.204 C 
ATOM     15  O2  UNL     1      10.114  11.333  28.416  0.00  0.00    -0.364 OA
BRANCH  11  17
ATOM     16  C1  UNL     1      11.037  13.791  31.164  0.00  0.00    +0.006 C 
ATOM     17  C2  UNL     1      10.975  12.473  30.387  0.00  0.00    +0.028 C 
ENDBRANCH  11  17
ENDBRANCH   7  14
ENDBRANCH   1   9
BRANCH   4  18
ATOM     18  C12 UNL     1       9.396   8.009  22.017  0.00  0.00    +0.160 C 
BRANCH  18  19
ATOM     19  C13 UNL     1      10.428   8.955  21.463  0.00  0.00    +0.143 A 
ATOM     20  N3  UNL     1      10.217   9.572  20.268  0.00  0.00    -0.239 NA
ATOM     21  C14 UNL     1      11.139  10.423  19.747  0.00  0.00    +0.114 A 
ATOM     22  C15 UNL     1      12.322  10.673  20.440  0.00  0.00    +0.039 A 
ATOM     23  C16 UNL     1      12.523  10.037  21.663  0.00  0.00    +0.114 A 
ATOM     24  N4  UNL     1      11.577   9.193  22.151  0.00  0.00    -0.239 NA
ENDBRANCH  18  19
ENDBRANCH   4  18
TORSDOF 5
ENDMDL
