MODEL 1
REMARK VINA RESULT:    -7.123      0.000      0.000
REMARK INTER + INTRA:          -8.997
REMARK INTER:                  -8.372
REMARK INTRA:                  -0.625
REMARK UNBOUND:                -0.625
REMARK  Name = /home/qwerty/github/datacon2025hack/step_04_hit_selection/docking/ligands/lig_318.pdb
REMARK  4 active torsions:
REMARK  status: ('A' for Active; 'I' for Inactive)
REMARK    1  A    between atoms: C1_1  and  N1_2
REMARK    2  A    between atoms: C3_4  and  C4_5
REMARK    3  A    between atoms: N2_7  and  C5_8
REMARK    4  A    between atoms: C9_12  and  C10_13
REMARK                            x       y       z     vdW  Elec       q    Type
REMARK                         _______ _______ _______ _____ _____    ______ ____
ROOT
ATOM      1  C5  UNL     1      11.470  14.094  33.290  0.00  0.00    +0.034 A 
ATOM      2  C6  UNL     1      10.471  14.194  34.271  0.00  0.00    +0.023 A 
ATOM      3  C7  UNL     1      10.787  14.020  35.620  0.00  0.00    +0.002 A 
ATOM      4  C8  UNL     1      12.104  13.758  36.005  0.00  0.00    +0.008 A 
ATOM      5  C9  UNL     1      13.124  13.675  35.042  0.00  0.00    -0.016 A 
ATOM      6  C18 UNL     1      12.795  13.852  33.684  0.00  0.00    +0.031 A 
ENDROOT
BRANCH   5   7
ATOM      7  C10 UNL     1      14.526  13.405  35.450  0.00  0.00    -0.014 A 
ATOM      8  C11 UNL     1      14.867  13.305  36.812  0.00  0.00    +0.010 A 
ATOM      9  C12 UNL     1      16.186  13.045  37.197  0.00  0.00    +0.027 A 
ATOM     10  C13 UNL     1      17.183  12.892  36.227  0.00  0.00    +0.076 A 
ATOM     11  C14 UNL     1      16.856  12.997  34.868  0.00  0.00    +0.143 A 
ATOM     12  C15 UNL     1      15.535  13.244  34.481  0.00  0.00    +0.056 A 
ATOM     13  O2  UNL     1      17.849  12.829  33.895  0.00  0.00    -0.481 OA
ATOM     14  C16 UNL     1      19.248  12.901  34.188  0.00  0.00    +0.325 C 
ATOM     15  C17 UNL     1      19.542  12.471  35.597  0.00  0.00    +0.255 C 
ATOM     16  O3  UNL     1      20.698  12.084  35.909  0.00  0.00    -0.272 OA
ATOM     17  N3  UNL     1      18.528  12.578  36.601  0.00  0.00    -0.280 N 
ATOM     18  H14 UNL     1      18.770  12.398  37.601  0.00  0.00    +0.155 HD
ENDBRANCH   5   7
BRANCH   1  21
ATOM     19  C4  UNL     1      10.813  13.241  30.993  0.00  0.00    +0.251 C 
ATOM     20  O1  UNL     1      11.034  12.038  31.303  0.00  0.00    -0.270 OA
ATOM     21  N2  UNL     1      11.176  14.298  31.897  0.00  0.00    -0.281 N 
ATOM     22  H5  UNL     1      11.331  15.252  31.502  0.00  0.00    +0.155 HD
BRANCH  19  26
ATOM     23  C1  UNL     1       7.571  14.169  27.297  0.00  0.00    +0.172 C 
ATOM     24  N1  UNL     1       8.800  13.921  28.038  0.00  0.00    -0.274 N 
ATOM     25  C2  UNL     1       8.884  13.642  29.352  0.00  0.00    +0.121 A 
ATOM     26  C3  UNL     1      10.221  13.545  29.680  0.00  0.00    +0.074 A 
ATOM     27  C19 UNL     1      10.900  13.788  28.499  0.00  0.00    +0.147 A 
ATOM     28  N4  UNL     1      10.011  14.025  27.515  0.00  0.00    -0.179 NA
ENDBRANCH  19  26
ENDBRANCH   1  21
TORSDOF 3
ENDMDL
MODEL 2
REMARK VINA RESULT:    -6.748      9.021     13.109
REMARK INTER + INTRA:          -8.556
REMARK INTER:                  -7.981
REMARK INTRA:                  -0.575
REMARK UNBOUND:                -0.625
REMARK  Name = /home/qwerty/github/datacon2025hack/step_04_hit_selection/docking/ligands/lig_318.pdb
REMARK  4 active torsions:
REMARK  status: ('A' for Active; 'I' for Inactive)
REMARK    1  A    between atoms: C1_1  and  N1_2
REMARK    2  A    between atoms: C3_4  and  C4_5
REMARK    3  A    between atoms: N2_7  and  C5_8
REMARK    4  A    between atoms: C9_12  and  C10_13
REMARK                            x       y       z     vdW  Elec       q    Type
REMARK                         _______ _______ _______ _____ _____    ______ ____
ROOT
ATOM      1  C5  UNL     1      23.228   4.595  33.025  0.00  0.00    +0.034 A 
ATOM      2  C6  UNL     1      24.440   5.231  32.710  0.00  0.00    +0.023 A 
ATOM      3  C7  UNL     1      24.756   6.466  33.279  0.00  0.00    +0.002 A 
ATOM      4  C8  UNL     1      23.877   7.073  34.177  0.00  0.00    +0.008 A 
ATOM      5  C9  UNL     1      22.667   6.445  34.524  0.00  0.00    -0.016 A 
ATOM      6  C18 UNL     1      22.357   5.199  33.946  0.00  0.00    +0.031 A 
ENDROOT
BRANCH   5   7
ATOM      7  C10 UNL     1      21.735   7.083  35.486  0.00  0.00    -0.014 A 
ATOM      8  C11 UNL     1      22.024   7.093  36.864  0.00  0.00    +0.010 A 
ATOM      9  C12 UNL     1      21.149   7.701  37.769  0.00  0.00    +0.027 A 
ATOM     10  C13 UNL     1      19.969   8.298  37.312  0.00  0.00    +0.076 A 
ATOM     11  C14 UNL     1      19.667   8.287  35.943  0.00  0.00    +0.143 A 
ATOM     12  C15 UNL     1      20.548   7.691  35.035  0.00  0.00    +0.056 A 
ATOM     13  O2  UNL     1      18.494   8.898  35.481  0.00  0.00    -0.481 OA
ATOM     14  C16 UNL     1      17.399   9.232  36.340  0.00  0.00    +0.325 C 
ATOM     15  C17 UNL     1      17.861   9.529  37.738  0.00  0.00    +0.255 C 
ATOM     16  O3  UNL     1      17.139  10.215  38.508  0.00  0.00    -0.272 OA
ATOM     17  N3  UNL     1      19.086   8.965  38.219  0.00  0.00    -0.280 N 
ATOM     18  H14 UNL     1      19.342   9.069  39.226  0.00  0.00    +0.155 HD
ENDBRANCH   5   7
BRANCH   1  21
ATOM     19  C4  UNL     1      22.096   3.129  31.292  0.00  0.00    +0.251 C 
ATOM     20  O1  UNL     1      21.395   4.079  30.848  0.00  0.00    -0.270 OA
ATOM     21  N2  UNL     1      22.892   3.309  32.476  0.00  0.00    -0.281 N 
ATOM     22  H5  UNL     1      23.158   2.461  33.024  0.00  0.00    +0.155 HD
BRANCH  19  26
ATOM     23  C1  UNL     1      23.322  -0.935  28.643  0.00  0.00    +0.172 C 
ATOM     24  N1  UNL     1      22.572   0.048  29.413  0.00  0.00    -0.274 N 
ATOM     25  C2  UNL     1      23.050   1.222  29.868  0.00  0.00    +0.121 A 
ATOM     26  C3  UNL     1      22.053   1.827  30.606  0.00  0.00    +0.074 A 
ATOM     27  C19 UNL     1      20.986   0.946  30.562  0.00  0.00    +0.147 A 
ATOM     28  N4  UNL     1      21.332  -0.135  29.837  0.00  0.00    -0.179 NA
ENDBRANCH  19  26
ENDBRANCH   1  21
TORSDOF 3
ENDMDL
MODEL 3
REMARK VINA RESULT:    -6.732     15.173     18.404
REMARK INTER + INTRA:          -8.538
REMARK INTER:                  -8.010
REMARK INTRA:                  -0.527
REMARK UNBOUND:                -0.625
REMARK  Name = /home/qwerty/github/datacon2025hack/step_04_hit_selection/docking/ligands/lig_318.pdb
REMARK  4 active torsions:
REMARK  status: ('A' for Active; 'I' for Inactive)
REMARK    1  A    between atoms: C1_1  and  N1_2
REMARK    2  A    between atoms: C3_4  and  C4_5
REMARK    3  A    between atoms: N2_7  and  C5_8
REMARK    4  A    between atoms: C9_12  and  C10_13
REMARK                            x       y       z     vdW  Elec       q    Type
REMARK                         _______ _______ _______ _____ _____    ______ ____
ROOT
ATOM      1  C5  UNL     1      18.513  -0.718  24.917  0.00  0.00    +0.034 A 
ATOM      2  C6  UNL     1      18.265  -2.079  25.160  0.00  0.00    +0.023 A 
ATOM      3  C7  UNL     1      17.105  -2.682  24.670  0.00  0.00    +0.002 A 
ATOM      4  C8  UNL     1      16.188  -1.941  23.922  0.00  0.00    +0.008 A 
ATOM      5  C9  UNL     1      16.426  -0.582  23.648  0.00  0.00    -0.016 A 
ATOM      6  C18 UNL     1      17.599   0.018  24.146  0.00  0.00    +0.031 A 
ENDROOT
BRANCH   5   7
ATOM      7  C10 UNL     1      15.458   0.206  22.845  0.00  0.00    -0.014 A 
ATOM      8  C11 UNL     1      14.107  -0.185  22.770  0.00  0.00    +0.010 A 
ATOM      9  C12 UNL     1      13.193   0.561  22.019  0.00  0.00    +0.027 A 
ATOM     10  C13 UNL     1      13.618   1.700  21.327  0.00  0.00    +0.076 A 
ATOM     11  C14 UNL     1      14.961   2.094  21.389  0.00  0.00    +0.143 A 
ATOM     12  C15 UNL     1      15.874   1.357  22.150  0.00  0.00    +0.056 A 
ATOM     13  O2  UNL     1      15.386   3.243  20.709  0.00  0.00    -0.481 OA
ATOM     14  C16 UNL     1      14.623   3.858  19.666  0.00  0.00    +0.325 C 
ATOM     15  C17 UNL     1      13.148   3.636  19.853  0.00  0.00    +0.255 C 
ATOM     16  O3  UNL     1      12.321   4.408  19.302  0.00  0.00    -0.272 OA
ATOM     17  N3  UNL     1      12.686   2.502  20.592  0.00  0.00    -0.280 N 
ATOM     18  H14 UNL     1      11.666   2.280  20.616  0.00  0.00    +0.155 HD
ENDBRANCH   5   7
BRANCH   1  21
ATOM     19  C4  UNL     1      19.751   0.837  26.493  0.00  0.00    +0.251 C 
ATOM     20  O1  UNL     1      18.687   1.365  26.916  0.00  0.00    -0.270 OA
ATOM     21  N2  UNL     1      19.713  -0.079  25.386  0.00  0.00    -0.281 N 
ATOM     22  H5  UNL     1      20.586  -0.214  24.828  0.00  0.00    +0.155 HD
BRANCH  19  26
ATOM     23  C1  UNL     1      23.904   0.805  29.284  0.00  0.00    +0.172 C 
ATOM     24  N1  UNL     1      22.847   1.215  28.371  0.00  0.00    -0.274 N 
ATOM     25  C2  UNL     1      21.744   0.503  28.073  0.00  0.00    +0.121 A 
ATOM     26  C3  UNL     1      21.032   1.204  27.121  0.00  0.00    +0.074 A 
ATOM     27  C19 UNL     1      21.778   2.345  26.880  0.00  0.00    +0.147 A 
ATOM     28  N4  UNL     1      22.885   2.323  27.647  0.00  0.00    -0.179 NA
ENDBRANCH  19  26
ENDBRANCH   1  21
TORSDOF 3
ENDMDL
MODEL 4
REMARK VINA RESULT:    -6.681      8.777     13.761
REMARK INTER + INTRA:          -8.478
REMARK INTER:                  -7.874
REMARK INTRA:                  -0.604
REMARK UNBOUND:                -0.625
REMARK  Name = /home/qwerty/github/datacon2025hack/step_04_hit_selection/docking/ligands/lig_318.pdb
REMARK  4 active torsions:
REMARK  status: ('A' for Active; 'I' for Inactive)
REMARK    1  A    between atoms: C1_1  and  N1_2
REMARK    2  A    between atoms: C3_4  and  C4_5
REMARK    3  A    between atoms: N2_7  and  C5_8
REMARK    4  A    between atoms: C9_12  and  C10_13
REMARK                            x       y       z     vdW  Elec       q    Type
REMARK                         _______ _______ _______ _____ _____    ______ ____
ROOT
ATOM      1  C5  UNL     1       8.058   9.557  23.987  0.00  0.00    +0.034 A 
ATOM      2  C6  UNL     1       7.891  10.459  22.923  0.00  0.00    +0.023 A 
ATOM      3  C7  UNL     1       8.172  10.064  21.614  0.00  0.00    +0.002 A 
ATOM      4  C8  UNL     1       8.610   8.765  21.349  0.00  0.00    +0.008 A 
ATOM      5  C9  UNL     1       8.764   7.839  22.396  0.00  0.00    -0.016 A 
ATOM      6  C18 UNL     1       8.477   8.246  23.713  0.00  0.00    +0.031 A 
ENDROOT
BRANCH   5   7
ATOM      7  C10 UNL     1       9.221   6.454  22.116  0.00  0.00    -0.014 A 
ATOM      8  C11 UNL     1       9.774   6.123  20.865  0.00  0.00    +0.010 A 
ATOM      9  C12 UNL     1      10.210   4.821  20.603  0.00  0.00    +0.027 A 
ATOM     10  C13 UNL     1      10.090   3.830  21.584  0.00  0.00    +0.076 A 
ATOM     11  C14 UNL     1       9.533   4.147  22.831  0.00  0.00    +0.143 A 
ATOM     12  C15 UNL     1       9.109   5.452  23.099  0.00  0.00    +0.056 A 
ATOM     13  O2  UNL     1       9.426   3.161  23.820  0.00  0.00    -0.481 OA
ATOM     14  C16 UNL     1       9.522   1.761  23.539  0.00  0.00    +0.325 C 
ATOM     15  C17 UNL     1      10.400   1.494  22.349  0.00  0.00    +0.255 C 
ATOM     16  O3  UNL     1      10.925   0.360  22.195  0.00  0.00    -0.272 OA
ATOM     17  N3  UNL     1      10.574   2.504  21.350  0.00  0.00    -0.280 N 
ATOM     18  H14 UNL     1      11.081   2.275  20.466  0.00  0.00    +0.155 HD
ENDBRANCH   5   7
BRANCH   1  21
ATOM     19  C4  UNL     1       8.723  10.408  26.282  0.00  0.00    +0.251 C 
ATOM     20  O1  UNL     1       9.953  10.235  26.064  0.00  0.00    -0.270 OA
ATOM     21  N2  UNL     1       7.748   9.930  25.341  0.00  0.00    -0.281 N 
ATOM     22  H5  UNL     1       6.778   9.748  25.685  0.00  0.00    +0.155 HD
BRANCH  19  26
ATOM     23  C1  UNL     1       7.527  13.837  29.724  0.00  0.00    +0.172 C 
ATOM     24  N1  UNL     1       7.806  12.569  29.064  0.00  0.00    -0.274 N 
ATOM     25  C2  UNL     1       8.221  12.419  27.792  0.00  0.00    +0.121 A 
ATOM     26  C3  UNL     1       8.302  11.067  27.530  0.00  0.00    +0.074 A 
ATOM     27  C19 UNL     1       7.909  10.448  28.704  0.00  0.00    +0.147 A 
ATOM     28  N4  UNL     1       7.602  11.386  29.620  0.00  0.00    -0.179 NA
ENDBRANCH  19  26
ENDBRANCH   1  21
TORSDOF 3
ENDMDL
MODEL 5
REMARK VINA RESULT:    -6.681     12.596     16.341
REMARK INTER + INTRA:          -8.478
REMARK INTER:                  -7.872
REMARK INTRA:                  -0.605
REMARK UNBOUND:                -0.625
REMARK  Name = /home/qwerty/github/datacon2025hack/step_04_hit_selection/docking/ligands/lig_318.pdb
REMARK  4 active torsions:
REMARK  status: ('A' for Active; 'I' for Inactive)
REMARK    1  A    between atoms: C1_1  and  N1_2
REMARK    2  A    between atoms: C3_4  and  C4_5
REMARK    3  A    between atoms: N2_7  and  C5_8
REMARK    4  A    between atoms: C9_12  and  C10_13
REMARK                            x       y       z     vdW  Elec       q    Type
REMARK                         _______ _______ _______ _____ _____    ______ ____
ROOT
ATOM      1  C5  UNL     1      21.887  14.104  20.847  0.00  0.00    +0.034 A 
ATOM      2  C6  UNL     1      22.123  14.891  19.709  0.00  0.00    +0.023 A 
ATOM      3  C7  UNL     1      21.503  14.582  18.497  0.00  0.00    +0.002 A 
ATOM      4  C8  UNL     1      20.632  13.495  18.409  0.00  0.00    +0.008 A 
ATOM      5  C9  UNL     1      20.364  12.705  19.542  0.00  0.00    -0.016 A 
ATOM      6  C18 UNL     1      20.993  13.025  20.760  0.00  0.00    +0.031 A 
ENDROOT
BRANCH   5   7
ATOM      7  C10 UNL     1      19.431  11.554  19.454  0.00  0.00    -0.014 A 
ATOM      8  C11 UNL     1      18.039  11.754  19.529  0.00  0.00    +0.010 A 
ATOM      9  C12 UNL     1      17.159  10.671  19.440  0.00  0.00    +0.027 A 
ATOM     10  C13 UNL     1      17.659   9.373  19.283  0.00  0.00    +0.076 A 
ATOM     11  C14 UNL     1      19.043   9.161  19.215  0.00  0.00    +0.143 A 
ATOM     12  C15 UNL     1      19.923  10.245  19.291  0.00  0.00    +0.056 A 
ATOM     13  O2  UNL     1      19.544   7.864  19.042  0.00  0.00    -0.481 OA
ATOM     14  C16 UNL     1      18.763   6.689  19.280  0.00  0.00    +0.325 C 
ATOM     15  C17 UNL     1      17.302   6.934  19.030  0.00  0.00    +0.255 C 
ATOM     16  O3  UNL     1      16.533   5.966  18.791  0.00  0.00    -0.272 OA
ATOM     17  N3  UNL     1      16.772   8.258  19.143  0.00  0.00    -0.280 N 
ATOM     18  H14 UNL     1      15.739   8.408  19.092  0.00  0.00    +0.155 HD
ENDBRANCH   5   7
BRANCH   1  21
ATOM     19  C4  UNL     1      21.802  15.087  23.184  0.00  0.00    +0.251 C 
ATOM     20  O1  UNL     1      20.728  15.708  22.957  0.00  0.00    -0.270 OA
ATOM     21  N2  UNL     1      22.490  14.418  22.114  0.00  0.00    -0.281 N 
ATOM     22  H5  UNL     1      23.513  14.237  22.224  0.00  0.00    +0.155 HD
BRANCH  19  26
ATOM     23  C1  UNL     1      23.966  13.725  27.485  0.00  0.00    +0.172 C 
ATOM     24  N1  UNL     1      23.280  14.497  26.458  0.00  0.00    -0.274 N 
ATOM     25  C2  UNL     1      22.917  14.042  25.244  0.00  0.00    +0.121 A 
ATOM     26  C3  UNL     1      22.358  15.095  24.547  0.00  0.00    +0.074 A 
ATOM     27  C19 UNL     1      22.424  16.174  25.412  0.00  0.00    +0.147 A 
ATOM     28  N4  UNL     1      22.999  15.785  26.566  0.00  0.00    -0.179 NA
ENDBRANCH  19  26
ENDBRANCH   1  21
TORSDOF 3
ENDMDL
MODEL 6
REMARK VINA RESULT:    -6.518     14.980     16.856
REMARK INTER + INTRA:          -8.286
REMARK INTER:                  -7.688
REMARK INTRA:                  -0.598
REMARK UNBOUND:                -0.625
REMARK  Name = /home/qwerty/github/datacon2025hack/step_04_hit_selection/docking/ligands/lig_318.pdb
REMARK  4 active torsions:
REMARK  status: ('A' for Active; 'I' for Inactive)
REMARK    1  A    between atoms: C1_1  and  N1_2
REMARK    2  A    between atoms: C3_4  and  C4_5
REMARK    3  A    between atoms: N2_7  and  C5_8
REMARK    4  A    between atoms: C9_12  and  C10_13
REMARK                            x       y       z     vdW  Elec       q    Type
REMARK                         _______ _______ _______ _____ _____    ______ ____
ROOT
ATOM      1  C5  UNL     1      21.593   3.569  24.813  0.00  0.00    +0.034 A 
ATOM      2  C6  UNL     1      22.549   3.503  25.840  0.00  0.00    +0.023 A 
ATOM      3  C7  UNL     1      22.353   2.655  26.932  0.00  0.00    +0.002 A 
ATOM      4  C8  UNL     1      21.212   1.853  27.004  0.00  0.00    +0.008 A 
ATOM      5  C9  UNL     1      20.252   1.887  25.977  0.00  0.00    -0.016 A 
ATOM      6  C18 UNL     1      20.458   2.745  24.880  0.00  0.00    +0.031 A 
ENDROOT
BRANCH   5   7
ATOM      7  C10 UNL     1      19.042   1.029  26.047  0.00  0.00    -0.014 A 
ATOM      8  C11 UNL     1      18.087   1.223  27.063  0.00  0.00    +0.010 A 
ATOM      9  C12 UNL     1      16.944   0.420  27.126  0.00  0.00    +0.027 A 
ATOM     10  C13 UNL     1      16.746  -0.594  26.181  0.00  0.00    +0.076 A 
ATOM     11  C14 UNL     1      17.695  -0.800  25.170  0.00  0.00    +0.143 A 
ATOM     12  C15 UNL     1      18.832   0.011  25.099  0.00  0.00    +0.056 A 
ATOM     13  O2  UNL     1      17.491  -1.804  24.215  0.00  0.00    -0.481 OA
ATOM     14  C16 UNL     1      16.554  -2.871  24.393  0.00  0.00    +0.325 C 
ATOM     15  C17 UNL     1      15.397  -2.455  25.257  0.00  0.00    +0.255 C 
ATOM     16  O3  UNL     1      14.309  -3.085  25.198  0.00  0.00    -0.272 OA
ATOM     17  N3  UNL     1      15.559  -1.394  26.202  0.00  0.00    -0.280 N 
ATOM     18  H14 UNL     1      14.797  -1.190  26.886  0.00  0.00    +0.155 HD
ENDBRANCH   5   7
BRANCH   1  21
ATOM     19  C4  UNL     1      21.359   5.784  23.600  0.00  0.00    +0.251 C 
ATOM     20  O1  UNL     1      20.521   6.228  24.432  0.00  0.00    -0.270 OA
ATOM     21  N2  UNL     1      21.784   4.413  23.664  0.00  0.00    -0.281 N 
ATOM     22  H5  UNL     1      22.165   3.973  22.796  0.00  0.00    +0.155 HD
BRANCH  19  26
ATOM     23  C1  UNL     1      24.218   7.955  20.115  0.00  0.00    +0.172 C 
ATOM     24  N1  UNL     1      23.122   7.661  21.027  0.00  0.00    -0.274 N 
ATOM     25  C2  UNL     1      23.092   6.657  21.924  0.00  0.00    +0.121 A 
ATOM     26  C3  UNL     1      21.858   6.677  22.541  0.00  0.00    +0.074 A 
ATOM     27  C19 UNL     1      21.179   7.731  21.954  0.00  0.00    +0.147 A 
ATOM     28  N4  UNL     1      21.968   8.308  21.028  0.00  0.00    -0.179 NA
ENDBRANCH  19  26
ENDBRANCH   1  21
TORSDOF 3
ENDMDL
MODEL 7
REMARK VINA RESULT:    -6.492      6.202      9.366
REMARK INTER + INTRA:          -8.256
REMARK INTER:                  -7.775
REMARK INTRA:                  -0.481
REMARK UNBOUND:                -0.625
REMARK  Name = /home/qwerty/github/datacon2025hack/step_04_hit_selection/docking/ligands/lig_318.pdb
REMARK  4 active torsions:
REMARK  status: ('A' for Active; 'I' for Inactive)
REMARK    1  A    between atoms: C1_1  and  N1_2
REMARK    2  A    between atoms: C3_4  and  C4_5
REMARK    3  A    between atoms: N2_7  and  C5_8
REMARK    4  A    between atoms: C9_12  and  C10_13
REMARK                            x       y       z     vdW  Elec       q    Type
REMARK                         _______ _______ _______ _____ _____    ______ ____
ROOT
ATOM      1  C5  UNL     1      16.652   7.842  37.357  0.00  0.00    +0.034 A 
ATOM      2  C6  UNL     1      16.128   6.718  38.015  0.00  0.00    +0.023 A 
ATOM      3  C7  UNL     1      16.900   5.564  38.163  0.00  0.00    +0.002 A 
ATOM      4  C8  UNL     1      18.205   5.523  37.669  0.00  0.00    +0.008 A 
ATOM      5  C9  UNL     1      18.759   6.644  37.025  0.00  0.00    -0.016 A 
ATOM      6  C18 UNL     1      17.972   7.804  36.882  0.00  0.00    +0.031 A 
ENDROOT
BRANCH   5   7
ATOM      7  C10 UNL     1      20.149   6.606  36.507  0.00  0.00    -0.014 A 
ATOM      8  C11 UNL     1      21.224   7.024  37.315  0.00  0.00    +0.010 A 
ATOM      9  C12 UNL     1      22.535   6.982  36.830  0.00  0.00    +0.027 A 
ATOM     10  C13 UNL     1      22.788   6.532  35.529  0.00  0.00    +0.076 A 
ATOM     11  C14 UNL     1      21.724   6.121  34.714  0.00  0.00    +0.143 A 
ATOM     12  C15 UNL     1      20.414   6.150  35.202  0.00  0.00    +0.056 A 
ATOM     13  O2  UNL     1      21.976   5.655  33.417  0.00  0.00    -0.481 OA
ATOM     14  C16 UNL     1      23.209   5.893  32.729  0.00  0.00    +0.325 C 
ATOM     15  C17 UNL     1      24.361   6.019  33.685  0.00  0.00    +0.255 C 
ATOM     16  O3  UNL     1      25.538   5.824  33.281  0.00  0.00    -0.272 OA
ATOM     17  N3  UNL     1      24.127   6.437  35.033  0.00  0.00    -0.280 N 
ATOM     18  H14 UNL     1      24.938   6.645  35.658  0.00  0.00    +0.155 HD
ENDBRANCH   5   7
BRANCH   1  21
ATOM     19  C4  UNL     1      16.295  10.322  37.755  0.00  0.00    +0.251 C 
ATOM     20  O1  UNL     1      17.192  10.378  38.641  0.00  0.00    -0.270 OA
ATOM     21  N2  UNL     1      15.888   9.053  37.217  0.00  0.00    -0.281 N 
ATOM     22  H5  UNL     1      14.939   8.981  36.786  0.00  0.00    +0.155 HD
BRANCH  19  26
ATOM     23  C1  UNL     1      15.455  15.048  36.341  0.00  0.00    +0.172 C 
ATOM     24  N1  UNL     1      15.260  13.656  36.722  0.00  0.00    -0.274 N 
ATOM     25  C2  UNL     1      16.228  12.803  37.107  0.00  0.00    +0.121 A 
ATOM     26  C3  UNL     1      15.646  11.568  37.314  0.00  0.00    +0.074 A 
ATOM     27  C19 UNL     1      14.305  11.749  37.024  0.00  0.00    +0.147 A 
ATOM     28  N4  UNL     1      14.097  13.027  36.656  0.00  0.00    -0.179 NA
ENDBRANCH  19  26
ENDBRANCH   1  21
TORSDOF 3
ENDMDL
MODEL 8
REMARK VINA RESULT:    -6.431      7.679     11.901
REMARK INTER + INTRA:          -8.184
REMARK INTER:                  -7.603
REMARK INTRA:                  -0.581
REMARK UNBOUND:                -0.625
REMARK  Name = /home/qwerty/github/datacon2025hack/step_04_hit_selection/docking/ligands/lig_318.pdb
REMARK  4 active torsions:
REMARK  status: ('A' for Active; 'I' for Inactive)
REMARK    1  A    between atoms: C1_1  and  N1_2
REMARK    2  A    between atoms: C3_4  and  C4_5
REMARK    3  A    between atoms: N2_7  and  C5_8
REMARK    4  A    between atoms: C9_12  and  C10_13
REMARK                            x       y       z     vdW  Elec       q    Type
REMARK                         _______ _______ _______ _____ _____    ______ ____
ROOT
ATOM      1  C5  UNL     1      21.832   5.389  34.566  0.00  0.00    +0.034 A 
ATOM      2  C6  UNL     1      23.182   5.594  34.895  0.00  0.00    +0.023 A 
ATOM      3  C7  UNL     1      23.565   6.717  35.631  0.00  0.00    +0.002 A 
ATOM      4  C8  UNL     1      22.607   7.639  36.058  0.00  0.00    +0.008 A 
ATOM      5  C9  UNL     1      21.247   7.443  35.758  0.00  0.00    -0.016 A 
ATOM      6  C18 UNL     1      20.870   6.307  35.016  0.00  0.00    +0.031 A 
ENDROOT
BRANCH   5   7
ATOM      7  C10 UNL     1      20.226   8.417  36.219  0.00  0.00    -0.014 A 
ATOM      8  C11 UNL     1      19.580   8.243  37.458  0.00  0.00    +0.010 A 
ATOM      9  C12 UNL     1      18.623   9.164  37.895  0.00  0.00    +0.027 A 
ATOM     10  C13 UNL     1      18.292  10.264  37.096  0.00  0.00    +0.076 A 
ATOM     11  C14 UNL     1      18.923  10.443  35.858  0.00  0.00    +0.143 A 
ATOM     12  C15 UNL     1      19.890   9.530  35.425  0.00  0.00    +0.056 A 
ATOM     13  O2  UNL     1      18.605  11.552  35.064  0.00  0.00    -0.481 OA
ATOM     14  C16 UNL     1      17.425  12.339  35.261  0.00  0.00    +0.325 C 
ATOM     15  C17 UNL     1      16.990  12.335  36.699  0.00  0.00    +0.255 C 
ATOM     16  O3  UNL     1      16.252  13.256  37.136  0.00  0.00    -0.272 OA
ATOM     17  N3  UNL     1      17.350  11.242  37.549  0.00  0.00    -0.280 N 
ATOM     18  H14 UNL     1      16.943  11.179  38.510  0.00  0.00    +0.155 HD
ENDBRANCH   5   7
BRANCH   1  21
ATOM     19  C4  UNL     1      21.606   4.054  32.420  0.00  0.00    +0.251 C 
ATOM     20  O1  UNL     1      21.887   5.046  31.694  0.00  0.00    -0.270 OA
ATOM     21  N2  UNL     1      21.407   4.226  33.833  0.00  0.00    -0.281 N 
ATOM     22  H5  UNL     1      20.836   3.514  34.341  0.00  0.00    +0.155 HD
BRANCH  19  26
ATOM     23  C1  UNL     1      22.032   0.110  29.371  0.00  0.00    +0.172 C 
ATOM     24  N1  UNL     1      21.598   1.001  30.438  0.00  0.00    -0.274 N 
ATOM     25  C2  UNL     1      22.048   2.252  30.650  0.00  0.00    +0.121 A 
ATOM     26  C3  UNL     1      21.442   2.732  31.794  0.00  0.00    +0.074 A 
ATOM     27  C19 UNL     1      20.632   1.699  32.233  0.00  0.00    +0.147 A 
ATOM     28  N4  UNL     1      20.752   0.652  31.394  0.00  0.00    -0.179 NA
ENDBRANCH  19  26
ENDBRANCH   1  21
TORSDOF 3
ENDMDL
MODEL 9
REMARK VINA RESULT:    -6.320     12.574     15.687
REMARK INTER + INTRA:          -8.053
REMARK INTER:                  -7.604
REMARK INTRA:                  -0.449
REMARK UNBOUND:                -0.625
REMARK  Name = /home/qwerty/github/datacon2025hack/step_04_hit_selection/docking/ligands/lig_318.pdb
REMARK  4 active torsions:
REMARK  status: ('A' for Active; 'I' for Inactive)
REMARK    1  A    between atoms: C1_1  and  N1_2
REMARK    2  A    between atoms: C3_4  and  C4_5
REMARK    3  A    between atoms: N2_7  and  C5_8
REMARK    4  A    between atoms: C9_12  and  C10_13
REMARK                            x       y       z     vdW  Elec       q    Type
REMARK                         _______ _______ _______ _____ _____    ______ ____
ROOT
ATOM      1  C5  UNL     1      21.760   2.599  31.268  0.00  0.00    +0.034 A 
ATOM      2  C6  UNL     1      21.058   1.478  31.742  0.00  0.00    +0.023 A 
ATOM      3  C7  UNL     1      20.321   0.685  30.861  0.00  0.00    +0.002 A 
ATOM      4  C8  UNL     1      20.285   0.991  29.499  0.00  0.00    +0.008 A 
ATOM      5  C9  UNL     1      20.997   2.096  28.999  0.00  0.00    -0.016 A 
ATOM      6  C18 UNL     1      21.739   2.890  29.895  0.00  0.00    +0.031 A 
ENDROOT
BRANCH   5   7
ATOM      7  C10 UNL     1      20.968   2.418  27.551  0.00  0.00    -0.014 A 
ATOM      8  C11 UNL     1      20.600   1.439  26.608  0.00  0.00    +0.010 A 
ATOM      9  C12 UNL     1      20.567   1.744  25.244  0.00  0.00    +0.027 A 
ATOM     10  C13 UNL     1      20.910   3.027  24.803  0.00  0.00    +0.076 A 
ATOM     11  C14 UNL     1      21.285   4.007  25.732  0.00  0.00    +0.143 A 
ATOM     12  C15 UNL     1      21.306   3.707  27.098  0.00  0.00    +0.056 A 
ATOM     13  O2  UNL     1      21.614   5.296  25.294  0.00  0.00    -0.481 OA
ATOM     14  C16 UNL     1      21.934   5.599  23.933  0.00  0.00    +0.325 C 
ATOM     15  C17 UNL     1      21.234   4.673  22.979  0.00  0.00    +0.255 C 
ATOM     16  O3  UNL     1      21.062   5.016  21.780  0.00  0.00    -0.272 OA
ATOM     17  N3  UNL     1      20.835   3.370  23.415  0.00  0.00    -0.280 N 
ATOM     18  H14 UNL     1      20.464   2.683  22.721  0.00  0.00    +0.155 HD
ENDBRANCH   5   7
BRANCH   1  21
ATOM     19  C4  UNL     1      22.244   4.786  32.459  0.00  0.00    +0.251 C 
ATOM     20  O1  UNL     1      21.441   5.436  31.735  0.00  0.00    -0.270 OA
ATOM     21  N2  UNL     1      22.550   3.416  32.149  0.00  0.00    -0.281 N 
ATOM     22  H5  UNL     1      23.449   3.020  32.504  0.00  0.00    +0.155 HD
BRANCH  19  26
ATOM     23  C1  UNL     1      23.258   6.606  37.008  0.00  0.00    +0.172 C 
ATOM     24  N1  UNL     1      23.331   6.297  35.587  0.00  0.00    -0.274 N 
ATOM     25  C2  UNL     1      22.423   5.592  34.887  0.00  0.00    +0.121 A 
ATOM     26  C3  UNL     1      22.892   5.463  33.595  0.00  0.00    +0.074 A 
ATOM     27  C19 UNL     1      24.111   6.117  33.587  0.00  0.00    +0.147 A 
ATOM     28  N4  UNL     1      24.361   6.608  34.816  0.00  0.00    -0.179 NA
ENDBRANCH  19  26
ENDBRANCH   1  21
TORSDOF 3
ENDMDL
