MODEL 1
REMARK VINA RESULT:    -5.708      0.000      0.000
REMARK INTER + INTRA:          -8.953
REMARK INTER:                  -7.710
REMARK INTRA:                  -1.242
REMARK UNBOUND:                -1.242
REMARK  Name = /home/qwerty/github/datacon2025hack/step_04_hit_selection/docking/ligands/lig_369.pdb
REMARK  6 active torsions:
REMARK  status: ('A' for Active; 'I' for Inactive)
REMARK    1  A    between atoms: C1_2  and  C12_15
REMARK    2  A    between atoms: N1_3  and  C2_4
REMARK    3  A    between atoms: C6_8  and  C7_9
REMARK    4  A    between atoms: C7_9  and  N2_10
REMARK    5  A    between atoms: N2_10  and  C8_11
REMARK    6  A    between atoms: C8_11  and  C9_12
REMARK                            x       y       z     vdW  Elec       q    Type
REMARK                         _______ _______ _______ _____ _____    ______ ____
ROOT
ATOM      1  O1  UNL     1      12.155  10.762  30.262  0.00  0.00    -0.270 OA
ATOM      2  C1  UNL     1      11.325  10.876  31.206  0.00  0.00    +0.244 C 
ATOM      3  N1  UNL     1       9.962  10.469  31.005  0.00  0.00    -0.308 N 
ATOM      4  H1  UNL     1       9.233  10.798  31.677  0.00  0.00    +0.149 HD
ENDROOT
BRANCH   2   5
ATOM      5  C12 UNL     1      11.770  11.446  32.500  0.00  0.00    +0.037 A 
ATOM      6  C13 UNL     1      12.570  12.620  32.545  0.00  0.00    +0.014 A 
ATOM      7  C14 UNL     1      12.987  13.161  33.774  0.00  0.00    +0.014 A 
ATOM      8  C15 UNL     1      12.590  12.519  34.942  0.00  0.00    +0.049 A 
ATOM      9  C16 UNL     1      11.806  11.388  34.912  0.00  0.00    +0.050 A 
ATOM     10  C17 UNL     1      11.377  10.828  33.711  0.00  0.00    +0.027 A 
ATOM     11  C18 UNL     1      11.570  10.981  36.292  0.00  0.00    +0.251 C 
ATOM     12  O2  UNL     1      10.893   9.985  36.660  0.00  0.00    -0.270 OA
ATOM     13  N3  UNL     1      12.219  11.879  37.191  0.00  0.00    -0.248 N 
ATOM     14  C19 UNL     1      12.852  12.835  36.341  0.00  0.00    +0.251 C 
ATOM     15  O3  UNL     1      13.533  13.807  36.762  0.00  0.00    -0.270 OA
ATOM     16  H23 UNL     1      12.228  11.845  38.233  0.00  0.00    +0.158 HD
ENDBRANCH   2   5
BRANCH   3  17
ATOM     17  C2  UNL     1       9.525   9.813  29.766  0.00  0.00    +0.078 C 
ATOM     18  C3  UNL     1       9.180   8.349  30.032  0.00  0.00    +0.022 C 
ATOM     19  C4  UNL     1       7.684   8.299  30.329  0.00  0.00    +0.002 C 
ATOM     20  C5  UNL     1       7.112   9.673  29.985  0.00  0.00    +0.006 C 
ATOM     21  C6  UNL     1       8.221  10.448  29.267  0.00  0.00    +0.023 C 
BRANCH  21  22
ATOM     22  C7  UNL     1       8.098  10.339  27.733  0.00  0.00    +0.086 C 
BRANCH  22  23
ATOM     23  N2  UNL     1       8.125  11.677  27.124  0.00  0.00    -0.315 NA
ATOM     24  H12 UNL     1       7.231  11.831  26.599  0.00  0.00    +0.122 HD
BRANCH  23  25
ATOM     25  C8  UNL     1       8.278  12.740  28.129  0.00  0.00    +0.084 C 
BRANCH  25  26
ATOM     26  C9  UNL     1       9.501  13.630  27.843  0.00  0.00    +0.003 C 
ATOM     27  C10 UNL     1      10.496  13.745  28.988  0.00  0.00    +0.005 C 
ATOM     28  C11 UNL     1      10.836  12.907  27.765  0.00  0.00    +0.005 C 
ENDBRANCH  25  26
ENDBRANCH  23  25
ENDBRANCH  22  23
ENDBRANCH  21  22
ENDBRANCH   3  17
TORSDOF 6
ENDMDL
MODEL 2
REMARK VINA RESULT:    -5.675      5.900      8.461
REMARK INTER + INTRA:          -8.908
REMARK INTER:                  -8.208
REMARK INTRA:                  -0.700
REMARK UNBOUND:                -1.242
REMARK  Name = /home/qwerty/github/datacon2025hack/step_04_hit_selection/docking/ligands/lig_369.pdb
REMARK  6 active torsions:
REMARK  status: ('A' for Active; 'I' for Inactive)
REMARK    1  A    between atoms: C1_2  and  C12_15
REMARK    2  A    between atoms: N1_3  and  C2_4
REMARK    3  A    between atoms: C6_8  and  C7_9
REMARK    4  A    between atoms: C7_9  and  N2_10
REMARK    5  A    between atoms: N2_10  and  C8_11
REMARK    6  A    between atoms: C8_11  and  C9_12
REMARK                            x       y       z     vdW  Elec       q    Type
REMARK                         _______ _______ _______ _____ _____    ______ ____
ROOT
ATOM      1  O1  UNL     1      10.406   8.256  24.020  0.00  0.00    -0.270 OA
ATOM      2  C1  UNL     1       9.389   7.931  24.692  0.00  0.00    +0.244 C 
ATOM      3  N1  UNL     1       8.650   6.750  24.337  0.00  0.00    -0.308 N 
ATOM      4  H1  UNL     1       7.684   6.627  24.715  0.00  0.00    +0.149 HD
ENDROOT
BRANCH   2   5
ATOM      5  C12 UNL     1       8.964   8.786  25.826  0.00  0.00    +0.037 A 
ATOM      6  C13 UNL     1       9.183  10.190  25.804  0.00  0.00    +0.014 A 
ATOM      7  C14 UNL     1       8.775  11.000  26.878  0.00  0.00    +0.014 A 
ATOM      8  C15 UNL     1       8.147  10.389  27.959  0.00  0.00    +0.049 A 
ATOM      9  C16 UNL     1       7.920   9.032  27.987  0.00  0.00    +0.050 A 
ATOM     10  C17 UNL     1       8.311   8.204  26.939  0.00  0.00    +0.027 A 
ATOM     11  C18 UNL     1       7.244   8.726  29.243  0.00  0.00    +0.251 C 
ATOM     12  O2  UNL     1       6.875   7.583  29.621  0.00  0.00    -0.270 OA
ATOM     13  N3  UNL     1       7.049   9.918  30.003  0.00  0.00    -0.248 N 
ATOM     14  C19 UNL     1       7.614  10.949  29.196  0.00  0.00    +0.251 C 
ATOM     15  O3  UNL     1       7.637  12.165  29.522  0.00  0.00    -0.270 OA
ATOM     16  H23 UNL     1       6.596  10.013  30.937  0.00  0.00    +0.158 HD
ENDBRANCH   2   5
BRANCH   3  17
ATOM     17  C2  UNL     1       9.110   5.838  23.282  0.00  0.00    +0.078 C 
ATOM     18  C3  UNL     1       8.754   4.395  23.633  0.00  0.00    +0.022 C 
ATOM     19  C4  UNL     1       7.401   4.109  22.988  0.00  0.00    +0.002 C 
ATOM     20  C5  UNL     1       7.092   5.279  22.055  0.00  0.00    +0.006 C 
ATOM     21  C6  UNL     1       8.364   6.130  21.974  0.00  0.00    +0.023 C 
BRANCH  21  22
ATOM     22  C7  UNL     1       9.222   5.761  20.746  0.00  0.00    +0.086 C 
BRANCH  22  23
ATOM     23  N2  UNL     1       9.614   6.977  20.017  0.00  0.00    -0.315 NA
ATOM     24  H12 UNL     1       8.975   7.761  20.293  0.00  0.00    +0.122 HD
BRANCH  23  25
ATOM     25  C8  UNL     1      11.002   7.370  20.299  0.00  0.00    +0.084 C 
BRANCH  25  26
ATOM     26  C9  UNL     1      11.112   8.856  20.688  0.00  0.00    +0.003 C 
ATOM     27  C10 UNL     1      11.135   9.827  19.517  0.00  0.00    +0.005 C 
ATOM     28  C11 UNL     1       9.889   9.706  20.382  0.00  0.00    +0.005 C 
ENDBRANCH  25  26
ENDBRANCH  23  25
ENDBRANCH  22  23
ENDBRANCH  21  22
ENDBRANCH   3  17
TORSDOF 6
ENDMDL
MODEL 3
REMARK VINA RESULT:    -5.670     11.344     14.608
REMARK INTER + INTRA:          -8.902
REMARK INTER:                  -8.131
REMARK INTRA:                  -0.771
REMARK UNBOUND:                -1.242
REMARK  Name = /home/qwerty/github/datacon2025hack/step_04_hit_selection/docking/ligands/lig_369.pdb
REMARK  6 active torsions:
REMARK  status: ('A' for Active; 'I' for Inactive)
REMARK    1  A    between atoms: C1_2  and  C12_15
REMARK    2  A    between atoms: N1_3  and  C2_4
REMARK    3  A    between atoms: C6_8  and  C7_9
REMARK    4  A    between atoms: C7_9  and  N2_10
REMARK    5  A    between atoms: N2_10  and  C8_11
REMARK    6  A    between atoms: C8_11  and  C9_12
REMARK                            x       y       z     vdW  Elec       q    Type
REMARK                         _______ _______ _______ _____ _____    ______ ____
ROOT
ATOM      1  O1  UNL     1      12.452   4.324  19.578  0.00  0.00    -0.270 OA
ATOM      2  C1  UNL     1      12.715   5.453  20.076  0.00  0.00    +0.244 C 
ATOM      3  N1  UNL     1      14.084   5.870  20.206  0.00  0.00    -0.308 N 
ATOM      4  H1  UNL     1      14.311   6.667  20.841  0.00  0.00    +0.149 HD
ENDROOT
BRANCH   2   5
ATOM      5  C12 UNL     1      11.605   6.321  20.536  0.00  0.00    +0.037 A 
ATOM      6  C13 UNL     1      11.862   7.606  21.087  0.00  0.00    +0.014 A 
ATOM      7  C14 UNL     1      10.807   8.428  21.518  0.00  0.00    +0.014 A 
ATOM      8  C15 UNL     1       9.507   7.952  21.386  0.00  0.00    +0.049 A 
ATOM      9  C16 UNL     1       9.245   6.715  20.845  0.00  0.00    +0.050 A 
ATOM     10  C17 UNL     1      10.267   5.877  20.407  0.00  0.00    +0.027 A 
ATOM     11  C18 UNL     1       7.798   6.532  20.845  0.00  0.00    +0.251 C 
ATOM     12  O2  UNL     1       7.183   5.518  20.424  0.00  0.00    -0.270 OA
ATOM     13  N3  UNL     1       7.155   7.681  21.396  0.00  0.00    -0.248 N 
ATOM     14  C19 UNL     1       8.227   8.561  21.731  0.00  0.00    +0.251 C 
ATOM     15  O3  UNL     1       8.069   9.699  22.246  0.00  0.00    -0.270 OA
ATOM     16  H23 UNL     1       6.133   7.842  21.525  0.00  0.00    +0.158 HD
ENDBRANCH   2   5
BRANCH   3  17
ATOM     17  C2  UNL     1      15.191   5.069  19.667  0.00  0.00    +0.078 C 
ATOM     18  C3  UNL     1      16.408   5.953  19.401  0.00  0.00    +0.022 C 
ATOM     19  C4  UNL     1      17.271   5.900  20.659  0.00  0.00    +0.002 C 
ATOM     20  C5  UNL     1      16.701   4.796  21.548  0.00  0.00    +0.006 C 
ATOM     21  C6  UNL     1      15.657   4.047  20.711  0.00  0.00    +0.023 C 
BRANCH  21  22
ATOM     22  C7  UNL     1      16.253   2.793  20.039  0.00  0.00    +0.086 C 
BRANCH  22  23
ATOM     23  N2  UNL     1      15.190   2.011  19.390  0.00  0.00    -0.315 NA
ATOM     24  H12 UNL     1      15.313   2.066  18.351  0.00  0.00    +0.122 HD
BRANCH  23  25
ATOM     25  C8  UNL     1      15.211   0.599  19.801  0.00  0.00    +0.084 C 
BRANCH  25  26
ATOM     26  C9  UNL     1      16.220   0.346  20.936  0.00  0.00    +0.003 C 
ATOM     27  C10 UNL     1      15.707  -0.533  22.068  0.00  0.00    +0.005 C 
ATOM     28  C11 UNL     1      16.712  -1.087  21.069  0.00  0.00    +0.005 C 
ENDBRANCH  25  26
ENDBRANCH  23  25
ENDBRANCH  22  23
ENDBRANCH  21  22
ENDBRANCH   3  17
TORSDOF 6
ENDMDL
MODEL 4
REMARK VINA RESULT:    -5.641      9.406     13.047
REMARK INTER + INTRA:          -8.861
REMARK INTER:                  -7.964
REMARK INTRA:                  -0.897
REMARK UNBOUND:                -1.242
REMARK  Name = /home/qwerty/github/datacon2025hack/step_04_hit_selection/docking/ligands/lig_369.pdb
REMARK  6 active torsions:
REMARK  status: ('A' for Active; 'I' for Inactive)
REMARK    1  A    between atoms: C1_2  and  C12_15
REMARK    2  A    between atoms: N1_3  and  C2_4
REMARK    3  A    between atoms: C6_8  and  C7_9
REMARK    4  A    between atoms: C7_9  and  N2_10
REMARK    5  A    between atoms: N2_10  and  C8_11
REMARK    6  A    between atoms: C8_11  and  C9_12
REMARK                            x       y       z     vdW  Elec       q    Type
REMARK                         _______ _______ _______ _____ _____    ______ ____
ROOT
ATOM      1  O1  UNL     1      10.619   6.226  22.442  0.00  0.00    -0.270 OA
ATOM      2  C1  UNL     1      11.547   6.295  21.591  0.00  0.00    +0.244 C 
ATOM      3  N1  UNL     1      11.874   7.563  20.998  0.00  0.00    -0.308 N 
ATOM      4  H1  UNL     1      12.446   7.579  20.124  0.00  0.00    +0.149 HD
ENDROOT
BRANCH   2   5
ATOM      5  C12 UNL     1      12.271   5.061  21.203  0.00  0.00    +0.037 A 
ATOM      6  C13 UNL     1      13.327   5.101  20.253  0.00  0.00    +0.014 A 
ATOM      7  C14 UNL     1      14.015   3.930  19.891  0.00  0.00    +0.014 A 
ATOM      8  C15 UNL     1      13.638   2.734  20.492  0.00  0.00    +0.049 A 
ATOM      9  C16 UNL     1      12.624   2.684  21.422  0.00  0.00    +0.050 A 
ATOM     10  C17 UNL     1      11.924   3.826  21.802  0.00  0.00    +0.027 A 
ATOM     11  C18 UNL     1      12.492   1.297  21.853  0.00  0.00    +0.251 C 
ATOM     12  O2  UNL     1      11.666   0.865  22.700  0.00  0.00    -0.270 OA
ATOM     13  N3  UNL     1      13.444   0.477  21.178  0.00  0.00    -0.248 N 
ATOM     14  C19 UNL     1      14.154   1.380  20.332  0.00  0.00    +0.251 C 
ATOM     15  O3  UNL     1      15.091   1.035  19.566  0.00  0.00    -0.270 OA
ATOM     16  H23 UNL     1      13.588  -0.551  21.280  0.00  0.00    +0.158 HD
ENDBRANCH   2   5
BRANCH   3  17
ATOM     17  C2  UNL     1      11.237   8.810  21.440  0.00  0.00    +0.078 C 
ATOM     18  C3  UNL     1      12.266   9.936  21.514  0.00  0.00    +0.022 C 
ATOM     19  C4  UNL     1      12.230  10.651  20.166  0.00  0.00    +0.002 C 
ATOM     20  C5  UNL     1      11.016  10.119  19.407  0.00  0.00    +0.006 C 
ATOM     21  C6  UNL     1      10.210   9.272  20.398  0.00  0.00    +0.023 C 
BRANCH  21  22
ATOM     22  C7  UNL     1       9.075  10.084  21.055  0.00  0.00    +0.086 C 
BRANCH  22  23
ATOM     23  N2  UNL     1       7.948   9.202  21.391  0.00  0.00    -0.315 NA
ATOM     24  H12 UNL     1       8.030   8.317  20.836  0.00  0.00    +0.122 HD
BRANCH  23  25
ATOM     25  C8  UNL     1       7.915   8.866  22.823  0.00  0.00    +0.084 C 
BRANCH  25  26
ATOM     26  C9  UNL     1       8.454  10.014  23.695  0.00  0.00    +0.003 C 
ATOM     27  C10 UNL     1       7.982  10.001  25.142  0.00  0.00    +0.005 C 
ATOM     28  C11 UNL     1       9.411   9.603  24.804  0.00  0.00    +0.005 C 
ENDBRANCH  25  26
ENDBRANCH  23  25
ENDBRANCH  22  23
ENDBRANCH  21  22
ENDBRANCH   3  17
TORSDOF 6
ENDMDL
MODEL 5
REMARK VINA RESULT:    -5.617     12.532     13.483
REMARK INTER + INTRA:          -8.830
REMARK INTER:                  -7.998
REMARK INTRA:                  -0.832
REMARK UNBOUND:                -1.242
REMARK  Name = /home/qwerty/github/datacon2025hack/step_04_hit_selection/docking/ligands/lig_369.pdb
REMARK  6 active torsions:
REMARK  status: ('A' for Active; 'I' for Inactive)
REMARK    1  A    between atoms: C1_2  and  C12_15
REMARK    2  A    between atoms: N1_3  and  C2_4
REMARK    3  A    between atoms: C6_8  and  C7_9
REMARK    4  A    between atoms: C7_9  and  N2_10
REMARK    5  A    between atoms: N2_10  and  C8_11
REMARK    6  A    between atoms: C8_11  and  C9_12
REMARK                            x       y       z     vdW  Elec       q    Type
REMARK                         _______ _______ _______ _____ _____    ______ ____
ROOT
ATOM      1  O1  UNL     1      23.100   3.293  32.278  0.00  0.00    -0.270 OA
ATOM      2  C1  UNL     1      21.956   3.698  32.625  0.00  0.00    +0.244 C 
ATOM      3  N1  UNL     1      20.814   2.847  32.434  0.00  0.00    -0.308 N 
ATOM      4  H1  UNL     1      19.859   3.269  32.473  0.00  0.00    +0.149 HD
ENDROOT
BRANCH   2   5
ATOM      5  C12 UNL     1      21.811   5.054  33.205  0.00  0.00    +0.037 A 
ATOM      6  C13 UNL     1      21.020   6.044  32.560  0.00  0.00    +0.014 A 
ATOM      7  C14 UNL     1      20.880   7.328  33.115  0.00  0.00    +0.014 A 
ATOM      8  C15 UNL     1      21.532   7.600  34.313  0.00  0.00    +0.049 A 
ATOM      9  C16 UNL     1      22.292   6.647  34.952  0.00  0.00    +0.050 A 
ATOM     10  C17 UNL     1      22.449   5.366  34.429  0.00  0.00    +0.027 A 
ATOM     11  C18 UNL     1      22.821   7.251  36.170  0.00  0.00    +0.251 C 
ATOM     12  O2  UNL     1      23.562   6.681  37.013  0.00  0.00    -0.270 OA
ATOM     13  N3  UNL     1      22.377   8.602  36.284  0.00  0.00    -0.248 N 
ATOM     14  C19 UNL     1      21.575   8.812  35.124  0.00  0.00    +0.251 C 
ATOM     15  O3  UNL     1      20.992   9.896  34.858  0.00  0.00    -0.270 OA
ATOM     16  H23 UNL     1      22.591   9.283  37.045  0.00  0.00    +0.158 HD
ENDBRANCH   2   5
BRANCH   3  17
ATOM     17  C2  UNL     1      20.950   1.466  31.954  0.00  0.00    +0.078 C 
ATOM     18  C3  UNL     1      19.815   0.600  32.497  0.00  0.00    +0.022 C 
ATOM     19  C4  UNL     1      18.706   0.624  31.449  0.00  0.00    +0.002 C 
ATOM     20  C5  UNL     1      19.285   1.280  30.197  0.00  0.00    +0.006 C 
ATOM     21  C6  UNL     1      20.793   1.423  30.428  0.00  0.00    +0.023 C 
BRANCH  21  22
ATOM     22  C7  UNL     1      21.581   0.246  29.819  0.00  0.00    +0.086 C 
BRANCH  22  23
ATOM     23  N2  UNL     1      21.759   0.448  28.373  0.00  0.00    -0.315 NA
ATOM     24  H12 UNL     1      20.817   0.503  27.918  0.00  0.00    +0.122 HD
BRANCH  23  25
ATOM     25  C8  UNL     1      22.508   1.678  28.074  0.00  0.00    +0.084 C 
BRANCH  25  26
ATOM     26  C9  UNL     1      21.839   2.501  26.958  0.00  0.00    +0.003 C 
ATOM     27  C10 UNL     1      21.645   3.977  27.275  0.00  0.00    +0.005 C 
ATOM     28  C11 UNL     1      22.722   3.545  26.292  0.00  0.00    +0.005 C 
ENDBRANCH  25  26
ENDBRANCH  23  25
ENDBRANCH  22  23
ENDBRANCH  21  22
ENDBRANCH   3  17
TORSDOF 6
ENDMDL
MODEL 6
REMARK VINA RESULT:    -5.598     13.071     15.739
REMARK INTER + INTRA:          -8.804
REMARK INTER:                  -7.517
REMARK INTRA:                  -1.287
REMARK UNBOUND:                -1.242
REMARK  Name = /home/qwerty/github/datacon2025hack/step_04_hit_selection/docking/ligands/lig_369.pdb
REMARK  6 active torsions:
REMARK  status: ('A' for Active; 'I' for Inactive)
REMARK    1  A    between atoms: C1_2  and  C12_15
REMARK    2  A    between atoms: N1_3  and  C2_4
REMARK    3  A    between atoms: C6_8  and  C7_9
REMARK    4  A    between atoms: C7_9  and  N2_10
REMARK    5  A    between atoms: N2_10  and  C8_11
REMARK    6  A    between atoms: C8_11  and  C9_12
REMARK                            x       y       z     vdW  Elec       q    Type
REMARK                         _______ _______ _______ _____ _____    ______ ____
ROOT
ATOM      1  O1  UNL     1      18.099   2.910  27.932  0.00  0.00    -0.270 OA
ATOM      2  C1  UNL     1      18.099   1.649  27.975  0.00  0.00    +0.244 C 
ATOM      3  N1  UNL     1      18.611   0.979  29.139  0.00  0.00    -0.308 N 
ATOM      4  H1  UNL     1      18.850  -0.036  29.073  0.00  0.00    +0.149 HD
ENDROOT
BRANCH   2   5
ATOM      5  C12 UNL     1      17.589   0.882  26.814  0.00  0.00    +0.037 A 
ATOM      6  C13 UNL     1      18.160   1.045  25.523  0.00  0.00    +0.014 A 
ATOM      7  C14 UNL     1      17.678   0.313  24.424  0.00  0.00    +0.014 A 
ATOM      8  C15 UNL     1      16.631  -0.578  24.638  0.00  0.00    +0.049 A 
ATOM      9  C16 UNL     1      16.077  -0.752  25.885  0.00  0.00    +0.050 A 
ATOM     10  C17 UNL     1      16.533  -0.043  26.993  0.00  0.00    +0.027 A 
ATOM     11  C18 UNL     1      15.021  -1.751  25.761  0.00  0.00    +0.251 C 
ATOM     12  O2  UNL     1      14.290  -2.170  26.697  0.00  0.00    -0.270 OA
ATOM     13  N3  UNL     1      14.924  -2.202  24.411  0.00  0.00    -0.248 N 
ATOM     14  C19 UNL     1      15.930  -1.467  23.718  0.00  0.00    +0.251 C 
ATOM     15  O3  UNL     1      16.165  -1.585  22.487  0.00  0.00    -0.270 OA
ATOM     16  H23 UNL     1      14.265  -2.911  24.020  0.00  0.00    +0.158 HD
ENDBRANCH   2   5
BRANCH   3  17
ATOM     17  C2  UNL     1      19.028   1.719  30.337  0.00  0.00    +0.078 C 
ATOM     18  C3  UNL     1      17.882   1.794  31.343  0.00  0.00    +0.022 C 
ATOM     19  C4  UNL     1      18.049   0.605  32.286  0.00  0.00    +0.002 C 
ATOM     20  C5  UNL     1      19.418  -0.007  31.998  0.00  0.00    +0.006 C 
ATOM     21  C6  UNL     1      20.148   0.959  31.059  0.00  0.00    +0.023 C 
BRANCH  21  22
ATOM     22  C7  UNL     1      21.070   1.924  31.833  0.00  0.00    +0.086 C 
BRANCH  22  23
ATOM     23  N2  UNL     1      22.218   2.308  30.999  0.00  0.00    -0.315 NA
ATOM     24  H12 UNL     1      23.041   2.501  31.619  0.00  0.00    +0.122 HD
BRANCH  23  25
ATOM     25  C8  UNL     1      22.580   1.256  30.037  0.00  0.00    +0.084 C 
BRANCH  25  26
ATOM     26  C9  UNL     1      22.819   1.824  28.626  0.00  0.00    +0.003 C 
ATOM     27  C10 UNL     1      21.785   1.419  27.586  0.00  0.00    +0.005 C 
ATOM     28  C11 UNL     1      21.791   2.835  28.143  0.00  0.00    +0.005 C 
ENDBRANCH  25  26
ENDBRANCH  23  25
ENDBRANCH  22  23
ENDBRANCH  21  22
ENDBRANCH   3  17
TORSDOF 6
ENDMDL
MODEL 7
REMARK VINA RESULT:    -5.568     12.991     14.124
REMARK INTER + INTRA:          -8.763
REMARK INTER:                  -7.678
REMARK INTRA:                  -1.086
REMARK UNBOUND:                -1.242
REMARK  Name = /home/qwerty/github/datacon2025hack/step_04_hit_selection/docking/ligands/lig_369.pdb
REMARK  6 active torsions:
REMARK  status: ('A' for Active; 'I' for Inactive)
REMARK    1  A    between atoms: C1_2  and  C12_15
REMARK    2  A    between atoms: N1_3  and  C2_4
REMARK    3  A    between atoms: C6_8  and  C7_9
REMARK    4  A    between atoms: C7_9  and  N2_10
REMARK    5  A    between atoms: N2_10  and  C8_11
REMARK    6  A    between atoms: C8_11  and  C9_12
REMARK                            x       y       z     vdW  Elec       q    Type
REMARK                         _______ _______ _______ _____ _____    ______ ____
ROOT
ATOM      1  O1  UNL     1      19.871   4.603  29.637  0.00  0.00    -0.270 OA
ATOM      2  C1  UNL     1      21.092   4.916  29.577  0.00  0.00    +0.244 C 
ATOM      3  N1  UNL     1      21.811   4.735  28.346  0.00  0.00    -0.308 N 
ATOM      4  H1  UNL     1      22.856   4.744  28.367  0.00  0.00    +0.149 HD
ENDROOT
BRANCH   2   5
ATOM      5  C12 UNL     1      21.765   5.447  30.785  0.00  0.00    +0.037 A 
ATOM      6  C13 UNL     1      21.743   4.728  32.011  0.00  0.00    +0.014 A 
ATOM      7  C14 UNL     1      22.386   5.231  33.154  0.00  0.00    +0.014 A 
ATOM      8  C15 UNL     1      23.050   6.449  33.051  0.00  0.00    +0.049 A 
ATOM      9  C16 UNL     1      23.088   7.150  31.868  0.00  0.00    +0.050 A 
ATOM     10  C17 UNL     1      22.461   6.678  30.717  0.00  0.00    +0.027 A 
ATOM     11  C18 UNL     1      23.862   8.364  32.101  0.00  0.00    +0.251 C 
ATOM     12  O2  UNL     1      24.112   9.254  31.246  0.00  0.00    -0.270 OA
ATOM     13  N3  UNL     1      24.311   8.412  33.454  0.00  0.00    -0.248 N 
ATOM     14  C19 UNL     1      23.801   7.215  34.040  0.00  0.00    +0.251 C 
ATOM     15  O3  UNL     1      23.987   6.884  35.240  0.00  0.00    -0.270 OA
ATOM     16  H23 UNL     1      24.884   9.153  33.913  0.00  0.00    +0.158 HD
ENDBRANCH   2   5
BRANCH   3  17
ATOM     17  C2  UNL     1      21.140   4.304  27.113  0.00  0.00    +0.078 C 
ATOM     18  C3  UNL     1      21.172   5.420  26.071  0.00  0.00    +0.022 C 
ATOM     19  C4  UNL     1      22.415   5.185  25.217  0.00  0.00    +0.002 C 
ATOM     20  C5  UNL     1      22.960   3.807  25.586  0.00  0.00    +0.006 C 
ATOM     21  C6  UNL     1      21.908   3.138  26.478  0.00  0.00    +0.023 C 
BRANCH  21  22
ATOM     22  C7  UNL     1      20.966   2.224  25.667  0.00  0.00    +0.086 C 
BRANCH  22  23
ATOM     23  N2  UNL     1      20.374   1.201  26.542  0.00  0.00    -0.315 NA
ATOM     24  H12 UNL     1      20.042   0.400  25.953  0.00  0.00    +0.122 HD
BRANCH  23  25
ATOM     25  C8  UNL     1      21.334   0.699  27.536  0.00  0.00    +0.084 C 
BRANCH  25  26
ATOM     26  C9  UNL     1      20.934   1.091  28.970  0.00  0.00    +0.003 C 
ATOM     27  C10 UNL     1      21.319   0.083  30.044  0.00  0.00    +0.005 C 
ATOM     28  C11 UNL     1      22.088   1.390  29.915  0.00  0.00    +0.005 C 
ENDBRANCH  25  26
ENDBRANCH  23  25
ENDBRANCH  22  23
ENDBRANCH  21  22
ENDBRANCH   3  17
TORSDOF 6
ENDMDL
MODEL 8
REMARK VINA RESULT:    -5.567      2.684      8.470
REMARK INTER + INTRA:          -8.762
REMARK INTER:                  -7.884
REMARK INTRA:                  -0.878
REMARK UNBOUND:                -1.242
REMARK  Name = /home/qwerty/github/datacon2025hack/step_04_hit_selection/docking/ligands/lig_369.pdb
REMARK  6 active torsions:
REMARK  status: ('A' for Active; 'I' for Inactive)
REMARK    1  A    between atoms: C1_2  and  C12_15
REMARK    2  A    between atoms: N1_3  and  C2_4
REMARK    3  A    between atoms: C6_8  and  C7_9
REMARK    4  A    between atoms: C7_9  and  N2_10
REMARK    5  A    between atoms: N2_10  and  C8_11
REMARK    6  A    between atoms: C8_11  and  C9_12
REMARK                            x       y       z     vdW  Elec       q    Type
REMARK                         _______ _______ _______ _____ _____    ______ ____
ROOT
ATOM      1  O1  UNL     1      11.723  14.586  31.664  0.00  0.00    -0.270 OA
ATOM      2  C1  UNL     1      11.207  13.467  31.933  0.00  0.00    +0.244 C 
ATOM      3  N1  UNL     1      11.259  12.965  33.278  0.00  0.00    -0.308 N 
ATOM      4  H1  UNL     1      11.073  11.951  33.446  0.00  0.00    +0.149 HD
ENDROOT
BRANCH   2   5
ATOM      5  C12 UNL     1      10.571  12.681  30.848  0.00  0.00    +0.037 A 
ATOM      6  C13 UNL     1      10.726  11.269  30.782  0.00  0.00    +0.014 A 
ATOM      7  C14 UNL     1      10.119  10.526  29.755  0.00  0.00    +0.014 A 
ATOM      8  C15 UNL     1       9.358  11.209  28.812  0.00  0.00    +0.049 A 
ATOM      9  C16 UNL     1       9.192  12.573  28.872  0.00  0.00    +0.050 A 
ATOM     10  C17 UNL     1       9.780  13.338  29.876  0.00  0.00    +0.027 A 
ATOM     11  C18 UNL     1       8.343  12.962  27.751  0.00  0.00    +0.251 C 
ATOM     12  O2  UNL     1       7.973  14.135  27.480  0.00  0.00    -0.270 OA
ATOM     13  N3  UNL     1       7.978  11.815  26.986  0.00  0.00    -0.248 N 
ATOM     14  C19 UNL     1       8.615  10.726  27.654  0.00  0.00    +0.251 C 
ATOM     15  O3  UNL     1       8.530   9.527  27.281  0.00  0.00    -0.270 OA
ATOM     16  H23 UNL     1       7.380  11.779  26.132  0.00  0.00    +0.158 HD
ENDBRANCH   2   5
BRANCH   3  17
ATOM     17  C2  UNL     1      11.795  13.770  34.383  0.00  0.00    +0.078 C 
ATOM     18  C3  UNL     1      10.669  14.211  35.316  0.00  0.00    +0.022 C 
ATOM     19  C4  UNL     1      10.576  13.158  36.417  0.00  0.00    +0.002 C 
ATOM     20  C5  UNL     1      11.799  12.254  36.279  0.00  0.00    +0.006 C 
ATOM     21  C6  UNL     1      12.726  12.915  35.253  0.00  0.00    +0.023 C 
BRANCH  21  22
ATOM     22  C7  UNL     1      13.808  13.780  35.931  0.00  0.00    +0.086 C 
BRANCH  22  23
ATOM     23  N2  UNL     1      14.231  13.162  37.197  0.00  0.00    -0.315 NA
ATOM     24  H12 UNL     1      13.699  12.271  37.336  0.00  0.00    +0.122 HD
BRANCH  23  25
ATOM     25  C8  UNL     1      15.672  12.867  37.215  0.00  0.00    +0.084 C 
BRANCH  25  26
ATOM     26  C9  UNL     1      15.999  11.553  36.484  0.00  0.00    +0.003 C 
ATOM     27  C10 UNL     1      16.562  10.448  37.366  0.00  0.00    +0.005 C 
ATOM     28  C11 UNL     1      15.131  10.361  36.856  0.00  0.00    +0.005 C 
ENDBRANCH  25  26
ENDBRANCH  23  25
ENDBRANCH  22  23
ENDBRANCH  21  22
ENDBRANCH   3  17
TORSDOF 6
ENDMDL
MODEL 9
REMARK VINA RESULT:    -5.508      6.110      9.381
REMARK INTER + INTRA:          -8.682
REMARK INTER:                  -7.931
REMARK INTRA:                  -0.751
REMARK UNBOUND:                -1.242
REMARK  Name = /home/qwerty/github/datacon2025hack/step_04_hit_selection/docking/ligands/lig_369.pdb
REMARK  6 active torsions:
REMARK  status: ('A' for Active; 'I' for Inactive)
REMARK    1  A    between atoms: C1_2  and  C12_15
REMARK    2  A    between atoms: N1_3  and  C2_4
REMARK    3  A    between atoms: C6_8  and  C7_9
REMARK    4  A    between atoms: C7_9  and  N2_10
REMARK    5  A    between atoms: N2_10  and  C8_11
REMARK    6  A    between atoms: C8_11  and  C9_12
REMARK                            x       y       z     vdW  Elec       q    Type
REMARK                         _______ _______ _______ _____ _____    ______ ____
ROOT
ATOM      1  O1  UNL     1       8.953   7.230  23.679  0.00  0.00    -0.270 OA
ATOM      2  C1  UNL     1       8.940   8.479  23.852  0.00  0.00    +0.244 C 
ATOM      3  N1  UNL     1       9.276   9.351  22.760  0.00  0.00    -0.308 N 
ATOM      4  H1  UNL     1       9.518  10.346  22.965  0.00  0.00    +0.149 HD
ENDROOT
BRANCH   2   5
ATOM      5  C12 UNL     1       8.596   9.024  25.187  0.00  0.00    +0.037 A 
ATOM      6  C13 UNL     1       8.735  10.410  25.469  0.00  0.00    +0.014 A 
ATOM      7  C14 UNL     1       8.404  10.925  26.734  0.00  0.00    +0.014 A 
ATOM      8  C15 UNL     1       7.932  10.041  27.699  0.00  0.00    +0.049 A 
ATOM      9  C16 UNL     1       7.784   8.699  27.435  0.00  0.00    +0.050 A 
ATOM     10  C17 UNL     1       8.102   8.159  26.192  0.00  0.00    +0.027 A 
ATOM     11  C18 UNL     1       7.267   8.068  28.645  0.00  0.00    +0.251 C 
ATOM     12  O2  UNL     1       7.005   6.844  28.783  0.00  0.00    -0.270 OA
ATOM     13  N3  UNL     1       7.092   9.041  29.674  0.00  0.00    -0.248 N 
ATOM     14  C19 UNL     1       7.509  10.268  29.076  0.00  0.00    +0.251 C 
ATOM     15  O3  UNL     1       7.501  11.377  29.671  0.00  0.00    -0.270 OA
ATOM     16  H23 UNL     1       6.739   8.890  30.644  0.00  0.00    +0.158 HD
ENDBRANCH   2   5
BRANCH   3  17
ATOM     17  C2  UNL     1       9.523   8.836  21.407  0.00  0.00    +0.078 C 
ATOM     18  C3  UNL     1       9.613   9.988  20.408  0.00  0.00    +0.022 C 
ATOM     19  C4  UNL     1      11.089  10.359  20.299  0.00  0.00    +0.002 C 
ATOM     20  C5  UNL     1      11.880   9.271  21.024  0.00  0.00    +0.006 C 
ATOM     21  C6  UNL     1      10.892   8.146  21.349  0.00  0.00    +0.023 C 
BRANCH  21  22
ATOM     22  C7  UNL     1      10.913   7.036  20.278  0.00  0.00    +0.086 C 
BRANCH  22  23
ATOM     23  N2  UNL     1       9.557   6.504  20.071  0.00  0.00    -0.315 NA
ATOM     24  H12 UNL     1       9.379   6.416  19.042  0.00  0.00    +0.122 HD
BRANCH  23  25
ATOM     25  C8  UNL     1       9.376   5.189  20.702  0.00  0.00    +0.084 C 
BRANCH  25  26
ATOM     26  C9  UNL     1       7.895   4.769  20.740  0.00  0.00    +0.003 C 
ATOM     27  C10 UNL     1       7.264   4.756  22.124  0.00  0.00    +0.005 C 
ATOM     28  C11 UNL     1       6.913   5.859  21.137  0.00  0.00    +0.005 C 
ENDBRANCH  25  26
ENDBRANCH  23  25
ENDBRANCH  22  23
ENDBRANCH  21  22
ENDBRANCH   3  17
TORSDOF 6
ENDMDL
