REMARK  Name = /home/qwerty/github/datacon2025hack/step_04_hit_selection/docking/ligands/lig_341.pdb
REMARK  4 active torsions:
REMARK  status: ('A' for Active; 'I' for Inactive)
REMARK    1  A    between atoms: C1_1  and  C2_2
REMARK    2  A    between atoms: C2_2  and  C3_3
REMARK    3  A    between atoms: C2_2  and  N2_15
REMARK    4  A    between atoms: N1_5  and  C4_6
REMARK                            x       y       z     vdW  Elec       q    Type
REMARK                         _______ _______ _______ _____ _____    ______ ____
ROOT
ATOM      1  C1  UNL     1       1.367  -2.721  -1.132  0.00  0.00    +0.038 C 
ATOM      2  C2  UNL     1       1.142  -1.700  -0.013  0.00  0.00    +0.168 C 
ENDROOT
BRANCH   2   3
ATOM      3  N2  UNL     1       2.281  -0.784   0.116  0.00  0.00    -0.222 N 
ATOM      4  C11 UNL     1       2.890   0.027  -0.900  0.00  0.00    +0.254 C 
ATOM      5  O4  UNL     1       2.667  -0.086  -2.135  0.00  0.00    -0.270 OA
ATOM      6  C12 UNL     1       3.777   1.012  -0.293  0.00  0.00    +0.049 A 
ATOM      7  C13 UNL     1       4.585   1.988  -0.874  0.00  0.00    +0.014 A 
ATOM      8  C14 UNL     1       5.340   2.814  -0.021  0.00  0.00    +0.001 A 
ATOM      9  C15 UNL     1       5.269   2.650   1.380  0.00  0.00    +0.001 A 
ATOM     10  C16 UNL     1       4.442   1.660   1.941  0.00  0.00    +0.014 A 
ATOM     11  C17 UNL     1       3.708   0.852   1.074  0.00  0.00    +0.049 A 
ATOM     12  C18 UNL     1       2.778  -0.238   1.343  0.00  0.00    +0.254 C 
ATOM     13  O5  UNL     1       2.436  -0.641   2.487  0.00  0.00    -0.270 OA
ENDBRANCH   2   3
BRANCH   2  14
ATOM     14  C3  UNL     1      -0.133  -0.929  -0.233  0.00  0.00    +0.238 C 
ATOM     15  O1  UNL     1      -0.240  -0.176  -1.239  0.00  0.00    -0.273 OA
ATOM     16  N1  UNL     1      -1.204  -1.023   0.720  0.00  0.00    -0.284 N 
ATOM     17  H5  UNL     1      -0.977  -1.377   1.677  0.00  0.00    +0.155 HD
BRANCH  16  18
ATOM     18  C4  UNL     1      -2.552  -0.590   0.467  0.00  0.00    +0.037 A 
ATOM     19  C5  UNL     1      -3.353  -0.151   1.552  0.00  0.00    +0.027 A 
ATOM     20  C6  UNL     1      -4.687   0.247   1.345  0.00  0.00    +0.051 A 
ATOM     21  C7  UNL     1      -5.191   0.179   0.050  0.00  0.00    +0.166 A 
ATOM     22  C8  UNL     1      -4.438  -0.253  -0.993  0.00  0.00    +0.168 A 
ATOM     23  C9  UNL     1      -3.115  -0.654  -0.832  0.00  0.00    +0.072 A 
ATOM     24  O2  UNL     1      -5.195  -0.228  -2.149  0.00  0.00    -0.453 OA
ATOM     25  C10 UNL     1      -6.505   0.250  -1.811  0.00  0.00    +0.466 C 
ATOM     26  O3  UNL     1      -6.458   0.500  -0.399  0.00  0.00    -0.453 OA
ENDBRANCH  16  18
ENDBRANCH   2  14
TORSDOF 3
