REMARK  Name = /home/qwerty/github/datacon2025hack/step_04_hit_selection/docking/ligands/lig_219.pdb
REMARK  7 active torsions:
REMARK  status: ('A' for Active; 'I' for Inactive)
REMARK    1  A    between atoms: C1_1  and  C2_2
REMARK    2  A    between atoms: C2_2  and  C3_3
REMARK    3  A    between atoms: C6_6  and  C7_7
REMARK    4  A    between atoms: N1_9  and  C8_10
REMARK    5  A    between atoms: N1_9  and  C9_11
REMARK    6  A    between atoms: N2_14  and  C12_15
REMARK    7  A    between atoms: C12_15  and  C13_16
REMARK                            x       y       z     vdW  Elec       q    Type
REMARK                         _______ _______ _______ _____ _____    ______ ____
ROOT
ATOM      1  C9  UNL     1       0.190   0.486  -0.098  0.00  0.00    +0.078 C 
ATOM      2  C10 UNL     1       1.103   1.039   1.013  0.00  0.00    +0.038 C 
ATOM      3  C11 UNL     1       2.226   0.037   1.366  0.00  0.00    +0.086 C 
ATOM      4  N2  UNL     1       2.468  -0.942   0.281  0.00  0.00    -0.295 NA
ATOM      5  C17 UNL     1       2.426  -0.315  -1.054  0.00  0.00    +0.086 C 
ATOM      6  C18 UNL     1       0.995   0.152  -1.375  0.00  0.00    +0.038 C 
ENDROOT
BRANCH   1   9
ATOM      7  C7  UNL     1      -2.306   0.976  -0.310  0.00  0.00    +0.244 C 
ATOM      8  O1  UNL     1      -3.208   1.826  -0.070  0.00  0.00    -0.273 OA
ATOM      9  N1  UNL     1      -0.929   1.408  -0.392  0.00  0.00    -0.299 N 
ATOM     10  C8  UNL     1      -0.677   2.800  -0.786  0.00  0.00    +0.132 C 
BRANCH   7  14
ATOM     11  C3  UNL     1      -4.814  -1.328  -0.405  0.00  0.00    +0.119 C 
ATOM     12  C4  UNL     1      -4.307  -1.359   1.028  0.00  0.00    +0.034 C 
ATOM     13  C5  UNL     1      -2.830  -1.182   0.852  0.00  0.00    +0.043 C 
ATOM     14  C6  UNL     1      -2.707  -0.468  -0.494  0.00  0.00    +0.204 C 
ATOM     15  O2  UNL     1      -3.944  -0.530  -1.175  0.00  0.00    -0.364 OA
BRANCH  11  17
ATOM     16  C1  UNL     1      -6.430   0.674  -0.348  0.00  0.00    +0.006 C 
ATOM     17  C2  UNL     1      -6.270  -0.838  -0.526  0.00  0.00    +0.028 C 
ENDBRANCH  11  17
ENDBRANCH   7  14
ENDBRANCH   1   9
BRANCH   4  18
ATOM     18  C12 UNL     1       3.681  -1.759   0.506  0.00  0.00    +0.160 C 
BRANCH  18  19
ATOM     19  C13 UNL     1       4.963  -0.979   0.382  0.00  0.00    +0.143 A 
ATOM     20  N3  UNL     1       5.554  -0.456   1.491  0.00  0.00    -0.239 NA
ATOM     21  C14 UNL     1       6.707   0.257   1.399  0.00  0.00    +0.114 A 
ATOM     22  C15 UNL     1       7.300   0.461   0.154  0.00  0.00    +0.039 A 
ATOM     23  C16 UNL     1       6.685  -0.083  -0.972  0.00  0.00    +0.114 A 
ATOM     24  N4  UNL     1       5.533  -0.790  -0.839  0.00  0.00    -0.239 NA
ENDBRANCH  18  19
ENDBRANCH   4  18
TORSDOF 5
