REMARK  Name = /home/qwerty/github/datacon2025hack/step_04_hit_selection/docking/ligands/lig_738.pdb
REMARK  7 active torsions:
REMARK  status: ('A' for Active; 'I' for Inactive)
REMARK    1  A    between atoms: C1_1  and  C2_2
REMARK    2  A    between atoms: C4_5  and  C5_6
REMARK    3  A    between atoms: N2_8  and  C6_9
REMARK    4  A    between atoms: C6_9  and  C7_10
REMARK    5  A    between atoms: C7_10  and  N3_11
REMARK    6  A    between atoms: C8_12  and  C9_14
REMARK    7  A    between atoms: C17_23  and  C18_24
REMARK                            x       y       z     vdW  Elec       q    Type
REMARK                         _______ _______ _______ _____ _____    ______ ____
ROOT
ATOM      1  C6  UNL     1      -0.145  -2.433   0.206  0.00  0.00    +0.050 C 
ATOM      2  C14 UNL     1      -0.381  -2.237   1.711  0.00  0.00    +0.027 C 
ATOM      3  C15 UNL     1       0.360  -3.542   1.989  0.00  0.00    +0.004 C 
ATOM      4  C16 UNL     1       0.597  -3.744   0.495  0.00  0.00    +0.027 C 
ENDROOT
BRANCH   1   7
ATOM      5  C5  UNL     1       1.940  -0.878   0.151  0.00  0.00    +0.248 C 
ATOM      6  O1  UNL     1       2.483  -1.443   1.137  0.00  0.00    -0.270 OA
ATOM      7  N2  UNL     1       0.720  -1.404  -0.409  0.00  0.00    -0.304 N 
ATOM      8  H5  UNL     1       0.445  -1.042  -1.350  0.00  0.00    +0.150 HD
BRANCH   5  13
ATOM      9  C1  UNL     1       4.195   3.940  -2.012  0.00  0.00    +0.088 C 
ATOM     10  C2  UNL     1       3.622   2.667  -1.485  0.00  0.00    +0.126 A 
ATOM     11  N1  UNL     1       2.277   2.507  -1.411  0.00  0.00    -0.240 NA
ATOM     12  C3  UNL     1       1.733   1.373  -0.902  0.00  0.00    +0.127 A 
ATOM     13  C4  UNL     1       2.557   0.342  -0.426  0.00  0.00    +0.076 A 
ATOM     14  C17 UNL     1       3.957   0.532  -0.507  0.00  0.00    +0.054 A 
ATOM     15  C18 UNL     1       4.938  -0.506  -0.046  0.00  0.00    +0.066 C 
ATOM     16  N4  UNL     1       4.445   1.691  -1.025  0.00  0.00    -0.237 NA
ENDBRANCH   5  13
ENDBRANCH   1   7
BRANCH   1  17
ATOM     17  C7  UNL     1      -1.450  -2.649  -0.595  0.00  0.00    +0.130 C 
BRANCH  17  18
ATOM     18  N3  UNL     1      -2.212  -1.403  -0.686  0.00  0.00    -0.309 N 
ATOM     19  C8  UNL     1      -3.273  -1.074   0.224  0.00  0.00    +0.243 C 
ATOM     20  O2  UNL     1      -3.884  -1.997   0.829  0.00  0.00    -0.270 OA
ATOM     21  H8  UNL     1      -1.895  -0.688  -1.379  0.00  0.00    +0.149 HD
BRANCH  19  22
ATOM     22  C9  UNL     1      -3.655   0.341   0.458  0.00  0.00    +0.049 C 
ATOM     23  C10 UNL     1      -4.845   0.644   1.008  0.00  0.00    +0.195 C 
ATOM     24  O3  UNL     1      -5.225   1.972   1.239  0.00  0.00    -0.499 OA
ATOM     25  C11 UNL     1      -4.475   3.080   0.746  0.00  0.00    +0.228 C 
ATOM     26  C12 UNL     1      -2.983   2.759   0.793  0.00  0.00    +0.046 C 
ATOM     27  C13 UNL     1      -2.714   1.452   0.038  0.00  0.00    +0.047 C 
ENDBRANCH  19  22
ENDBRANCH  17  18
ENDBRANCH   1  17
TORSDOF 5
