REMARK  Name = /home/qwerty/github/datacon2025hack/step_04_hit_selection/docking/ligands/lig_576.pdb
REMARK  4 active torsions:
REMARK  status: ('A' for Active; 'I' for Inactive)
REMARK    1  A    between atoms: C1_1  and  C2_2
REMARK    2  A    between atoms: C4_5  and  C5_7
REMARK    3  A    between atoms: C12_17  and  N5_18
REMARK    4  A    between atoms: C13_19  and  C14_21
REMARK                            x       y       z     vdW  Elec       q    Type
REMARK                         _______ _______ _______ _____ _____    ______ ____
ROOT
ATOM      1  C1  UNL     1       1.702  -1.656   1.675  0.00  0.00    +0.011 C 
ATOM      2  C2  UNL     1       1.067  -0.400   1.070  0.00  0.00    +0.025 C 
ATOM      3  C3  UNL     1      -0.462  -0.458   1.070  0.00  0.00    +0.113 C 
ATOM      4  N1  UNL     1      -0.880   0.163  -0.179  0.00  0.00    -0.294 N 
ATOM      5  C4  UNL     1      -2.245   0.330  -0.617  0.00  0.00    +0.266 C 
ATOM      6  O1  UNL     1      -2.461   0.861  -1.740  0.00  0.00    -0.268 OA
ATOM      7  C11 UNL     1       0.248   0.482  -1.042  0.00  0.00    +0.130 C 
ATOM      8  C12 UNL     1       1.462  -0.186  -0.397  0.00  0.00    +0.095 C 
ENDROOT
BRANCH   5   9
ATOM      9  C5  UNL     1      -3.407  -0.106   0.200  0.00  0.00    +0.138 A 
ATOM     10  N2  UNL     1      -3.317  -0.197   1.561  0.00  0.00    -0.232 NA
ATOM     11  C6  UNL     1      -4.369  -0.576   2.357  0.00  0.00    +0.198 A 
ATOM     12  N3  UNL     1      -5.585  -0.883   1.815  0.00  0.00    -0.330 N 
ATOM     13  C7  UNL     1      -5.725  -0.802   0.473  0.00  0.00    +0.141 A 
ATOM     14  N4  UNL     1      -6.832  -1.085  -0.233  0.00  0.00    -0.237 NA
ATOM     15  C8  UNL     1      -6.467  -0.878  -1.524  0.00  0.00    +0.114 A 
ATOM     16  C9  UNL     1      -5.138  -0.469  -1.651  0.00  0.00    +0.033 A 
ATOM     17  C10 UNL     1      -4.645  -0.410  -0.368  0.00  0.00    +0.049 A 
ATOM     18  H8  UNL     1      -6.382  -1.176   2.422  0.00  0.00    +0.168 HD
ENDBRANCH   5   9
BRANCH   8  19
ATOM     19  N5  UNL     1       2.659   0.653  -0.509  0.00  0.00    -0.307 N 
ATOM     20  C13 UNL     1       3.966   0.103  -0.745  0.00  0.00    +0.247 C 
ATOM     21  O2  UNL     1       4.107  -1.139  -0.911  0.00  0.00    -0.270 OA
ATOM     22  H14 UNL     1       2.573   1.663  -0.258  0.00  0.00    +0.149 HD
BRANCH  20  23
ATOM     23  C14 UNL     1       5.158   0.971  -0.796  0.00  0.00    +0.074 A 
ATOM     24  C15 UNL     1       5.207   2.348  -0.692  0.00  0.00    +0.054 A 
ATOM     25  C16 UNL     1       6.541   2.682  -0.806  0.00  0.00    +0.195 A 
ATOM     26  O3  UNL     1       7.260   1.595  -0.969  0.00  0.00    -0.470 OA
ATOM     27  C17 UNL     1       6.463   0.552  -0.968  0.00  0.00    +0.207 A 
ENDBRANCH  20  23
ENDBRANCH   8  19
TORSDOF 3
