MODEL 1
REMARK VINA RESULT:    -7.117      0.000      0.000
REMARK INTER + INTRA:          -9.260
REMARK INTER:                  -8.573
REMARK INTRA:                  -0.687
REMARK UNBOUND:                -0.687
REMARK  Name = /home/qwerty/github/datacon2025hack/step_04_hit_selection/docking/ligands/lig_462.pdb
REMARK  7 active torsions:
REMARK  status: ('A' for Active; 'I' for Inactive)
REMARK    1  A    between atoms: C1_1  and  C2_2
REMARK    2  A    between atoms: C2_2  and  N1_3
REMARK    3  A    between atoms: C2_2  and  C15_20
REMARK    4  A    between atoms: N2_6  and  C4_7
REMARK    5  A    between atoms: C10_14  and  C11_15
REMARK    6  A    between atoms: C10_14  and  C12_16
REMARK    7  A    between atoms: C14_18  and  O3_19
REMARK                            x       y       z     vdW  Elec       q    Type
REMARK                         _______ _______ _______ _____ _____    ______ ____
ROOT
ATOM      1  N1  UNL     1      23.289   5.123  33.804  0.00  0.00    -0.293 N 
ATOM      2  C3  UNL     1      22.207   4.377  33.231  0.00  0.00    +0.304 C 
ATOM      3  O1  UNL     1      21.210   4.978  32.744  0.00  0.00    -0.252 OA
ATOM      4  N2  UNL     1      22.250   2.943  33.238  0.00  0.00    -0.266 N 
ATOM      5  H5  UNL     1      24.061   4.588  34.262  0.00  0.00    +0.151 HD
ATOM      6  H6  UNL     1      22.878   2.473  33.928  0.00  0.00    +0.156 HD
ENDROOT
BRANCH   4   7
ATOM      7  C4  UNL     1      21.370   2.127  32.450  0.00  0.00    +0.077 A 
ATOM      8  C5  UNL     1      21.750   1.771  31.149  0.00  0.00    +0.027 A 
ATOM      9  C6  UNL     1      20.908   0.992  30.354  0.00  0.00    +0.002 A 
ATOM     10  C7  UNL     1      19.677   0.560  30.849  0.00  0.00    +0.010 A 
ATOM     11  C8  UNL     1      19.273   0.906  32.150  0.00  0.00    +0.025 A 
ATOM     12  C9  UNL     1      20.106   1.733  32.934  0.00  0.00    +0.148 A 
ATOM     13  O2  UNL     1      19.678   2.176  34.192  0.00  0.00    -0.484 OA
ATOM     14  C10 UNL     1      18.348   1.993  34.680  0.00  0.00    +0.108 C 
ATOM     15  C11 UNL     1      18.396   2.007  36.214  0.00  0.00    +0.055 C 
ATOM     16  C12 UNL     1      17.467   3.157  34.192  0.00  0.00    +0.055 C 
ATOM     17  C13 UNL     1      17.803   0.630  34.191  0.00  0.00    +0.083 C 
ATOM     18  C14 UNL     1      17.915   0.472  32.661  0.00  0.00    +0.152 C 
BRANCH  18  19
ATOM     19  O3  UNL     1      17.691  -0.872  32.319  0.00  0.00    -0.387 OA
ATOM     20  H19 UNL     1      17.401  -0.880  31.369  0.00  0.00    +0.210 HD
ENDBRANCH  18  19
ENDBRANCH   4   7
BRANCH   1  22
ATOM     21  C1  UNL     1      24.814   7.055  33.665  0.00  0.00    +0.033 C 
ATOM     22  C2  UNL     1      23.354   6.587  33.735  0.00  0.00    +0.102 C 
BRANCH  22  23
ATOM     23  C15 UNL     1      22.645   7.213  34.920  0.00  0.00    -0.027 A 
ATOM     24  C16 UNL     1      22.025   8.474  34.808  0.00  0.00    +0.005 A 
ATOM     25  C17 UNL     1      21.369   9.038  35.906  0.00  0.00    +0.000 A 
ATOM     26  C18 UNL     1      21.321   8.355  37.123  0.00  0.00    +0.000 A 
ATOM     27  C19 UNL     1      21.931   7.103  37.245  0.00  0.00    +0.000 A 
ATOM     28  C20 UNL     1      22.589   6.534  36.151  0.00  0.00    +0.005 A 
ENDBRANCH  22  23
ENDBRANCH   1  22
TORSDOF 4
ENDMDL
MODEL 2
REMARK VINA RESULT:    -7.072      8.304     12.744
REMARK INTER + INTRA:          -9.206
REMARK INTER:                  -8.526
REMARK INTRA:                  -0.680
REMARK UNBOUND:                -0.687
REMARK  Name = /home/qwerty/github/datacon2025hack/step_04_hit_selection/docking/ligands/lig_462.pdb
REMARK  7 active torsions:
REMARK  status: ('A' for Active; 'I' for Inactive)
REMARK    1  A    between atoms: C1_1  and  C2_2
REMARK    2  A    between atoms: C2_2  and  N1_3
REMARK    3  A    between atoms: C2_2  and  C15_20
REMARK    4  A    between atoms: N2_6  and  C4_7
REMARK    5  A    between atoms: C10_14  and  C11_15
REMARK    6  A    between atoms: C10_14  and  C12_16
REMARK    7  A    between atoms: C14_18  and  O3_19
REMARK                            x       y       z     vdW  Elec       q    Type
REMARK                         _______ _______ _______ _____ _____    ______ ____
ROOT
ATOM      1  N1  UNL     1      18.356  -0.636  23.855  0.00  0.00    -0.293 N 
ATOM      2  C3  UNL     1      18.890   0.578  24.402  0.00  0.00    +0.304 C 
ATOM      3  O1  UNL     1      18.124   1.545  24.665  0.00  0.00    -0.252 OA
ATOM      4  N2  UNL     1      20.302   0.698  24.623  0.00  0.00    -0.266 N 
ATOM      5  H5  UNL     1      19.032  -1.386  23.583  0.00  0.00    +0.151 HD
ATOM      6  H6  UNL     1      20.939   0.058  24.096  0.00  0.00    +0.156 HD
ENDROOT
BRANCH   4   7
ATOM      7  C4  UNL     1      20.887   1.743  25.416  0.00  0.00    +0.077 A 
ATOM      8  C5  UNL     1      21.168   1.499  26.767  0.00  0.00    +0.027 A 
ATOM      9  C6  UNL     1      21.721   2.501  27.566  0.00  0.00    +0.002 A 
ATOM     10  C7  UNL     1      22.001   3.756  27.024  0.00  0.00    +0.010 A 
ATOM     11  C8  UNL     1      21.726   4.024  25.673  0.00  0.00    +0.025 A 
ATOM     12  C9  UNL     1      21.123   3.025  24.880  0.00  0.00    +0.148 A 
ATOM     13  O2  UNL     1      20.745   3.303  23.560  0.00  0.00    -0.484 OA
ATOM     14  C10 UNL     1      20.764   4.615  22.996  0.00  0.00    +0.108 C 
ATOM     15  C11 UNL     1      20.909   4.479  21.475  0.00  0.00    +0.055 C 
ATOM     16  C12 UNL     1      19.432   5.320  23.315  0.00  0.00    +0.055 C 
ATOM     17  C13 UNL     1      21.967   5.403  23.564  0.00  0.00    +0.083 C 
ATOM     18  C14 UNL     1      21.990   5.404  25.106  0.00  0.00    +0.152 C 
BRANCH  18  19
ATOM     19  O3  UNL     1      23.240   5.864  25.550  0.00  0.00    -0.387 OA
ATOM     20  H19 UNL     1      23.316   6.811  25.259  0.00  0.00    +0.210 HD
ENDBRANCH  18  19
ENDBRANCH   4   7
BRANCH   1  22
ATOM     21  C1  UNL     1      16.570  -2.331  23.971  0.00  0.00    +0.033 C 
ATOM     22  C2  UNL     1      16.914  -0.860  23.704  0.00  0.00    +0.102 C 
BRANCH  22  23
ATOM     23  C15 UNL     1      16.448  -0.440  22.323  0.00  0.00    -0.027 A 
ATOM     24  C16 UNL     1      15.508   0.597  22.162  0.00  0.00    +0.005 A 
ATOM     25  C17 UNL     1      15.090   0.980  20.884  0.00  0.00    +0.000 A 
ATOM     26  C18 UNL     1      15.603   0.336  19.756  0.00  0.00    +0.000 A 
ATOM     27  C19 UNL     1      16.537  -0.692  19.903  0.00  0.00    +0.000 A 
ATOM     28  C20 UNL     1      16.959  -1.080  21.178  0.00  0.00    +0.005 A 
ENDBRANCH  22  23
ENDBRANCH   1  22
TORSDOF 4
ENDMDL
MODEL 3
REMARK VINA RESULT:    -6.814     12.041     14.196
REMARK INTER + INTRA:          -8.896
REMARK INTER:                  -8.298
REMARK INTRA:                  -0.598
REMARK UNBOUND:                -0.687
REMARK  Name = /home/qwerty/github/datacon2025hack/step_04_hit_selection/docking/ligands/lig_462.pdb
REMARK  7 active torsions:
REMARK  status: ('A' for Active; 'I' for Inactive)
REMARK    1  A    between atoms: C1_1  and  C2_2
REMARK    2  A    between atoms: C2_2  and  N1_3
REMARK    3  A    between atoms: C2_2  and  C15_20
REMARK    4  A    between atoms: N2_6  and  C4_7
REMARK    5  A    between atoms: C10_14  and  C11_15
REMARK    6  A    between atoms: C10_14  and  C12_16
REMARK    7  A    between atoms: C14_18  and  O3_19
REMARK                            x       y       z     vdW  Elec       q    Type
REMARK                         _______ _______ _______ _____ _____    ______ ____
ROOT
ATOM      1  N1  UNL     1      11.312  14.412  33.874  0.00  0.00    -0.293 N 
ATOM      2  C3  UNL     1      11.592  13.916  32.558  0.00  0.00    +0.304 C 
ATOM      3  O1  UNL     1      11.870  12.698  32.385  0.00  0.00    -0.252 OA
ATOM      4  N2  UNL     1      11.579  14.817  31.441  0.00  0.00    -0.266 N 
ATOM      5  H5  UNL     1      11.158  15.440  33.984  0.00  0.00    +0.151 HD
ATOM      6  H6  UNL     1      11.693  15.837  31.630  0.00  0.00    +0.156 HD
ENDROOT
BRANCH   4   7
ATOM      7  C4  UNL     1      11.564  14.373  30.075  0.00  0.00    +0.077 A 
ATOM      8  C5  UNL     1      10.425  13.725  29.580  0.00  0.00    +0.027 A 
ATOM      9  C6  UNL     1      10.388  13.269  28.261  0.00  0.00    +0.002 A 
ATOM     10  C7  UNL     1      11.488  13.456  27.423  0.00  0.00    +0.010 A 
ATOM     11  C8  UNL     1      12.641  14.102  27.897  0.00  0.00    +0.025 A 
ATOM     12  C9  UNL     1      12.694  14.519  29.244  0.00  0.00    +0.148 A 
ATOM     13  O2  UNL     1      13.871  15.071  29.768  0.00  0.00    -0.484 OA
ATOM     14  C10 UNL     1      15.115  15.079  29.066  0.00  0.00    +0.108 C 
ATOM     15  C11 UNL     1      15.958  16.243  29.604  0.00  0.00    +0.055 C 
ATOM     16  C12 UNL     1      15.853  13.755  29.334  0.00  0.00    +0.055 C 
ATOM     17  C13 UNL     1      14.854  15.282  27.555  0.00  0.00    +0.083 C 
ATOM     18  C14 UNL     1      13.847  14.258  26.994  0.00  0.00    +0.152 C 
BRANCH  18  19
ATOM     19  O3  UNL     1      13.429  14.673  25.719  0.00  0.00    -0.387 OA
ATOM     20  H19 UNL     1      13.414  13.863  25.145  0.00  0.00    +0.210 HD
ENDBRANCH  18  19
ENDBRANCH   4   7
BRANCH   1  22
ATOM     21  C1  UNL     1      10.154  14.058  36.021  0.00  0.00    +0.033 C 
ATOM     22  C2  UNL     1      11.207  13.527  35.039  0.00  0.00    +0.102 C 
BRANCH  22  23
ATOM     23  C15 UNL     1      12.552  13.376  35.722  0.00  0.00    -0.027 A 
ATOM     24  C16 UNL     1      13.482  14.434  35.729  0.00  0.00    +0.005 A 
ATOM     25  C17 UNL     1      14.717  14.286  36.367  0.00  0.00    +0.000 A 
ATOM     26  C18 UNL     1      15.038  13.085  37.004  0.00  0.00    +0.000 A 
ATOM     27  C19 UNL     1      14.123  12.029  37.005  0.00  0.00    +0.000 A 
ATOM     28  C20 UNL     1      12.887  12.171  36.369  0.00  0.00    +0.005 A 
ENDBRANCH  22  23
ENDBRANCH   1  22
TORSDOF 4
ENDMDL
MODEL 4
REMARK VINA RESULT:    -6.632      1.753      3.731
REMARK INTER + INTRA:          -8.676
REMARK INTER:                  -8.235
REMARK INTRA:                  -0.441
REMARK UNBOUND:                -0.687
REMARK  Name = /home/qwerty/github/datacon2025hack/step_04_hit_selection/docking/ligands/lig_462.pdb
REMARK  7 active torsions:
REMARK  status: ('A' for Active; 'I' for Inactive)
REMARK    1  A    between atoms: C1_1  and  C2_2
REMARK    2  A    between atoms: C2_2  and  N1_3
REMARK    3  A    between atoms: C2_2  and  C15_20
REMARK    4  A    between atoms: N2_6  and  C4_7
REMARK    5  A    between atoms: C10_14  and  C11_15
REMARK    6  A    between atoms: C10_14  and  C12_16
REMARK    7  A    between atoms: C14_18  and  O3_19
REMARK                            x       y       z     vdW  Elec       q    Type
REMARK                         _______ _______ _______ _____ _____    ______ ____
ROOT
ATOM      1  N1  UNL     1      23.684   4.507  33.008  0.00  0.00    -0.293 N 
ATOM      2  C3  UNL     1      22.353   3.989  32.875  0.00  0.00    +0.304 C 
ATOM      3  O1  UNL     1      21.367   4.776  32.843  0.00  0.00    -0.252 OA
ATOM      4  N2  UNL     1      22.145   2.572  32.804  0.00  0.00    -0.266 N 
ATOM      5  H5  UNL     1      24.466   3.819  33.103  0.00  0.00    +0.151 HD
ATOM      6  H6  UNL     1      22.896   1.945  33.171  0.00  0.00    +0.156 HD
ENDROOT
BRANCH   4   7
ATOM      7  C4  UNL     1      20.903   1.980  32.390  0.00  0.00    +0.077 A 
ATOM      8  C5  UNL     1      20.025   1.485  33.363  0.00  0.00    +0.027 A 
ATOM      9  C6  UNL     1      18.818   0.891  32.989  0.00  0.00    +0.002 A 
ATOM     10  C7  UNL     1      18.476   0.786  31.641  0.00  0.00    +0.010 A 
ATOM     11  C8  UNL     1      19.341   1.274  30.647  0.00  0.00    +0.025 A 
ATOM     12  C9  UNL     1      20.581   1.831  31.026  0.00  0.00    +0.148 A 
ATOM     13  O2  UNL     1      21.504   2.229  30.049  0.00  0.00    -0.484 OA
ATOM     14  C10 UNL     1      21.352   1.940  28.659  0.00  0.00    +0.108 C 
ATOM     15  C11 UNL     1      22.132   2.995  27.864  0.00  0.00    +0.055 C 
ATOM     16  C12 UNL     1      21.943   0.549  28.365  0.00  0.00    +0.055 C 
ATOM     17  C13 UNL     1      19.853   2.007  28.280  0.00  0.00    +0.083 C 
ATOM     18  C14 UNL     1      18.982   1.113  29.185  0.00  0.00    +0.152 C 
BRANCH  18  19
ATOM     19  O3  UNL     1      17.630   1.442  28.993  0.00  0.00    -0.387 OA
ATOM     20  H19 UNL     1      17.307   0.893  28.231  0.00  0.00    +0.210 HD
ENDBRANCH  18  19
ENDBRANCH   4   7
BRANCH   1  22
ATOM     21  C1  UNL     1      25.482   6.186  32.855  0.00  0.00    +0.033 C 
ATOM     22  C2  UNL     1      23.973   5.945  32.981  0.00  0.00    +0.102 C 
BRANCH  22  23
ATOM     23  C15 UNL     1      23.420   6.627  34.217  0.00  0.00    -0.027 A 
ATOM     24  C16 UNL     1      23.682   6.115  35.503  0.00  0.00    +0.005 A 
ATOM     25  C17 UNL     1      23.172   6.756  36.637  0.00  0.00    +0.000 A 
ATOM     26  C18 UNL     1      22.398   7.910  36.501  0.00  0.00    +0.000 A 
ATOM     27  C19 UNL     1      22.133   8.428  35.231  0.00  0.00    +0.000 A 
ATOM     28  C20 UNL     1      22.640   7.792  34.094  0.00  0.00    +0.005 A 
ENDBRANCH  22  23
ENDBRANCH   1  22
TORSDOF 4
ENDMDL
MODEL 5
REMARK VINA RESULT:    -6.596      6.075      9.303
REMARK INTER + INTRA:          -8.633
REMARK INTER:                  -7.964
REMARK INTRA:                  -0.669
REMARK UNBOUND:                -0.687
REMARK  Name = /home/qwerty/github/datacon2025hack/step_04_hit_selection/docking/ligands/lig_462.pdb
REMARK  7 active torsions:
REMARK  status: ('A' for Active; 'I' for Inactive)
REMARK    1  A    between atoms: C1_1  and  C2_2
REMARK    2  A    between atoms: C2_2  and  N1_3
REMARK    3  A    between atoms: C2_2  and  C15_20
REMARK    4  A    between atoms: N2_6  and  C4_7
REMARK    5  A    between atoms: C10_14  and  C11_15
REMARK    6  A    between atoms: C10_14  and  C12_16
REMARK    7  A    between atoms: C14_18  and  O3_19
REMARK                            x       y       z     vdW  Elec       q    Type
REMARK                         _______ _______ _______ _____ _____    ______ ____
ROOT
ATOM      1  N1  UNL     1      21.857   9.294  35.211  0.00  0.00    -0.293 N 
ATOM      2  C3  UNL     1      20.461   9.514  35.454  0.00  0.00    +0.304 C 
ATOM      3  O1  UNL     1      19.594   8.875  34.796  0.00  0.00    -0.252 OA
ATOM      4  N2  UNL     1      20.053  10.482  36.431  0.00  0.00    -0.266 N 
ATOM      5  H5  UNL     1      22.541   9.894  35.724  0.00  0.00    +0.151 HD
ATOM      6  H6  UNL     1      20.736  11.224  36.703  0.00  0.00    +0.156 HD
ENDROOT
BRANCH   4   7
ATOM      7  C4  UNL     1      18.713  10.567  36.941  0.00  0.00    +0.077 A 
ATOM      8  C5  UNL     1      18.297   9.658  37.922  0.00  0.00    +0.027 A 
ATOM      9  C6  UNL     1      16.995   9.708  38.425  0.00  0.00    +0.002 A 
ATOM     10  C7  UNL     1      16.097  10.665  37.953  0.00  0.00    +0.010 A 
ATOM     11  C8  UNL     1      16.491  11.585  36.968  0.00  0.00    +0.025 A 
ATOM     12  C9  UNL     1      17.792  11.503  36.428  0.00  0.00    +0.148 A 
ATOM     13  O2  UNL     1      18.174  12.342  35.372  0.00  0.00    -0.484 OA
ATOM     14  C10 UNL     1      17.259  13.177  34.662  0.00  0.00    +0.108 C 
ATOM     15  C11 UNL     1      18.048  14.349  34.064  0.00  0.00    +0.055 C 
ATOM     16  C12 UNL     1      16.617  12.367  33.522  0.00  0.00    +0.055 C 
ATOM     17  C13 UNL     1      16.189  13.718  35.640  0.00  0.00    +0.083 C 
ATOM     18  C14 UNL     1      15.494  12.590  36.428  0.00  0.00    +0.152 C 
BRANCH  18  19
ATOM     19  O3  UNL     1      14.767  13.150  37.492  0.00  0.00    -0.387 OA
ATOM     20  H19 UNL     1      14.834  14.136  37.397  0.00  0.00    +0.210 HD
ENDBRANCH  18  19
ENDBRANCH   4   7
BRANCH   1  22
ATOM     21  C1  UNL     1      23.280   7.288  35.043  0.00  0.00    +0.033 C 
ATOM     22  C2  UNL     1      22.338   8.247  34.303  0.00  0.00    +0.102 C 
BRANCH  22  23
ATOM     23  C15 UNL     1      23.029   8.856  33.098  0.00  0.00    -0.027 A 
ATOM     24  C16 UNL     1      22.282   9.415  32.043  0.00  0.00    +0.005 A 
ATOM     25  C17 UNL     1      22.929   9.980  30.939  0.00  0.00    +0.000 A 
ATOM     26  C18 UNL     1      24.324   9.995  30.877  0.00  0.00    +0.000 A 
ATOM     27  C19 UNL     1      25.076   9.446  31.919  0.00  0.00    +0.000 A 
ATOM     28  C20 UNL     1      24.434   8.879  33.024  0.00  0.00    +0.005 A 
ENDBRANCH  22  23
ENDBRANCH   1  22
TORSDOF 4
ENDMDL
MODEL 6
REMARK VINA RESULT:    -6.581     11.376     14.579
REMARK INTER + INTRA:          -8.614
REMARK INTER:                  -7.913
REMARK INTRA:                  -0.701
REMARK UNBOUND:                -0.687
REMARK  Name = /home/qwerty/github/datacon2025hack/step_04_hit_selection/docking/ligands/lig_462.pdb
REMARK  7 active torsions:
REMARK  status: ('A' for Active; 'I' for Inactive)
REMARK    1  A    between atoms: C1_1  and  C2_2
REMARK    2  A    between atoms: C2_2  and  N1_3
REMARK    3  A    between atoms: C2_2  and  C15_20
REMARK    4  A    between atoms: N2_6  and  C4_7
REMARK    5  A    between atoms: C10_14  and  C11_15
REMARK    6  A    between atoms: C10_14  and  C12_16
REMARK    7  A    between atoms: C14_18  and  O3_19
REMARK                            x       y       z     vdW  Elec       q    Type
REMARK                         _______ _______ _______ _____ _____    ______ ____
ROOT
ATOM      1  N1  UNL     1      15.492  -0.910  22.574  0.00  0.00    -0.293 N 
ATOM      2  C3  UNL     1      14.895   0.372  22.333  0.00  0.00    +0.304 C 
ATOM      3  O1  UNL     1      15.012   1.296  23.184  0.00  0.00    -0.252 OA
ATOM      4  N2  UNL     1      14.143   0.591  21.132  0.00  0.00    -0.266 N 
ATOM      5  H5  UNL     1      15.311  -1.669  21.880  0.00  0.00    +0.151 HD
ATOM      6  H6  UNL     1      13.769  -0.243  20.626  0.00  0.00    +0.156 HD
ENDROOT
BRANCH   4   7
ATOM      7  C4  UNL     1      13.757   1.897  20.674  0.00  0.00    +0.077 A 
ATOM      8  C5  UNL     1      14.648   2.634  19.883  0.00  0.00    +0.027 A 
ATOM      9  C6  UNL     1      14.306   3.912  19.437  0.00  0.00    +0.002 A 
ATOM     10  C7  UNL     1      13.072   4.466  19.776  0.00  0.00    +0.010 A 
ATOM     11  C8  UNL     1      12.162   3.746  20.569  0.00  0.00    +0.025 A 
ATOM     12  C9  UNL     1      12.530   2.475  21.057  0.00  0.00    +0.148 A 
ATOM     13  O2  UNL     1      11.684   1.783  21.935  0.00  0.00    -0.484 OA
ATOM     14  C10 UNL     1      10.522   2.365  22.529  0.00  0.00    +0.108 C 
ATOM     15  C11 UNL     1       9.548   1.233  22.881  0.00  0.00    +0.055 C 
ATOM     16  C12 UNL     1      10.930   3.099  23.819  0.00  0.00    +0.055 C 
ATOM     17  C13 UNL     1       9.855   3.329  21.520  0.00  0.00    +0.083 C 
ATOM     18  C14 UNL     1      10.844   4.376  20.970  0.00  0.00    +0.152 C 
BRANCH  18  19
ATOM     19  O3  UNL     1      10.270   5.015  19.858  0.00  0.00    -0.387 OA
ATOM     20  H19 UNL     1       9.925   4.299  19.263  0.00  0.00    +0.210 HD
ENDBRANCH  18  19
ENDBRANCH   4   7
BRANCH   1  22
ATOM     21  C1  UNL     1      17.317  -2.326  23.433  0.00  0.00    +0.033 C 
ATOM     22  C2  UNL     1      16.360  -1.165  23.730  0.00  0.00    +0.102 C 
BRANCH  22  23
ATOM     23  C15 UNL     1      15.533  -1.453  24.968  0.00  0.00    -0.027 A 
ATOM     24  C16 UNL     1      15.626  -0.627  26.106  0.00  0.00    +0.005 A 
ATOM     25  C17 UNL     1      14.854  -0.898  27.241  0.00  0.00    +0.000 A 
ATOM     26  C18 UNL     1      13.984  -1.990  27.253  0.00  0.00    +0.000 A 
ATOM     27  C19 UNL     1      13.882  -2.815  26.129  0.00  0.00    +0.000 A 
ATOM     28  C20 UNL     1      14.651  -2.549  24.992  0.00  0.00    +0.005 A 
ENDBRANCH  22  23
ENDBRANCH   1  22
TORSDOF 4
ENDMDL
MODEL 7
REMARK VINA RESULT:    -6.560     15.846     16.855
REMARK INTER + INTRA:          -8.590
REMARK INTER:                  -8.008
REMARK INTRA:                  -0.582
REMARK UNBOUND:                -0.687
REMARK  Name = /home/qwerty/github/datacon2025hack/step_04_hit_selection/docking/ligands/lig_462.pdb
REMARK  7 active torsions:
REMARK  status: ('A' for Active; 'I' for Inactive)
REMARK    1  A    between atoms: C1_1  and  C2_2
REMARK    2  A    between atoms: C2_2  and  N1_3
REMARK    3  A    between atoms: C2_2  and  C15_20
REMARK    4  A    between atoms: N2_6  and  C4_7
REMARK    5  A    between atoms: C10_14  and  C11_15
REMARK    6  A    between atoms: C10_14  and  C12_16
REMARK    7  A    between atoms: C14_18  and  O3_19
REMARK                            x       y       z     vdW  Elec       q    Type
REMARK                         _______ _______ _______ _____ _____    ______ ____
ROOT
ATOM      1  N1  UNL     1       7.636   9.943  25.862  0.00  0.00    -0.293 N 
ATOM      2  C3  UNL     1       8.562   9.853  24.770  0.00  0.00    +0.304 C 
ATOM      3  O1  UNL     1       9.803   9.806  24.994  0.00  0.00    -0.252 OA
ATOM      4  N2  UNL     1       8.072   9.843  23.422  0.00  0.00    -0.266 N 
ATOM      5  H5  UNL     1       6.623  10.053  25.633  0.00  0.00    +0.151 HD
ATOM      6  H6  UNL     1       7.116  10.222  23.243  0.00  0.00    +0.156 HD
ENDROOT
BRANCH   4   7
ATOM      7  C4  UNL     1       8.883   9.474  22.295  0.00  0.00    +0.077 A 
ATOM      8  C5  UNL     1       9.537  10.477  21.567  0.00  0.00    +0.027 A 
ATOM      9  C6  UNL     1      10.319  10.149  20.458  0.00  0.00    +0.002 A 
ATOM     10  C7  UNL     1      10.457   8.818  20.065  0.00  0.00    +0.010 A 
ATOM     11  C8  UNL     1       9.809   7.795  20.779  0.00  0.00    +0.025 A 
ATOM     12  C9  UNL     1       8.982   8.134  21.870  0.00  0.00    +0.148 A 
ATOM     13  O2  UNL     1       8.244   7.143  22.532  0.00  0.00    -0.484 OA
ATOM     14  C10 UNL     1       8.127   5.801  22.056  0.00  0.00    +0.108 C 
ATOM     15  C11 UNL     1       7.824   4.894  23.257  0.00  0.00    +0.055 C 
ATOM     16  C12 UNL     1       6.960   5.720  21.056  0.00  0.00    +0.055 C 
ATOM     17  C13 UNL     1       9.460   5.367  21.402  0.00  0.00    +0.083 C 
ATOM     18  C14 UNL     1       9.927   6.358  20.317  0.00  0.00    +0.152 C 
BRANCH  18  19
ATOM     19  O3  UNL     1      11.262   6.079  19.980  0.00  0.00    -0.387 OA
ATOM     20  H19 UNL     1      11.799   6.864  20.265  0.00  0.00    +0.210 HD
ENDBRANCH  18  19
ENDBRANCH   4   7
BRANCH   1  22
ATOM     21  C1  UNL     1       7.193   8.848  28.025  0.00  0.00    +0.033 C 
ATOM     22  C2  UNL     1       8.065   9.853  27.262  0.00  0.00    +0.102 C 
BRANCH  22  23
ATOM     23  C15 UNL     1       8.021  11.216  27.926  0.00  0.00    -0.027 A 
ATOM     24  C16 UNL     1       8.239  12.391  27.180  0.00  0.00    +0.005 A 
ATOM     25  C17 UNL     1       8.191  13.642  27.801  0.00  0.00    +0.000 A 
ATOM     26  C18 UNL     1       7.924  13.737  29.169  0.00  0.00    +0.000 A 
ATOM     27  C19 UNL     1       7.704  12.579  29.919  0.00  0.00    +0.000 A 
ATOM     28  C20 UNL     1       7.752  11.325  29.303  0.00  0.00    +0.005 A 
ENDBRANCH  22  23
ENDBRANCH   1  22
TORSDOF 4
ENDMDL
MODEL 8
REMARK VINA RESULT:    -6.475     12.383     14.068
REMARK INTER + INTRA:          -8.488
REMARK INTER:                  -8.104
REMARK INTRA:                  -0.384
REMARK UNBOUND:                -0.687
REMARK  Name = /home/qwerty/github/datacon2025hack/step_04_hit_selection/docking/ligands/lig_462.pdb
REMARK  7 active torsions:
REMARK  status: ('A' for Active; 'I' for Inactive)
REMARK    1  A    between atoms: C1_1  and  C2_2
REMARK    2  A    between atoms: C2_2  and  N1_3
REMARK    3  A    between atoms: C2_2  and  C15_20
REMARK    4  A    between atoms: N2_6  and  C4_7
REMARK    5  A    between atoms: C10_14  and  C11_15
REMARK    6  A    between atoms: C10_14  and  C12_16
REMARK    7  A    between atoms: C14_18  and  O3_19
REMARK                            x       y       z     vdW  Elec       q    Type
REMARK                         _______ _______ _______ _____ _____    ______ ____
ROOT
ATOM      1  N1  UNL     1      11.191  14.557  33.626  0.00  0.00    -0.293 N 
ATOM      2  C3  UNL     1      11.955  14.165  32.477  0.00  0.00    +0.304 C 
ATOM      3  O1  UNL     1      12.680  13.133  32.519  0.00  0.00    -0.252 OA
ATOM      4  N2  UNL     1      11.912  14.966  31.288  0.00  0.00    -0.266 N 
ATOM      5  H5  UNL     1      10.661  15.456  33.575  0.00  0.00    +0.151 HD
ATOM      6  H6  UNL     1      11.606  15.961  31.376  0.00  0.00    +0.156 HD
ENDROOT
BRANCH   4   7
ATOM      7  C4  UNL     1      12.404  14.513  30.017  0.00  0.00    +0.077 A 
ATOM      8  C5  UNL     1      13.683  14.907  29.600  0.00  0.00    +0.027 A 
ATOM      9  C6  UNL     1      14.181  14.494  28.363  0.00  0.00    +0.002 A 
ATOM     10  C7  UNL     1      13.409  13.683  27.531  0.00  0.00    +0.010 A 
ATOM     11  C8  UNL     1      12.124  13.277  27.927  0.00  0.00    +0.025 A 
ATOM     12  C9  UNL     1      11.605  13.734  29.157  0.00  0.00    +0.148 A 
ATOM     13  O2  UNL     1      10.288  13.428  29.525  0.00  0.00    -0.484 OA
ATOM     14  C10 UNL     1       9.346  12.817  28.641  0.00  0.00    +0.108 C 
ATOM     15  C11 UNL     1       8.299  12.085  29.491  0.00  0.00    +0.055 C 
ATOM     16  C12 UNL     1       8.648  13.912  27.814  0.00  0.00    +0.055 C 
ATOM     17  C13 UNL     1      10.077  11.803  27.730  0.00  0.00    +0.083 C 
ATOM     18  C14 UNL     1      11.276  12.435  26.996  0.00  0.00    +0.152 C 
BRANCH  18  19
ATOM     19  O3  UNL     1      12.063  11.416  26.434  0.00  0.00    -0.387 OA
ATOM     20  H19 UNL     1      12.318  11.721  25.524  0.00  0.00    +0.210 HD
ENDBRANCH  18  19
ENDBRANCH   4   7
BRANCH   1  22
ATOM     21  C1  UNL     1       9.999  14.236  35.759  0.00  0.00    +0.033 C 
ATOM     22  C2  UNL     1      11.111  13.727  34.834  0.00  0.00    +0.102 C 
BRANCH  22  23
ATOM     23  C15 UNL     1      12.444  13.700  35.557  0.00  0.00    -0.027 A 
ATOM     24  C16 UNL     1      13.258  14.848  35.614  0.00  0.00    +0.005 A 
ATOM     25  C17 UNL     1      14.482  14.814  36.289  0.00  0.00    +0.000 A 
ATOM     26  C18 UNL     1      14.906  13.639  36.913  0.00  0.00    +0.000 A 
ATOM     27  C19 UNL     1      14.106  12.494  36.864  0.00  0.00    +0.000 A 
ATOM     28  C20 UNL     1      12.882  12.522  36.191  0.00  0.00    +0.005 A 
ENDBRANCH  22  23
ENDBRANCH   1  22
TORSDOF 4
ENDMDL
MODEL 9
REMARK VINA RESULT:    -6.451      7.398     10.304
REMARK INTER + INTRA:          -8.459
REMARK INTER:                  -8.050
REMARK INTRA:                  -0.409
REMARK UNBOUND:                -0.687
REMARK  Name = /home/qwerty/github/datacon2025hack/step_04_hit_selection/docking/ligands/lig_462.pdb
REMARK  7 active torsions:
REMARK  status: ('A' for Active; 'I' for Inactive)
REMARK    1  A    between atoms: C1_1  and  C2_2
REMARK    2  A    between atoms: C2_2  and  N1_3
REMARK    3  A    between atoms: C2_2  and  C15_20
REMARK    4  A    between atoms: N2_6  and  C4_7
REMARK    5  A    between atoms: C10_14  and  C11_15
REMARK    6  A    between atoms: C10_14  and  C12_16
REMARK    7  A    between atoms: C14_18  and  O3_19
REMARK                            x       y       z     vdW  Elec       q    Type
REMARK                         _______ _______ _______ _____ _____    ______ ____
ROOT
ATOM      1  N1  UNL     1      20.677   1.174  25.315  0.00  0.00    -0.293 N 
ATOM      2  C3  UNL     1      19.355   0.638  25.466  0.00  0.00    +0.304 C 
ATOM      3  O1  UNL     1      18.587   1.087  26.361  0.00  0.00    -0.252 OA
ATOM      4  N2  UNL     1      18.918  -0.429  24.612  0.00  0.00    -0.266 N 
ATOM      5  H5  UNL     1      21.306   0.726  24.610  0.00  0.00    +0.151 HD
ATOM      6  H6  UNL     1      19.646  -1.007  24.135  0.00  0.00    +0.156 HD
ENDROOT
BRANCH   4   7
ATOM      7  C4  UNL     1      17.544  -0.829  24.497  0.00  0.00    +0.077 A 
ATOM      8  C5  UNL     1      17.095  -1.946  25.215  0.00  0.00    +0.027 A 
ATOM      9  C6  UNL     1      15.768  -2.367  25.110  0.00  0.00    +0.002 A 
ATOM     10  C7  UNL     1      14.876  -1.679  24.288  0.00  0.00    +0.010 A 
ATOM     11  C8  UNL     1      15.303  -0.557  23.557  0.00  0.00    +0.025 A 
ATOM     12  C9  UNL     1      16.656  -0.162  23.628  0.00  0.00    +0.148 A 
ATOM     13  O2  UNL     1      17.129   0.887  22.829  0.00  0.00    -0.484 OA
ATOM     14  C10 UNL     1      16.360   1.489  21.786  0.00  0.00    +0.108 C 
ATOM     15  C11 UNL     1      16.881   2.916  21.572  0.00  0.00    +0.055 C 
ATOM     16  C12 UNL     1      16.551   0.682  20.490  0.00  0.00    +0.055 C 
ATOM     17  C13 UNL     1      14.872   1.538  22.205  0.00  0.00    +0.083 C 
ATOM     18  C14 UNL     1      14.339   0.155  22.632  0.00  0.00    +0.152 C 
BRANCH  18  19
ATOM     19  O3  UNL     1      13.101   0.315  23.274  0.00  0.00    -0.387 OA
ATOM     20  H19 UNL     1      13.106  -0.289  24.062  0.00  0.00    +0.210 HD
ENDBRANCH  18  19
ENDBRANCH   4   7
BRANCH   1  22
ATOM     21  C1  UNL     1      22.364   2.968  25.403  0.00  0.00    +0.033 C 
ATOM     22  C2  UNL     1      21.146   2.332  26.084  0.00  0.00    +0.102 C 
BRANCH  22  23
ATOM     23  C15 UNL     1      21.473   1.932  27.510  0.00  0.00    -0.027 A 
ATOM     24  C16 UNL     1      21.791   0.598  27.831  0.00  0.00    +0.005 A 
ATOM     25  C17 UNL     1      22.097   0.242  29.149  0.00  0.00    +0.000 A 
ATOM     26  C18 UNL     1      22.091   1.209  30.156  0.00  0.00    +0.000 A 
ATOM     27  C19 UNL     1      21.779   2.536  29.849  0.00  0.00    +0.000 A 
ATOM     28  C20 UNL     1      21.472   2.898  28.534  0.00  0.00    +0.005 A 
ENDBRANCH  22  23
ENDBRANCH   1  22
TORSDOF 4
ENDMDL
