REMARK  Name = /home/qwerty/github/datacon2025hack/step_04_hit_selection/docking/ligands/lig_763.pdb
REMARK  9 active torsions:
REMARK  status: ('A' for Active; 'I' for Inactive)
REMARK    1  A    between atoms: C1_1  and  C2_2
REMARK    2  A    between atoms: C2_2  and  C3_3
REMARK    3  A    between atoms: C3_3  and  C4_4
REMARK    4  A    between atoms: C3_3  and  C6_8
REMARK    5  A    between atoms: C4_4  and  C5_5
REMARK    6  A    between atoms: C10_15  and  C11_17
REMARK    7  A    between atoms: C12_19  and  C13_20
REMARK    8  A    between atoms: C16_24  and  C17_25
REMARK    9  A    between atoms: C17_25  and  O3_26
REMARK                            x       y       z     vdW  Elec       q    Type
REMARK                         _______ _______ _______ _____ _____    ______ ____
ROOT
ATOM      1  C6  UNL     1      -2.960   0.110  -0.873  0.00  0.00    +0.219 C 
ATOM      2  O1  UNL     1      -3.441   0.750  -1.848  0.00  0.00    -0.275 OA
ATOM      3  N1  UNL     1      -1.636  -0.448  -0.985  0.00  0.00    -0.300 N 
ATOM      4  C7  UNL     1      -0.929  -1.135   0.083  0.00  0.00    +0.113 C 
ATOM      5  C8  UNL     1       0.482  -1.385  -0.453  0.00  0.00    +0.035 C 
ATOM      6  C9  UNL     1       1.495  -0.318  -0.015  0.00  0.00    +0.114 C 
ATOM      7  N2  UNL     1       2.247   0.029  -1.211  0.00  0.00    -0.294 N 
ATOM      8  C10 UNL     1       3.260   1.048  -1.239  0.00  0.00    +0.282 C 
ATOM      9  O2  UNL     1       3.337   1.824  -2.229  0.00  0.00    -0.267 OA
ATOM     10  C15 UNL     1       1.690  -0.554  -2.421  0.00  0.00    +0.119 C 
ATOM     11  C16 UNL     1       0.388  -1.254  -1.983  0.00  0.00    +0.031 C 
ATOM     12  C18 UNL     1      -0.855  -0.362  -2.209  0.00  0.00    +0.118 C 
ENDROOT
BRANCH   8  13
ATOM     13  C11 UNL     1       4.212   1.217  -0.130  0.00  0.00    +0.194 A 
ATOM     14  N3  UNL     1       4.787   2.402   0.170  0.00  0.00    -0.229 NA
ATOM     15  C12 UNL     1       5.610   2.107   1.196  0.00  0.00    +0.057 A 
ATOM     16  C13 UNL     1       6.526   3.093   1.840  0.00  0.00    +0.067 C 
ATOM     17  C14 UNL     1       5.551   0.760   1.475  0.00  0.00    +0.107 A 
ATOM     18  N4  UNL     1       4.665   0.203   0.636  0.00  0.00    -0.340 N 
ATOM     19  H19 UNL     1       4.436  -0.812   0.559  0.00  0.00    +0.167 HD
ENDBRANCH   8  13
BRANCH   1  20
ATOM     20  C3  UNL     1      -3.799  -0.049   0.380  0.00  0.00    +0.080 C 
BRANCH  20  22
ATOM     21  C1  UNL     1      -5.874  -1.288   1.249  0.00  0.00    +0.004 C 
ATOM     22  C2  UNL     1      -5.100  -0.804   0.021  0.00  0.00    +0.009 C 
ENDBRANCH  20  22
BRANCH  20  23
ATOM     23  C4  UNL     1      -4.093   1.333   1.011  0.00  0.00    +0.084 C 
BRANCH  23  24
ATOM     24  C5  UNL     1      -2.825   2.057   1.477  0.00  0.00    +0.342 C 
ATOM     25  F1  UNL     1      -2.196   1.328   2.471  0.00  0.00    -0.209 F 
ATOM     26  F2  UNL     1      -3.165   3.300   1.979  0.00  0.00    -0.209 F 
ENDBRANCH  23  24
ENDBRANCH  20  23
ENDBRANCH   1  20
BRANCH  11  27
ATOM     27  C17 UNL     1       0.199  -2.626  -2.678  0.00  0.00    +0.166 C 
BRANCH  27  28
ATOM     28  O3  UNL     1       1.286  -3.482  -2.427  0.00  0.00    -0.394 OA
ATOM     29  H24 UNL     1       0.985  -4.153  -1.760  0.00  0.00    +0.209 HD
ENDBRANCH  27  28
ENDBRANCH  11  27
TORSDOF 7
