REMARK  Name = /home/qwerty/github/datacon2025hack/step_04_hit_selection/docking/ligands/lig_640.pdb
REMARK  4 active torsions:
REMARK  status: ('A' for Active; 'I' for Inactive)
REMARK    1  A    between atoms: C5_5  and  C6_6
REMARK    2  A    between atoms: C9_11  and  C10_12
REMARK    3  A    between atoms: C9_11  and  N2_13
REMARK    4  A    between atoms: C11_14  and  C12_16
REMARK                            x       y       z     vdW  Elec       q    Type
REMARK                         _______ _______ _______ _____ _____    ______ ____
ROOT
ATOM      1  C6  UNL     1       2.055  -0.377  -0.784  0.00  0.00    +0.219 C 
ATOM      2  O1  UNL     1       2.429  -0.194  -1.976  0.00  0.00    -0.275 OA
ATOM      3  N1  UNL     1       0.644  -0.308  -0.461  0.00  0.00    -0.301 N 
ATOM      4  C7  UNL     1       0.148  -0.778   0.844  0.00  0.00    +0.110 C 
ATOM      5  C8  UNL     1      -1.383  -0.703   0.942  0.00  0.00    +0.044 C 
ATOM      6  C9  UNL     1      -1.941   0.675   0.482  0.00  0.00    +0.035 C 
ATOM      7  C10 UNL     1      -1.619   1.727   1.573  0.00  0.00    +0.031 C 
ATOM      8  C16 UNL     1      -1.308   1.145  -0.872  0.00  0.00    +0.044 C 
ATOM      9  C17 UNL     1      -0.324   0.134  -1.477  0.00  0.00    +0.110 C 
ENDROOT
BRANCH   1  14
ATOM     10  C1  UNL     1       7.249   0.519   0.876  0.00  0.00    +0.007 C 
ATOM     11  C2  UNL     1       5.956   0.268   0.626  0.00  0.00    -0.077 C 
ATOM     12  C3  UNL     1       4.885   0.812   1.541  0.00  0.00    +0.031 C 
ATOM     13  C4  UNL     1       3.526   0.833   0.831  0.00  0.00    +0.017 C 
ATOM     14  C5  UNL     1       3.118  -0.557   0.285  0.00  0.00    +0.076 C 
ATOM     15  C18 UNL     1       4.321  -1.400  -0.233  0.00  0.00    +0.017 C 
ATOM     16  C19 UNL     1       5.551  -0.552  -0.577  0.00  0.00    +0.031 C 
ENDBRANCH   1  14
BRANCH   6  17
ATOM     17  N2  UNL     1      -3.412   0.583   0.353  0.00  0.00    -0.305 N 
ATOM     18  C11 UNL     1      -4.100  -0.289  -0.566  0.00  0.00    +0.261 C 
ATOM     19  O2  UNL     1      -3.460  -0.885  -1.474  0.00  0.00    -0.269 OA
ATOM     20  H15 UNL     1      -3.998   1.196   0.962  0.00  0.00    +0.150 HD
BRANCH  18  21
ATOM     21  C12 UNL     1      -5.561  -0.490  -0.477  0.00  0.00    +0.105 A 
ATOM     22  C13 UNL     1      -6.325  -1.160  -1.418  0.00  0.00    +0.070 A 
ATOM     23  C14 UNL     1      -7.616  -1.130  -0.938  0.00  0.00    +0.141 A 
ATOM     24  F1  UNL     1      -8.705  -1.670  -1.536  0.00  0.00    -0.204 F 
ATOM     25  C15 UNL     1      -7.598  -0.458   0.264  0.00  0.00    +0.121 A 
ATOM     26  N3  UNL     1      -6.340  -0.069   0.543  0.00  0.00    -0.355 N 
ATOM     27  H18 UNL     1      -6.045   0.440   1.404  0.00  0.00    +0.166 HD
ENDBRANCH  18  21
ENDBRANCH   6  17
TORSDOF 3
