MODEL 1
REMARK VINA RESULT:    -7.353      0.000      0.000
REMARK INTER + INTRA:         -11.345
REMARK INTER:                 -10.362
REMARK INTRA:                  -0.983
REMARK UNBOUND:                -0.983
REMARK  Name = /home/qwerty/github/datacon2025hack/step_04_hit_selection/docking/ligands/lig_757.pdb
REMARK  9 active torsions:
REMARK  status: ('A' for Active; 'I' for Inactive)
REMARK    1  A    between atoms: C1_1  and  C2_2
REMARK    2  A    between atoms: C2_2  and  N1_3
REMARK    3  A    between atoms: N1_3  and  C3_4
REMARK    4  A    between atoms: C3_4  and  C4_5
REMARK    5  A    between atoms: C5_6  and  C6_8
REMARK    6  A    between atoms: C9_11  and  C10_12
REMARK    7  A    between atoms: C14_17  and  C15_18
REMARK    8  A    between atoms: N4_23  and  C19_24
REMARK    9  A    between atoms: C19_24  and  C20_25
REMARK                            x       y       z     vdW  Elec       q    Type
REMARK                         _______ _______ _______ _____ _____    ______ ____
ROOT
ATOM      1  C10 UNL     1      21.254   3.696  24.364  0.00  0.00    +0.072 A 
ATOM      2  C11 UNL     1      20.339   3.318  23.340  0.00  0.00    +0.030 A 
ATOM      3  C12 UNL     1      20.231   4.090  22.170  0.00  0.00    +0.030 A 
ATOM      4  C13 UNL     1      21.048   5.208  22.062  0.00  0.00    +0.065 A 
ATOM      5  N2  UNL     1      21.122   6.090  21.052  0.00  0.00    -0.352 N 
ATOM      6  C14 UNL     1      22.070   6.992  21.425  0.00  0.00    +0.068 A 
ATOM      7  C24 UNL     1      22.597   6.670  22.677  0.00  0.00    +0.057 A 
ATOM      8  C25 UNL     1      21.923   5.533  23.052  0.00  0.00    +0.090 A 
ATOM      9  N6  UNL     1      22.040   4.805  24.189  0.00  0.00    -0.245 NA
ATOM     10  H15 UNL     1      20.564   6.064  20.171  0.00  0.00    +0.166 HD
ENDROOT
BRANCH   6  11
ATOM     11  C15 UNL     1      22.491   8.160  20.619  0.00  0.00    +0.092 A 
ATOM     12  C16 UNL     1      23.119   8.014  19.373  0.00  0.00    +0.049 A 
ATOM     13  C17 UNL     1      23.479   9.161  18.666  0.00  0.00    +0.116 A 
ATOM     14  N3  UNL     1      23.223  10.387  19.187  0.00  0.00    -0.223 NA
ATOM     15  C18 UNL     1      22.618  10.522  20.398  0.00  0.00    +0.216 A 
ATOM     16  N4  UNL     1      22.353  11.820  20.945  0.00  0.00    -0.311 N 
ATOM     17  N5  UNL     1      22.256   9.413  21.096  0.00  0.00    -0.213 NA
ATOM     18  H18 UNL     1      21.803  11.887  21.832  0.00  0.00    +0.149 HD
BRANCH  16  19
ATOM     19  C19 UNL     1      22.786  13.059  20.299  0.00  0.00    +0.136 C 
BRANCH  19  20
ATOM     20  C20 UNL     1      23.376  14.040  21.324  0.00  0.00    +0.135 C 
ATOM     21  C21 UNL     1      24.262  13.345  22.346  0.00  0.00    +0.035 C 
ATOM     22  C22 UNL     1      24.091  14.203  23.558  0.00  0.00    +0.031 C 
ATOM     23  C23 UNL     1      22.712  14.804  23.363  0.00  0.00    +0.160 C 
ATOM     24  O2  UNL     1      22.333  14.696  22.007  0.00  0.00    -0.375 OA
ENDBRANCH  19  20
ENDBRANCH  16  19
ENDBRANCH   6  11
BRANCH   1  28
ATOM     25  C6  UNL     1      21.644   1.476  28.038  0.00  0.00    +0.037 A 
ATOM     26  C7  UNL     1      20.530   1.275  27.208  0.00  0.00    +0.014 A 
ATOM     27  C8  UNL     1      20.399   1.989  26.014  0.00  0.00    +0.011 A 
ATOM     28  C9  UNL     1      21.386   2.910  25.616  0.00  0.00    +0.000 A 
ATOM     29  C26 UNL     1      22.505   3.101  26.448  0.00  0.00    +0.011 A 
ATOM     30  C27 UNL     1      22.636   2.385  27.642  0.00  0.00    +0.014 A 
BRANCH  25  32
ATOM     31  N1  UNL     1      21.476   1.309  30.573  0.00  0.00    -0.298 N 
ATOM     32  C5  UNL     1      21.791   0.716  29.298  0.00  0.00    +0.247 C 
ATOM     33  O1  UNL     1      22.189  -0.481  29.255  0.00  0.00    -0.270 OA
BRANCH  31  35
ATOM     34  C1  UNL     1      21.922   2.847  32.442  0.00  0.00    +0.024 C 
ATOM     35  C2  UNL     1      22.049   2.613  30.941  0.00  0.00    +0.104 C 
ENDBRANCH  31  35
BRANCH  31  36
ATOM     36  C3  UNL     1      20.678   0.549  31.542  0.00  0.00    +0.104 C 
ATOM     37  C4  UNL     1      19.197   0.634  31.192  0.00  0.00    +0.024 C 
ENDBRANCH  31  36
ENDBRANCH  25  32
ENDBRANCH   1  28
TORSDOF 7
ENDMDL
MODEL 2
REMARK VINA RESULT:    -7.320      7.530      9.920
REMARK INTER + INTRA:         -11.298
REMARK INTER:                 -10.105
REMARK INTRA:                  -1.193
REMARK UNBOUND:                -0.983
REMARK  Name = /home/qwerty/github/datacon2025hack/step_04_hit_selection/docking/ligands/lig_757.pdb
REMARK  9 active torsions:
REMARK  status: ('A' for Active; 'I' for Inactive)
REMARK    1  A    between atoms: C1_1  and  C2_2
REMARK    2  A    between atoms: C2_2  and  N1_3
REMARK    3  A    between atoms: N1_3  and  C3_4
REMARK    4  A    between atoms: C3_4  and  C4_5
REMARK    5  A    between atoms: C5_6  and  C6_8
REMARK    6  A    between atoms: C9_11  and  C10_12
REMARK    7  A    between atoms: C14_17  and  C15_18
REMARK    8  A    between atoms: N4_23  and  C19_24
REMARK    9  A    between atoms: C19_24  and  C20_25
REMARK                            x       y       z     vdW  Elec       q    Type
REMARK                         _______ _______ _______ _____ _____    ______ ____
ROOT
ATOM      1  C10 UNL     1      21.201   2.784  28.873  0.00  0.00    +0.072 A 
ATOM      2  C11 UNL     1      22.184   1.776  28.655  0.00  0.00    +0.030 A 
ATOM      3  C12 UNL     1      21.942   0.742  27.732  0.00  0.00    +0.030 A 
ATOM      4  C13 UNL     1      20.729   0.759  27.055  0.00  0.00    +0.065 A 
ATOM      5  N2  UNL     1      20.277  -0.112  26.138  0.00  0.00    -0.352 N 
ATOM      6  C14 UNL     1      19.046   0.344  25.778  0.00  0.00    +0.068 A 
ATOM      7  C24 UNL     1      18.728   1.514  26.472  0.00  0.00    +0.057 A 
ATOM      8  C25 UNL     1      19.818   1.746  27.275  0.00  0.00    +0.090 A 
ATOM      9  N6  UNL     1      20.030   2.748  28.162  0.00  0.00    -0.245 NA
ATOM     10  H15 UNL     1      20.784  -0.952  25.785  0.00  0.00    +0.166 HD
ENDROOT
BRANCH   6  11
ATOM     11  C15 UNL     1      18.159  -0.304  24.787  0.00  0.00    +0.092 A 
ATOM     12  C16 UNL     1      17.691  -1.616  24.956  0.00  0.00    +0.049 A 
ATOM     13  C17 UNL     1      16.850  -2.157  23.984  0.00  0.00    +0.116 A 
ATOM     14  N3  UNL     1      16.501  -1.418  22.901  0.00  0.00    -0.223 NA
ATOM     15  C18 UNL     1      16.962  -0.148  22.741  0.00  0.00    +0.216 A 
ATOM     16  N4  UNL     1      16.592   0.626  21.594  0.00  0.00    -0.311 N 
ATOM     17  N5  UNL     1      17.778   0.395  23.683  0.00  0.00    -0.213 NA
ATOM     18  H18 UNL     1      16.887   1.629  21.550  0.00  0.00    +0.149 HD
BRANCH  16  19
ATOM     19  C19 UNL     1      15.790   0.088  20.495  0.00  0.00    +0.136 C 
BRANCH  19  20
ATOM     20  C20 UNL     1      14.886   1.171  19.888  0.00  0.00    +0.135 C 
ATOM     21  C21 UNL     1      15.549   2.540  19.878  0.00  0.00    +0.035 C 
ATOM     22  C22 UNL     1      14.381   3.466  20.002  0.00  0.00    +0.031 C 
ATOM     23  C23 UNL     1      13.352   2.625  20.734  0.00  0.00    +0.160 C 
ATOM     24  O2  UNL     1      13.688   1.259  20.625  0.00  0.00    -0.375 OA
ENDBRANCH  19  20
ENDBRANCH  16  19
ENDBRANCH   6  11
BRANCH   1  28
ATOM     25  C6  UNL     1      21.898   5.944  31.719  0.00  0.00    +0.037 A 
ATOM     26  C7  UNL     1      21.631   6.252  30.376  0.00  0.00    +0.014 A 
ATOM     27  C8  UNL     1      21.402   5.232  29.448  0.00  0.00    +0.011 A 
ATOM     28  C9  UNL     1      21.419   3.883  29.847  0.00  0.00    +0.000 A 
ATOM     29  C26 UNL     1      21.679   3.581  31.196  0.00  0.00    +0.011 A 
ATOM     30  C27 UNL     1      21.907   4.601  32.124  0.00  0.00    +0.014 A 
BRANCH  25  32
ATOM     31  N1  UNL     1      23.383   7.737  32.750  0.00  0.00    -0.298 N 
ATOM     32  C5  UNL     1      22.133   7.021  32.705  0.00  0.00    +0.247 C 
ATOM     33  O1  UNL     1      21.217   7.327  33.517  0.00  0.00    -0.270 OA
BRANCH  31  35
ATOM     34  C1  UNL     1      24.772   6.231  34.115  0.00  0.00    +0.024 C 
ATOM     35  C2  UNL     1      24.654   6.999  32.804  0.00  0.00    +0.104 C 
ENDBRANCH  31  35
BRANCH  31  36
ATOM     36  C3  UNL     1      23.370   9.201  32.862  0.00  0.00    +0.104 C 
ATOM     37  C4  UNL     1      24.331   9.817  31.852  0.00  0.00    +0.024 C 
ENDBRANCH  31  36
ENDBRANCH  25  32
ENDBRANCH   1  28
TORSDOF 7
ENDMDL
MODEL 3
REMARK VINA RESULT:    -7.138     13.621     16.362
REMARK INTER + INTRA:         -11.041
REMARK INTER:                  -9.717
REMARK INTRA:                  -1.324
REMARK UNBOUND:                -0.983
REMARK  Name = /home/qwerty/github/datacon2025hack/step_04_hit_selection/docking/ligands/lig_757.pdb
REMARK  9 active torsions:
REMARK  status: ('A' for Active; 'I' for Inactive)
REMARK    1  A    between atoms: C1_1  and  C2_2
REMARK    2  A    between atoms: C2_2  and  N1_3
REMARK    3  A    between atoms: N1_3  and  C3_4
REMARK    4  A    between atoms: C3_4  and  C4_5
REMARK    5  A    between atoms: C5_6  and  C6_8
REMARK    6  A    between atoms: C9_11  and  C10_12
REMARK    7  A    between atoms: C14_17  and  C15_18
REMARK    8  A    between atoms: N4_23  and  C19_24
REMARK    9  A    between atoms: C19_24  and  C20_25
REMARK                            x       y       z     vdW  Elec       q    Type
REMARK                         _______ _______ _______ _____ _____    ______ ____
ROOT
ATOM      1  C10 UNL     1      10.389  12.078  27.706  0.00  0.00    +0.072 A 
ATOM      2  C11 UNL     1      10.571  13.461  27.414  0.00  0.00    +0.030 A 
ATOM      3  C12 UNL     1      10.958  14.351  28.432  0.00  0.00    +0.030 A 
ATOM      4  C13 UNL     1      11.157  13.825  29.702  0.00  0.00    +0.065 A 
ATOM      5  N2  UNL     1      11.522  14.471  30.821  0.00  0.00    -0.352 N 
ATOM      6  C14 UNL     1      11.583  13.517  31.789  0.00  0.00    +0.068 A 
ATOM      7  C24 UNL     1      11.257  12.262  31.270  0.00  0.00    +0.057 A 
ATOM      8  C25 UNL     1      10.990  12.497  29.944  0.00  0.00    +0.090 A 
ATOM      9  N6  UNL     1      10.614  11.623  28.979  0.00  0.00    -0.245 NA
ATOM     10  H15 UNL     1      11.722  15.492  30.906  0.00  0.00    +0.166 HD
ENDROOT
BRANCH   6  11
ATOM     11  C15 UNL     1      11.944  13.766  33.202  0.00  0.00    +0.092 A 
ATOM     12  C16 UNL     1      10.972  13.877  34.209  0.00  0.00    +0.049 A 
ATOM     13  C17 UNL     1      11.390  14.102  35.520  0.00  0.00    +0.116 A 
ATOM     14  N3  UNL     1      12.712  14.211  35.802  0.00  0.00    -0.223 NA
ATOM     15  C18 UNL     1      13.649  14.106  34.822  0.00  0.00    +0.216 A 
ATOM     16  N4  UNL     1      15.044  14.225  35.125  0.00  0.00    -0.311 N 
ATOM     17  N5  UNL     1      13.258  13.881  33.539  0.00  0.00    -0.213 NA
ATOM     18  H18 UNL     1      15.740  14.046  34.365  0.00  0.00    +0.149 HD
BRANCH  16  19
ATOM     19  C19 UNL     1      15.543  14.552  36.462  0.00  0.00    +0.136 C 
BRANCH  19  20
ATOM     20  C20 UNL     1      16.220  13.337  37.112  0.00  0.00    +0.135 C 
ATOM     21  C21 UNL     1      17.255  12.694  36.201  0.00  0.00    +0.035 C 
ATOM     22  C22 UNL     1      17.207  11.260  36.619  0.00  0.00    +0.031 C 
ATOM     23  C23 UNL     1      15.792  11.101  37.144  0.00  0.00    +0.160 C 
ATOM     24  O2  UNL     1      15.249  12.370  37.439  0.00  0.00    -0.375 OA
ENDBRANCH  19  20
ENDBRANCH  16  19
ENDBRANCH   6  11
BRANCH   1  28
ATOM     25  C6  UNL     1       9.121   9.320  24.646  0.00  0.00    +0.037 A 
ATOM     26  C7  UNL     1      10.450   9.771  24.681  0.00  0.00    +0.014 A 
ATOM     27  C8  UNL     1      10.869  10.664  25.672  0.00  0.00    +0.011 A 
ATOM     28  C9  UNL     1       9.971  11.112  26.659  0.00  0.00    +0.000 A 
ATOM     29  C26 UNL     1       8.642  10.650  26.623  0.00  0.00    +0.011 A 
ATOM     30  C27 UNL     1       8.225   9.756  25.633  0.00  0.00    +0.014 A 
BRANCH  25  32
ATOM     31  N1  UNL     1       8.709   8.720  22.207  0.00  0.00    -0.298 N 
ATOM     32  C5  UNL     1       8.677   8.369  23.604  0.00  0.00    +0.247 C 
ATOM     33  O1  UNL     1       8.272   7.223  23.944  0.00  0.00    -0.270 OA
BRANCH  31  35
ATOM     34  C1  UNL     1       9.028  10.704  20.786  0.00  0.00    +0.024 C 
ATOM     35  C2  UNL     1       8.097   9.976  21.747  0.00  0.00    +0.104 C 
ENDBRANCH  31  35
BRANCH  31  36
ATOM     36  C3  UNL     1       9.250   7.760  21.236  0.00  0.00    +0.104 C 
ATOM     37  C4  UNL     1      10.727   7.505  21.512  0.00  0.00    +0.024 C 
ENDBRANCH  31  36
ENDBRANCH  25  32
ENDBRANCH   1  28
TORSDOF 7
ENDMDL
MODEL 4
REMARK VINA RESULT:    -7.106      8.149     11.340
REMARK INTER + INTRA:         -10.997
REMARK INTER:                  -9.713
REMARK INTRA:                  -1.284
REMARK UNBOUND:                -0.983
REMARK  Name = /home/qwerty/github/datacon2025hack/step_04_hit_selection/docking/ligands/lig_757.pdb
REMARK  9 active torsions:
REMARK  status: ('A' for Active; 'I' for Inactive)
REMARK    1  A    between atoms: C1_1  and  C2_2
REMARK    2  A    between atoms: C2_2  and  N1_3
REMARK    3  A    between atoms: N1_3  and  C3_4
REMARK    4  A    between atoms: C3_4  and  C4_5
REMARK    5  A    between atoms: C5_6  and  C6_8
REMARK    6  A    between atoms: C9_11  and  C10_12
REMARK    7  A    between atoms: C14_17  and  C15_18
REMARK    8  A    between atoms: N4_23  and  C19_24
REMARK    9  A    between atoms: C19_24  and  C20_25
REMARK                            x       y       z     vdW  Elec       q    Type
REMARK                         _______ _______ _______ _____ _____    ______ ____
ROOT
ATOM      1  C10 UNL     1      20.540   1.455  28.252  0.00  0.00    +0.072 A 
ATOM      2  C11 UNL     1      21.420   0.463  28.772  0.00  0.00    +0.030 A 
ATOM      3  C12 UNL     1      22.234   0.754  29.882  0.00  0.00    +0.030 A 
ATOM      4  C13 UNL     1      22.132   2.024  30.435  0.00  0.00    +0.065 A 
ATOM      5  N2  UNL     1      22.801   2.530  31.484  0.00  0.00    -0.352 N 
ATOM      6  C14 UNL     1      22.343   3.803  31.629  0.00  0.00    +0.068 A 
ATOM      7  C24 UNL     1      21.376   4.096  30.664  0.00  0.00    +0.057 A 
ATOM      8  C25 UNL     1      21.270   2.944  29.923  0.00  0.00    +0.090 A 
ATOM      9  N6  UNL     1      20.480   2.685  28.853  0.00  0.00    -0.245 NA
ATOM     10  H15 UNL     1      23.513   2.029  32.059  0.00  0.00    +0.166 HD
ENDROOT
BRANCH   6  11
ATOM     11  C15 UNL     1      22.802   4.756  32.664  0.00  0.00    +0.092 A 
ATOM     12  C16 UNL     1      24.079   5.336  32.626  0.00  0.00    +0.049 A 
ATOM     13  C17 UNL     1      24.438   6.233  33.631  0.00  0.00    +0.116 A 
ATOM     14  N3  UNL     1      23.559   6.528  34.622  0.00  0.00    -0.223 NA
ATOM     15  C18 UNL     1      22.324   5.959  34.656  0.00  0.00    +0.216 A 
ATOM     16  N4  UNL     1      21.401   6.273  35.707  0.00  0.00    -0.311 N 
ATOM     17  N5  UNL     1      21.958   5.087  33.679  0.00  0.00    -0.213 NA
ATOM     18  H18 UNL     1      20.429   5.891  35.650  0.00  0.00    +0.149 HD
BRANCH  16  19
ATOM     19  C19 UNL     1      21.746   7.132  36.839  0.00  0.00    +0.136 C 
BRANCH  19  20
ATOM     20  C20 UNL     1      20.489   7.570  37.605  0.00  0.00    +0.135 C 
ATOM     21  C21 UNL     1      19.411   6.497  37.609  0.00  0.00    +0.035 C 
ATOM     22  C22 UNL     1      18.153   7.303  37.673  0.00  0.00    +0.031 C 
ATOM     23  C23 UNL     1      18.552   8.615  37.023  0.00  0.00    +0.160 C 
ATOM     24  O2  UNL     1      19.958   8.736  37.018  0.00  0.00    -0.375 OA
ENDBRANCH  19  20
ENDBRANCH  16  19
ENDBRANCH   6  11
BRANCH   1  28
ATOM     25  C6  UNL     1      17.988   0.732  24.854  0.00  0.00    +0.037 A 
ATOM     26  C7  UNL     1      19.377   0.843  24.682  0.00  0.00    +0.014 A 
ATOM     27  C8  UNL     1      20.211   1.075  25.779  0.00  0.00    +0.011 A 
ATOM     28  C9  UNL     1      19.675   1.185  27.076  0.00  0.00    +0.000 A 
ATOM     29  C26 UNL     1      18.283   1.064  27.244  0.00  0.00    +0.011 A 
ATOM     30  C27 UNL     1      17.450   0.831  26.145  0.00  0.00    +0.014 A 
BRANCH  25  32
ATOM     31  N1  UNL     1      16.459  -0.796  23.509  0.00  0.00    -0.298 N 
ATOM     32  C5  UNL     1      17.104   0.478  23.696  0.00  0.00    +0.247 C 
ATOM     33  O1  UNL     1      16.904   1.401  22.858  0.00  0.00    -0.270 OA
BRANCH  31  35
ATOM     34  C1  UNL     1      16.850  -2.871  24.775  0.00  0.00    +0.024 C 
ATOM     35  C2  UNL     1      17.247  -2.037  23.562  0.00  0.00    +0.104 C 
ENDBRANCH  31  35
BRANCH  31  36
ATOM     36  C3  UNL     1      15.036  -0.836  23.150  0.00  0.00    +0.104 C 
ATOM     37  C4  UNL     1      14.185  -0.309  24.300  0.00  0.00    +0.024 C 
ENDBRANCH  31  36
ENDBRANCH  25  32
ENDBRANCH   1  28
TORSDOF 7
ENDMDL
MODEL 5
REMARK VINA RESULT:    -7.075     13.435     15.222
REMARK INTER + INTRA:         -10.953
REMARK INTER:                  -9.779
REMARK INTRA:                  -1.174
REMARK UNBOUND:                -0.983
REMARK  Name = /home/qwerty/github/datacon2025hack/step_04_hit_selection/docking/ligands/lig_757.pdb
REMARK  9 active torsions:
REMARK  status: ('A' for Active; 'I' for Inactive)
REMARK    1  A    between atoms: C1_1  and  C2_2
REMARK    2  A    between atoms: C2_2  and  N1_3
REMARK    3  A    between atoms: N1_3  and  C3_4
REMARK    4  A    between atoms: C3_4  and  C4_5
REMARK    5  A    between atoms: C5_6  and  C6_8
REMARK    6  A    between atoms: C9_11  and  C10_12
REMARK    7  A    between atoms: C14_17  and  C15_18
REMARK    8  A    between atoms: N4_23  and  C19_24
REMARK    9  A    between atoms: C19_24  and  C20_25
REMARK                            x       y       z     vdW  Elec       q    Type
REMARK                         _______ _______ _______ _____ _____    ______ ____
ROOT
ATOM      1  C10 UNL     1       9.615  11.229  29.500  0.00  0.00    +0.072 A 
ATOM      2  C11 UNL     1       8.256  10.823  29.627  0.00  0.00    +0.030 A 
ATOM      3  C12 UNL     1       7.560  10.328  28.509  0.00  0.00    +0.030 A 
ATOM      4  C13 UNL     1       8.251  10.248  27.308  0.00  0.00    +0.065 A 
ATOM      5  N2  UNL     1       7.803   9.816  26.118  0.00  0.00    -0.352 N 
ATOM      6  C14 UNL     1       8.859   9.933  25.266  0.00  0.00    +0.068 A 
ATOM      7  C24 UNL     1       9.978  10.439  25.931  0.00  0.00    +0.057 A 
ATOM      8  C25 UNL     1       9.555  10.630  27.223  0.00  0.00    +0.090 A 
ATOM      9  N6  UNL     1      10.242  11.113  28.286  0.00  0.00    -0.245 NA
ATOM     10  H15 UNL     1       6.844   9.460  25.913  0.00  0.00    +0.166 HD
ENDROOT
BRANCH   6  11
ATOM     11  C15 UNL     1       8.833   9.575  23.831  0.00  0.00    +0.092 A 
ATOM     12  C16 UNL     1       8.183  10.375  22.878  0.00  0.00    +0.049 A 
ATOM     13  C17 UNL     1       8.210   9.978  21.541  0.00  0.00    +0.116 A 
ATOM     14  N3  UNL     1       8.853   8.838  21.184  0.00  0.00    -0.223 NA
ATOM     15  C18 UNL     1       9.477   8.066  22.114  0.00  0.00    +0.216 A 
ATOM     16  N4  UNL     1      10.153   6.861  21.731  0.00  0.00    -0.311 N 
ATOM     17  N5  UNL     1       9.465   8.442  23.420  0.00  0.00    -0.213 NA
ATOM     18  H18 UNL     1      10.701   6.342  22.455  0.00  0.00    +0.149 HD
BRANCH  16  19
ATOM     19  C19 UNL     1      10.140   6.341  20.363  0.00  0.00    +0.136 C 
BRANCH  19  20
ATOM     20  C20 UNL     1      10.126   4.806  20.355  0.00  0.00    +0.135 C 
ATOM     21  C21 UNL     1       9.390   4.227  21.554  0.00  0.00    +0.035 C 
ATOM     22  C22 UNL     1      10.098   2.929  21.772  0.00  0.00    +0.031 C 
ATOM     23  C23 UNL     1      11.484   3.195  21.217  0.00  0.00    +0.160 C 
ATOM     24  O2  UNL     1      11.448   4.319  20.363  0.00  0.00    -0.375 OA
ENDBRANCH  19  20
ENDBRANCH  16  19
ENDBRANCH   6  11
BRANCH   1  28
ATOM     25  C6  UNL     1      11.768  12.830  32.873  0.00  0.00    +0.037 A 
ATOM     26  C7  UNL     1      11.606  11.443  32.734  0.00  0.00    +0.014 A 
ATOM     27  C8  UNL     1      10.912  10.916  31.642  0.00  0.00    +0.011 A 
ATOM     28  C9  UNL     1      10.376  11.766  30.655  0.00  0.00    +0.000 A 
ATOM     29  C26 UNL     1      10.549  13.155  30.795  0.00  0.00    +0.011 A 
ATOM     30  C27 UNL     1      11.245  13.681  31.888  0.00  0.00    +0.014 A 
BRANCH  25  32
ATOM     31  N1  UNL     1      12.207  12.993  35.375  0.00  0.00    -0.298 N 
ATOM     32  C5  UNL     1      12.509  13.390  34.024  0.00  0.00    +0.247 C 
ATOM     33  O1  UNL     1      13.433  14.225  33.817  0.00  0.00    -0.270 OA
BRANCH  31  35
ATOM     34  C1  UNL     1      10.229  14.427  35.679  0.00  0.00    +0.024 C 
ATOM     35  C2  UNL     1      10.820  13.034  35.864  0.00  0.00    +0.104 C 
ENDBRANCH  31  35
BRANCH  31  36
ATOM     36  C3  UNL     1      13.306  12.662  36.291  0.00  0.00    +0.104 C 
ATOM     37  C4  UNL     1      13.565  11.160  36.287  0.00  0.00    +0.024 C 
ENDBRANCH  31  36
ENDBRANCH  25  32
ENDBRANCH   1  28
TORSDOF 7
ENDMDL
MODEL 6
REMARK VINA RESULT:    -6.977      9.143     15.404
REMARK INTER + INTRA:         -10.814
REMARK INTER:                  -9.594
REMARK INTRA:                  -1.220
REMARK UNBOUND:                -0.983
REMARK  Name = /home/qwerty/github/datacon2025hack/step_04_hit_selection/docking/ligands/lig_757.pdb
REMARK  9 active torsions:
REMARK  status: ('A' for Active; 'I' for Inactive)
REMARK    1  A    between atoms: C1_1  and  C2_2
REMARK    2  A    between atoms: C2_2  and  N1_3
REMARK    3  A    between atoms: N1_3  and  C3_4
REMARK    4  A    between atoms: C3_4  and  C4_5
REMARK    5  A    between atoms: C5_6  and  C6_8
REMARK    6  A    between atoms: C9_11  and  C10_12
REMARK    7  A    between atoms: C14_17  and  C15_18
REMARK    8  A    between atoms: N4_23  and  C19_24
REMARK    9  A    between atoms: C19_24  and  C20_25
REMARK                            x       y       z     vdW  Elec       q    Type
REMARK                         _______ _______ _______ _____ _____    ______ ____
ROOT
ATOM      1  C10 UNL     1      21.484  15.912  28.288  0.00  0.00    +0.072 A 
ATOM      2  C11 UNL     1      21.132  17.132  28.934  0.00  0.00    +0.030 A 
ATOM      3  C12 UNL     1      20.471  17.108  30.176  0.00  0.00    +0.030 A 
ATOM      4  C13 UNL     1      20.194  15.865  30.730  0.00  0.00    +0.065 A 
ATOM      5  N2  UNL     1      19.576  15.591  31.891  0.00  0.00    -0.352 N 
ATOM      6  C14 UNL     1      19.553  14.233  31.980  0.00  0.00    +0.068 A 
ATOM      7  C24 UNL     1      20.165  13.652  30.867  0.00  0.00    +0.057 A 
ATOM      8  C25 UNL     1      20.557  14.718  30.094  0.00  0.00    +0.090 A 
ATOM      9  N6  UNL     1      21.191  14.718  28.897  0.00  0.00    -0.245 NA
ATOM     10  H15 UNL     1      19.207  16.290  32.571  0.00  0.00    +0.166 HD
ENDROOT
BRANCH   6  11
ATOM     11  C15 UNL     1      18.962  13.468  33.100  0.00  0.00    +0.092 A 
ATOM     12  C16 UNL     1      19.267  12.115  33.317  0.00  0.00    +0.049 A 
ATOM     13  C17 UNL     1      18.678  11.462  34.400  0.00  0.00    +0.116 A 
ATOM     14  N3  UNL     1      17.828  12.134  35.217  0.00  0.00    -0.223 NA
ATOM     15  C18 UNL     1      17.534  13.443  34.998  0.00  0.00    +0.216 A 
ATOM     16  N4  UNL     1      16.633  14.147  35.863  0.00  0.00    -0.311 N 
ATOM     17  N5  UNL     1      18.104  14.096  33.950  0.00  0.00    -0.213 NA
ATOM     18  H18 UNL     1      16.503  15.175  35.722  0.00  0.00    +0.149 HD
BRANCH  16  19
ATOM     19  C19 UNL     1      15.913  13.498  36.959  0.00  0.00    +0.136 C 
BRANCH  19  20
ATOM     20  C20 UNL     1      14.412  13.821  36.903  0.00  0.00    +0.135 C 
ATOM     21  C21 UNL     1      13.570  12.601  36.561  0.00  0.00    +0.035 C 
ATOM     22  C22 UNL     1      12.405  13.205  35.843  0.00  0.00    +0.031 C 
ATOM     23  C23 UNL     1      12.985  14.477  35.255  0.00  0.00    +0.160 C 
ATOM     24  O2  UNL     1      14.177  14.814  35.931  0.00  0.00    -0.375 OA
ENDBRANCH  19  20
ENDBRANCH  16  19
ENDBRANCH   6  11
BRANCH   1  28
ATOM     25  C6  UNL     1      23.504  15.946  24.481  0.00  0.00    +0.037 A 
ATOM     26  C7  UNL     1      23.803  14.955  25.429  0.00  0.00    +0.014 A 
ATOM     27  C8  UNL     1      23.150  14.936  26.664  0.00  0.00    +0.011 A 
ATOM     28  C9  UNL     1      22.172  15.900  26.973  0.00  0.00    +0.000 A 
ATOM     29  C26 UNL     1      21.871  16.886  26.016  0.00  0.00    +0.011 A 
ATOM     30  C27 UNL     1      22.524  16.904  24.780  0.00  0.00    +0.014 A 
BRANCH  25  32
ATOM     31  N1  UNL     1      23.476  15.682  21.949  0.00  0.00    -0.298 N 
ATOM     32  C5  UNL     1      24.188  15.964  23.170  0.00  0.00    +0.247 C 
ATOM     33  O1  UNL     1      25.417  16.242  23.118  0.00  0.00    -0.270 OA
BRANCH  31  35
ATOM     34  C1  UNL     1      23.493  13.224  22.091  0.00  0.00    +0.024 C 
ATOM     35  C2  UNL     1      22.650  14.469  21.840  0.00  0.00    +0.104 C 
ENDBRANCH  31  35
BRANCH  31  36
ATOM     36  C3  UNL     1      23.678  16.550  20.782  0.00  0.00    +0.104 C 
ATOM     37  C4  UNL     1      24.596  15.873  19.772  0.00  0.00    +0.024 C 
ENDBRANCH  31  36
ENDBRANCH  25  32
ENDBRANCH   1  28
TORSDOF 7
ENDMDL
MODEL 7
REMARK VINA RESULT:    -6.975      2.993     12.324
REMARK INTER + INTRA:         -10.812
REMARK INTER:                  -9.651
REMARK INTRA:                  -1.161
REMARK UNBOUND:                -0.983
REMARK  Name = /home/qwerty/github/datacon2025hack/step_04_hit_selection/docking/ligands/lig_757.pdb
REMARK  9 active torsions:
REMARK  status: ('A' for Active; 'I' for Inactive)
REMARK    1  A    between atoms: C1_1  and  C2_2
REMARK    2  A    between atoms: C2_2  and  N1_3
REMARK    3  A    between atoms: N1_3  and  C3_4
REMARK    4  A    between atoms: C3_4  and  C4_5
REMARK    5  A    between atoms: C5_6  and  C6_8
REMARK    6  A    between atoms: C9_11  and  C10_12
REMARK    7  A    between atoms: C14_17  and  C15_18
REMARK    8  A    between atoms: N4_23  and  C19_24
REMARK    9  A    between atoms: C19_24  and  C20_25
REMARK                            x       y       z     vdW  Elec       q    Type
REMARK                         _______ _______ _______ _____ _____    ______ ____
ROOT
ATOM      1  C10 UNL     1      20.890   4.524  23.274  0.00  0.00    +0.072 A 
ATOM      2  C11 UNL     1      19.533   4.115  23.127  0.00  0.00    +0.030 A 
ATOM      3  C12 UNL     1      18.919   3.337  24.125  0.00  0.00    +0.030 A 
ATOM      4  C13 UNL     1      19.682   3.004  25.238  0.00  0.00    +0.065 A 
ATOM      5  N2  UNL     1      19.319   2.277  26.307  0.00  0.00    -0.352 N 
ATOM      6  C14 UNL     1      20.415   2.242  27.113  0.00  0.00    +0.068 A 
ATOM      7  C24 UNL     1      21.472   2.957  26.545  0.00  0.00    +0.057 A 
ATOM      8  C25 UNL     1      20.971   3.425  25.354  0.00  0.00    +0.090 A 
ATOM      9  N6  UNL     1      21.582   4.171  24.403  0.00  0.00    -0.245 NA
ATOM     10  H15 UNL     1      18.383   1.846  26.469  0.00  0.00    +0.166 HD
ENDROOT
BRANCH   6  11
ATOM     11  C15 UNL     1      20.487   1.544  28.415  0.00  0.00    +0.092 A 
ATOM     12  C16 UNL     1      21.660   0.911  28.854  0.00  0.00    +0.049 A 
ATOM     13  C17 UNL     1      21.654   0.281  30.099  0.00  0.00    +0.116 A 
ATOM     14  N3  UNL     1      20.530   0.287  30.858  0.00  0.00    -0.223 NA
ATOM     15  C18 UNL     1      19.395   0.899  30.424  0.00  0.00    +0.216 A 
ATOM     16  N4  UNL     1      18.209   0.900  31.229  0.00  0.00    -0.311 N 
ATOM     17  N5  UNL     1      19.386   1.522  29.216  0.00  0.00    -0.213 NA
ATOM     18  H18 UNL     1      17.386   1.459  30.908  0.00  0.00    +0.149 HD
BRANCH  16  19
ATOM     19  C19 UNL     1      18.109   0.180  32.500  0.00  0.00    +0.136 C 
BRANCH  19  20
ATOM     20  C20 UNL     1      17.702   1.125  33.640  0.00  0.00    +0.135 C 
ATOM     21  C21 UNL     1      18.872   1.949  34.155  0.00  0.00    +0.035 C 
ATOM     22  C22 UNL     1      18.511   2.160  35.591  0.00  0.00    +0.031 C 
ATOM     23  C23 UNL     1      17.647   0.955  35.909  0.00  0.00    +0.160 C 
ATOM     24  O2  UNL     1      17.174   0.378  34.711  0.00  0.00    -0.375 OA
ENDBRANCH  19  20
ENDBRANCH  16  19
ENDBRANCH   6  11
BRANCH   1  28
ATOM     25  C6  UNL     1      22.936   6.861  20.286  0.00  0.00    +0.037 A 
ATOM     26  C7  UNL     1      21.997   5.892  19.901  0.00  0.00    +0.014 A 
ATOM     27  C8  UNL     1      21.328   5.132  20.864  0.00  0.00    +0.011 A 
ATOM     28  C9  UNL     1      21.572   5.336  22.235  0.00  0.00    +0.000 A 
ATOM     29  C26 UNL     1      22.509   6.315  22.615  0.00  0.00    +0.011 A 
ATOM     30  C27 UNL     1      23.177   7.076  21.651  0.00  0.00    +0.014 A 
BRANCH  25  32
ATOM     31  N1  UNL     1      23.392   9.085  19.133  0.00  0.00    -0.298 N 
ATOM     32  C5  UNL     1      23.640   7.672  19.268  0.00  0.00    +0.247 C 
ATOM     33  O1  UNL     1      24.482   7.117  18.510  0.00  0.00    -0.270 OA
BRANCH  31  35
ATOM     34  C1  UNL     1      22.001  11.107  18.946  0.00  0.00    +0.024 C 
ATOM     35  C2  UNL     1      22.014   9.584  19.013  0.00  0.00    +0.104 C 
ENDBRANCH  31  35
BRANCH  31  36
ATOM     36  C3  UNL     1      24.529  10.004  18.997  0.00  0.00    +0.104 C 
ATOM     37  C4  UNL     1      25.381   9.983  20.261  0.00  0.00    +0.024 C 
ENDBRANCH  31  36
ENDBRANCH  25  32
ENDBRANCH   1  28
TORSDOF 7
ENDMDL
MODEL 8
REMARK VINA RESULT:    -6.945      6.166     13.051
REMARK INTER + INTRA:         -10.769
REMARK INTER:                  -9.455
REMARK INTRA:                  -1.314
REMARK UNBOUND:                -0.983
REMARK  Name = /home/qwerty/github/datacon2025hack/step_04_hit_selection/docking/ligands/lig_757.pdb
REMARK  9 active torsions:
REMARK  status: ('A' for Active; 'I' for Inactive)
REMARK    1  A    between atoms: C1_1  and  C2_2
REMARK    2  A    between atoms: C2_2  and  N1_3
REMARK    3  A    between atoms: N1_3  and  C3_4
REMARK    4  A    between atoms: C3_4  and  C4_5
REMARK    5  A    between atoms: C5_6  and  C6_8
REMARK    6  A    between atoms: C9_11  and  C10_12
REMARK    7  A    between atoms: C14_17  and  C15_18
REMARK    8  A    between atoms: N4_23  and  C19_24
REMARK    9  A    between atoms: C19_24  and  C20_25
REMARK                            x       y       z     vdW  Elec       q    Type
REMARK                         _______ _______ _______ _____ _____    ______ ____
ROOT
ATOM      1  C10 UNL     1      18.617   9.080  19.501  0.00  0.00    +0.072 A 
ATOM      2  C11 UNL     1      19.264   8.204  18.583  0.00  0.00    +0.030 A 
ATOM      3  C12 UNL     1      18.798   6.888  18.415  0.00  0.00    +0.030 A 
ATOM      4  C13 UNL     1      17.697   6.498  19.166  0.00  0.00    +0.065 A 
ATOM      5  N2  UNL     1      17.079   5.305  19.178  0.00  0.00    -0.352 N 
ATOM      6  C14 UNL     1      16.061   5.431  20.072  0.00  0.00    +0.068 A 
ATOM      7  C24 UNL     1      16.038   6.716  20.620  0.00  0.00    +0.057 A 
ATOM      8  C25 UNL     1      17.092   7.364  20.024  0.00  0.00    +0.090 A 
ATOM      9  N6  UNL     1      17.527   8.634  20.203  0.00  0.00    -0.245 NA
ATOM     10  H15 UNL     1      17.339   4.472  18.607  0.00  0.00    +0.166 HD
ENDROOT
BRANCH   6  11
ATOM     11  C15 UNL     1      15.103   4.359  20.422  0.00  0.00    +0.092 A 
ATOM     12  C16 UNL     1      13.798   4.331  19.905  0.00  0.00    +0.049 A 
ATOM     13  C17 UNL     1      12.955   3.283  20.273  0.00  0.00    +0.116 A 
ATOM     14  N3  UNL     1      13.400   2.318  21.116  0.00  0.00    -0.223 NA
ATOM     15  C18 UNL     1      14.664   2.353  21.616  0.00  0.00    +0.216 A 
ATOM     16  N4  UNL     1      15.128   1.332  22.508  0.00  0.00    -0.311 N 
ATOM     17  N5  UNL     1      15.501   3.365  21.263  0.00  0.00    -0.213 NA
ATOM     18  H18 UNL     1      16.133   1.338  22.799  0.00  0.00    +0.149 HD
BRANCH  16  19
ATOM     19  C19 UNL     1      14.267   0.257  23.005  0.00  0.00    +0.136 C 
BRANCH  19  20
ATOM     20  C20 UNL     1      15.002  -1.091  22.992  0.00  0.00    +0.135 C 
ATOM     21  C21 UNL     1      15.245  -1.632  24.393  0.00  0.00    +0.035 C 
ATOM     22  C22 UNL     1      16.510  -2.411  24.223  0.00  0.00    +0.031 C 
ATOM     23  C23 UNL     1      17.191  -1.714  23.060  0.00  0.00    +0.160 C 
ATOM     24  O2  UNL     1      16.246  -0.948  22.345  0.00  0.00    -0.375 OA
ENDBRANCH  19  20
ENDBRANCH  16  19
ENDBRANCH   6  11
BRANCH   1  28
ATOM     25  C6  UNL     1      20.016  13.100  20.176  0.00  0.00    +0.037 A 
ATOM     26  C7  UNL     1      20.383  12.413  19.008  0.00  0.00    +0.014 A 
ATOM     27  C8  UNL     1      19.931  11.110  18.782  0.00  0.00    +0.011 A 
ATOM     28  C9  UNL     1      19.089  10.472  19.711  0.00  0.00    +0.000 A 
ATOM     29  C26 UNL     1      18.718  11.169  20.876  0.00  0.00    +0.011 A 
ATOM     30  C27 UNL     1      19.169  12.472  21.101  0.00  0.00    +0.014 A 
BRANCH  25  32
ATOM     31  N1  UNL     1      21.855  14.758  20.770  0.00  0.00    -0.298 N 
ATOM     32  C5  UNL     1      20.486  14.482  20.414  0.00  0.00    +0.247 C 
ATOM     33  O1  UNL     1      19.674  15.441  20.294  0.00  0.00    -0.270 OA
BRANCH  31  35
ATOM     34  C1  UNL     1      23.399  12.929  21.345  0.00  0.00    +0.024 C 
ATOM     35  C2  UNL     1      22.490  14.030  21.879  0.00  0.00    +0.104 C 
ENDBRANCH  31  35
BRANCH  31  36
ATOM     36  C3  UNL     1      22.567  15.850  20.095  0.00  0.00    +0.104 C 
ATOM     37  C4  UNL     1      22.828  15.491  18.637  0.00  0.00    +0.024 C 
ENDBRANCH  31  36
ENDBRANCH  25  32
ENDBRANCH   1  28
TORSDOF 7
ENDMDL
MODEL 9
REMARK VINA RESULT:    -6.913      7.650     13.935
REMARK INTER + INTRA:         -10.725
REMARK INTER:                  -9.420
REMARK INTRA:                  -1.305
REMARK UNBOUND:                -0.983
REMARK  Name = /home/qwerty/github/datacon2025hack/step_04_hit_selection/docking/ligands/lig_757.pdb
REMARK  9 active torsions:
REMARK  status: ('A' for Active; 'I' for Inactive)
REMARK    1  A    between atoms: C1_1  and  C2_2
REMARK    2  A    between atoms: C2_2  and  N1_3
REMARK    3  A    between atoms: N1_3  and  C3_4
REMARK    4  A    between atoms: C3_4  and  C4_5
REMARK    5  A    between atoms: C5_6  and  C6_8
REMARK    6  A    between atoms: C9_11  and  C10_12
REMARK    7  A    between atoms: C14_17  and  C15_18
REMARK    8  A    between atoms: N4_23  and  C19_24
REMARK    9  A    between atoms: C19_24  and  C20_25
REMARK                            x       y       z     vdW  Elec       q    Type
REMARK                         _______ _______ _______ _____ _____    ______ ____
ROOT
ATOM      1  C10 UNL     1      22.632  13.726  26.379  0.00  0.00    +0.072 A 
ATOM      2  C11 UNL     1      23.750  13.816  27.258  0.00  0.00    +0.030 A 
ATOM      3  C12 UNL     1      23.555  13.810  28.651  0.00  0.00    +0.030 A 
ATOM      4  C13 UNL     1      22.249  13.706  29.114  0.00  0.00    +0.065 A 
ATOM      5  N2  UNL     1      21.818  13.683  30.386  0.00  0.00    -0.352 N 
ATOM      6  C14 UNL     1      20.464  13.567  30.309  0.00  0.00    +0.068 A 
ATOM      7  C24 UNL     1      20.045  13.513  28.978  0.00  0.00    +0.057 A 
ATOM      8  C25 UNL     1      21.204  13.607  28.248  0.00  0.00    +0.090 A 
ATOM      9  N6  UNL     1      21.370  13.614  26.903  0.00  0.00    -0.245 NA
ATOM     10  H15 UNL     1      22.415  13.735  31.239  0.00  0.00    +0.166 HD
ENDROOT
BRANCH   6  11
ATOM     11  C15 UNL     1      19.552  13.505  31.473  0.00  0.00    +0.092 A 
ATOM     12  C16 UNL     1      18.227  13.962  31.402  0.00  0.00    +0.049 A 
ATOM     13  C17 UNL     1      17.424  13.863  32.538  0.00  0.00    +0.116 A 
ATOM     14  N3  UNL     1      17.927  13.335  33.682  0.00  0.00    -0.223 NA
ATOM     15  C18 UNL     1      19.214  12.898  33.744  0.00  0.00    +0.216 A 
ATOM     16  N4  UNL     1      19.741  12.343  34.956  0.00  0.00    -0.311 N 
ATOM     17  N5  UNL     1      20.008  12.982  32.644  0.00  0.00    -0.213 NA
ATOM     18  H18 UNL     1      20.703  11.931  34.941  0.00  0.00    +0.149 HD
BRANCH  16  19
ATOM     19  C19 UNL     1      18.982  12.295  36.206  0.00  0.00    +0.136 C 
BRANCH  19  20
ATOM     20  C20 UNL     1      18.427  10.886  36.462  0.00  0.00    +0.135 C 
ATOM     21  C21 UNL     1      16.918  10.883  36.648  0.00  0.00    +0.035 C 
ATOM     22  C22 UNL     1      16.708   9.726  37.572  0.00  0.00    +0.031 C 
ATOM     23  C23 UNL     1      18.020   9.649  38.330  0.00  0.00    +0.160 C 
ATOM     24  O2  UNL     1      19.022  10.345  37.619  0.00  0.00    -0.375 OA
ENDBRANCH  19  20
ENDBRANCH  16  19
ENDBRANCH   6  11
BRANCH   1  28
ATOM     25  C6  UNL     1      23.183  13.727  22.104  0.00  0.00    +0.037 A 
ATOM     26  C7  UNL     1      21.975  13.277  22.659  0.00  0.00    +0.014 A 
ATOM     27  C8  UNL     1      21.788  13.276  24.044  0.00  0.00    +0.011 A 
ATOM     28  C9  UNL     1      22.801  13.740  24.904  0.00  0.00    +0.000 A 
ATOM     29  C26 UNL     1      24.007  14.198  24.342  0.00  0.00    +0.011 A 
ATOM     30  C27 UNL     1      24.192  14.199  22.956  0.00  0.00    +0.014 A 
BRANCH  25  32
ATOM     31  N1  UNL     1      23.232  12.536  19.854  0.00  0.00    -0.298 N 
ATOM     32  C5  UNL     1      23.380  13.736  20.639  0.00  0.00    +0.247 C 
ATOM     33  O1  UNL     1      23.675  14.819  20.061  0.00  0.00    -0.270 OA
BRANCH  31  35
ATOM     34  C1  UNL     1      22.947  10.226  20.654  0.00  0.00    +0.024 C 
ATOM     35  C2  UNL     1      23.940  11.307  20.244  0.00  0.00    +0.104 C 
ENDBRANCH  31  35
BRANCH  31  36
ATOM     36  C3  UNL     1      22.465  12.586  18.603  0.00  0.00    +0.104 C 
ATOM     37  C4  UNL     1      20.993  12.852  18.894  0.00  0.00    +0.024 C 
ENDBRANCH  31  36
ENDBRANCH  25  32
ENDBRANCH   1  28
TORSDOF 7
ENDMDL
