MODEL 1
REMARK VINA RESULT:    -6.210      0.000      0.000
REMARK INTER + INTRA:          -7.585
REMARK INTER:                  -6.936
REMARK INTRA:                  -0.648
REMARK UNBOUND:                -0.648
REMARK  Name = /home/qwerty/github/datacon2025hack/step_04_hit_selection/docking/ligands/lig_76.pdb
REMARK  3 active torsions:
REMARK  status: ('A' for Active; 'I' for Inactive)
REMARK    1  A    between atoms: C1_1  and  C2_2
REMARK    2  A    between atoms: C5_5  and  N1_6
REMARK    3  A    between atoms: N3_16  and  C13_17
REMARK                            x       y       z     vdW  Elec       q    Type
REMARK                         _______ _______ _______ _____ _____    ______ ____
ROOT
ATOM      1  N1  UNL     1      19.921   3.697  25.624  0.00  0.00    -0.269 N 
ATOM      2  C6  UNL     1      19.637   3.346  24.258  0.00  0.00    +0.306 C 
ATOM      3  O1  UNL     1      20.415   2.571  23.640  0.00  0.00    -0.252 OA
ATOM      4  N2  UNL     1      18.487   3.901  23.582  0.00  0.00    -0.285 N 
ATOM      5  C7  UNL     1      18.348   3.798  22.122  0.00  0.00    +0.112 C 
ATOM      6  C8  UNL     1      16.973   3.224  21.720  0.00  0.00    +0.055 C 
ATOM      7  C9  UNL     1      15.827   3.478  22.757  0.00  0.00    +0.089 C 
ATOM      8  C10 UNL     1      16.154   4.763  23.556  0.00  0.00    +0.055 C 
ATOM      9  C11 UNL     1      17.470   4.642  24.342  0.00  0.00    +0.112 C 
ATOM     10  C12 UNL     1      15.682   2.286  23.746  0.00  0.00    +0.149 C 
ATOM     11  N3  UNL     1      15.086   1.115  23.097  0.00  0.00    -0.264 N 
ATOM     12  C17 UNL     1      14.116   1.340  22.068  0.00  0.00    +0.246 C 
ATOM     13  O2  UNL     1      13.283   0.445  21.759  0.00  0.00    -0.273 OA
ATOM     14  C18 UNL     1      14.132   2.632  21.314  0.00  0.00    +0.256 C 
ATOM     15  O3  UNL     1      14.581   3.719  22.108  0.00  0.00    -0.362 OA
ATOM     16  H6  UNL     1      19.592   4.628  25.967  0.00  0.00    +0.156 HD
ENDROOT
BRANCH   1  21
ATOM     17  C1  UNL     1      23.141   0.488  29.155  0.00  0.00    +0.044 C 
ATOM     18  C2  UNL     1      22.299   1.330  28.243  0.00  0.00    -0.050 A 
ATOM     19  C3  UNL     1      20.972   0.975  27.962  0.00  0.00    +0.005 A 
ATOM     20  C4  UNL     1      20.199   1.762  27.103  0.00  0.00    +0.023 A 
ATOM     21  C5  UNL     1      20.739   2.914  26.511  0.00  0.00    +0.035 A 
ATOM     22  C19 UNL     1      22.085   3.242  26.759  0.00  0.00    +0.023 A 
ATOM     23  C20 UNL     1      22.854   2.459  27.624  0.00  0.00    +0.005 A 
ENDBRANCH   1  21
BRANCH  11  24
ATOM     24  C13 UNL     1      15.362  -0.210  23.588  0.00  0.00    +0.073 A 
ATOM     25  C14 UNL     1      16.339  -1.012  22.985  0.00  0.00    +0.137 A 
ATOM     26  N4  UNL     1      16.592  -2.255  23.465  0.00  0.00    -0.242 NA
ATOM     27  C15 UNL     1      15.910  -2.743  24.535  0.00  0.00    +0.221 A 
ATOM     28  N5  UNL     1      14.964  -1.984  25.145  0.00  0.00    -0.242 NA
ATOM     29  C16 UNL     1      14.680  -0.734  24.698  0.00  0.00    +0.137 A 
ENDBRANCH  11  24
TORSDOF 2
ENDMDL
MODEL 2
REMARK VINA RESULT:    -6.196      6.544      9.197
REMARK INTER + INTRA:          -7.569
REMARK INTER:                  -6.956
REMARK INTRA:                  -0.612
REMARK UNBOUND:                -0.648
REMARK  Name = /home/qwerty/github/datacon2025hack/step_04_hit_selection/docking/ligands/lig_76.pdb
REMARK  3 active torsions:
REMARK  status: ('A' for Active; 'I' for Inactive)
REMARK    1  A    between atoms: C1_1  and  C2_2
REMARK    2  A    between atoms: C5_5  and  N1_6
REMARK    3  A    between atoms: N3_16  and  C13_17
REMARK                            x       y       z     vdW  Elec       q    Type
REMARK                         _______ _______ _______ _____ _____    ______ ____
ROOT
ATOM      1  N1  UNL     1      16.631   6.767  19.326  0.00  0.00    -0.269 N 
ATOM      2  C6  UNL     1      16.126   6.145  20.521  0.00  0.00    +0.306 C 
ATOM      3  O1  UNL     1      16.606   6.468  21.641  0.00  0.00    -0.252 OA
ATOM      4  N2  UNL     1      15.098   5.133  20.443  0.00  0.00    -0.285 N 
ATOM      5  C7  UNL     1      14.788   4.282  21.602  0.00  0.00    +0.112 C 
ATOM      6  C8  UNL     1      13.277   4.277  21.915  0.00  0.00    +0.055 C 
ATOM      7  C9  UNL     1      12.351   4.563  20.684  0.00  0.00    +0.089 C 
ATOM      8  C10 UNL     1      13.083   4.119  19.395  0.00  0.00    +0.055 C 
ATOM      9  C11 UNL     1      14.395   4.891  19.175  0.00  0.00    +0.112 C 
ATOM     10  C12 UNL     1      12.001   6.074  20.578  0.00  0.00    +0.149 C 
ATOM     11  N3  UNL     1      11.055   6.485  21.620  0.00  0.00    -0.264 N 
ATOM     12  C17 UNL     1      10.078   5.533  22.051  0.00  0.00    +0.246 C 
ATOM     13  O2  UNL     1       9.012   5.909  22.611  0.00  0.00    -0.273 OA
ATOM     14  C18 UNL     1      10.354   4.072  21.887  0.00  0.00    +0.256 C 
ATOM     15  O3  UNL     1      11.151   3.795  20.746  0.00  0.00    -0.362 OA
ATOM     16  H6  UNL     1      16.594   6.218  18.438  0.00  0.00    +0.156 HD
ENDROOT
BRANCH   1  21
ATOM     17  C1  UNL     1      19.370  11.827  19.130  0.00  0.00    +0.044 C 
ATOM     18  C2  UNL     1      18.659  10.507  19.190  0.00  0.00    -0.050 A 
ATOM     19  C3  UNL     1      19.305   9.327  18.795  0.00  0.00    +0.005 A 
ATOM     20  C4  UNL     1      18.630   8.103  18.847  0.00  0.00    +0.023 A 
ATOM     21  C5  UNL     1      17.301   8.039  19.293  0.00  0.00    +0.035 A 
ATOM     22  C19 UNL     1      16.642   9.232  19.646  0.00  0.00    +0.023 A 
ATOM     23  C20 UNL     1      17.320  10.453  19.601  0.00  0.00    +0.005 A 
ENDBRANCH   1  21
BRANCH  11  24
ATOM     24  C13 UNL     1      11.023   7.850  22.078  0.00  0.00    +0.073 A 
ATOM     25  C14 UNL     1      10.425   8.854  21.306  0.00  0.00    +0.137 A 
ATOM     26  N4  UNL     1      10.397  10.134  21.756  0.00  0.00    -0.242 NA
ATOM     27  C15 UNL     1      10.941  10.465  22.956  0.00  0.00    +0.221 A 
ATOM     28  N5  UNL     1      11.520   9.510  23.729  0.00  0.00    -0.242 NA
ATOM     29  C16 UNL     1      11.569   8.217  23.318  0.00  0.00    +0.137 A 
ENDBRANCH  11  24
TORSDOF 2
ENDMDL
MODEL 3
REMARK VINA RESULT:    -6.170      2.969      5.120
REMARK INTER + INTRA:          -7.540
REMARK INTER:                  -7.004
REMARK INTRA:                  -0.537
REMARK UNBOUND:                -0.648
REMARK  Name = /home/qwerty/github/datacon2025hack/step_04_hit_selection/docking/ligands/lig_76.pdb
REMARK  3 active torsions:
REMARK  status: ('A' for Active; 'I' for Inactive)
REMARK    1  A    between atoms: C1_1  and  C2_2
REMARK    2  A    between atoms: C5_5  and  N1_6
REMARK    3  A    between atoms: N3_16  and  C13_17
REMARK                            x       y       z     vdW  Elec       q    Type
REMARK                         _______ _______ _______ _____ _____    ______ ____
ROOT
ATOM      1  N1  UNL     1      20.496   4.267  24.589  0.00  0.00    -0.269 N 
ATOM      2  C6  UNL     1      19.088   4.197  24.877  0.00  0.00    +0.306 C 
ATOM      3  O1  UNL     1      18.295   4.986  24.297  0.00  0.00    -0.252 OA
ATOM      4  N2  UNL     1      18.584   3.253  25.848  0.00  0.00    -0.285 N 
ATOM      5  C7  UNL     1      17.215   3.368  26.372  0.00  0.00    +0.112 C 
ATOM      6  C8  UNL     1      16.447   2.035  26.256  0.00  0.00    +0.055 C 
ATOM      7  C9  UNL     1      17.350   0.755  26.262  0.00  0.00    +0.089 C 
ATOM      8  C10 UNL     1      18.654   1.068  27.035  0.00  0.00    +0.055 C 
ATOM      9  C11 UNL     1      19.462   2.201  26.380  0.00  0.00    +0.112 C 
ATOM     10  C12 UNL     1      17.709   0.308  24.816  0.00  0.00    +0.149 C 
ATOM     11  N3  UNL     1      16.556  -0.283  24.131  0.00  0.00    -0.264 N 
ATOM     12  C17 UNL     1      15.616  -1.023  24.917  0.00  0.00    +0.246 C 
ATOM     13  O2  UNL     1      14.858  -1.878  24.383  0.00  0.00    -0.273 OA
ATOM     14  C18 UNL     1      15.494  -0.734  26.380  0.00  0.00    +0.256 C 
ATOM     15  O3  UNL     1      16.724  -0.321  26.956  0.00  0.00    -0.362 OA
ATOM     16  H6  UNL     1      21.162   3.982  25.342  0.00  0.00    +0.156 HD
ENDROOT
BRANCH   1  21
ATOM     17  C1  UNL     1      22.797   6.518  19.817  0.00  0.00    +0.044 C 
ATOM     18  C2  UNL     1      22.190   5.938  21.060  0.00  0.00    -0.050 A 
ATOM     19  C3  UNL     1      22.575   6.399  22.327  0.00  0.00    +0.005 A 
ATOM     20  C4  UNL     1      22.009   5.845  23.480  0.00  0.00    +0.023 A 
ATOM     21  C5  UNL     1      21.053   4.823  23.385  0.00  0.00    +0.035 A 
ATOM     22  C19 UNL     1      20.702   4.332  22.113  0.00  0.00    +0.023 A 
ATOM     23  C20 UNL     1      21.263   4.891  20.962  0.00  0.00    +0.005 A 
ENDBRANCH   1  21
BRANCH  11  24
ATOM     24  C13 UNL     1      16.463  -0.243  22.695  0.00  0.00    +0.073 A 
ATOM     25  C14 UNL     1      15.783   0.796  22.047  0.00  0.00    +0.137 A 
ATOM     26  N4  UNL     1      15.710   0.823  20.692  0.00  0.00    -0.242 NA
ATOM     27  C15 UNL     1      16.293  -0.149  19.942  0.00  0.00    +0.221 A 
ATOM     28  N5  UNL     1      16.966  -1.164  20.543  0.00  0.00    -0.242 NA
ATOM     29  C16 UNL     1      17.064  -1.228  21.896  0.00  0.00    +0.137 A 
ENDBRANCH  11  24
TORSDOF 2
ENDMDL
MODEL 4
REMARK VINA RESULT:    -6.118      9.006     12.157
REMARK INTER + INTRA:          -7.482
REMARK INTER:                  -6.983
REMARK INTRA:                  -0.499
REMARK UNBOUND:                -0.648
REMARK  Name = /home/qwerty/github/datacon2025hack/step_04_hit_selection/docking/ligands/lig_76.pdb
REMARK  3 active torsions:
REMARK  status: ('A' for Active; 'I' for Inactive)
REMARK    1  A    between atoms: C1_1  and  C2_2
REMARK    2  A    between atoms: C5_5  and  N1_6
REMARK    3  A    between atoms: N3_16  and  C13_17
REMARK                            x       y       z     vdW  Elec       q    Type
REMARK                         _______ _______ _______ _____ _____    ______ ____
ROOT
ATOM      1  N1  UNL     1       9.002   8.102  27.921  0.00  0.00    -0.269 N 
ATOM      2  C6  UNL     1       8.219   7.340  26.985  0.00  0.00    +0.306 C 
ATOM      3  O1  UNL     1       7.029   7.682  26.746  0.00  0.00    -0.252 OA
ATOM      4  N2  UNL     1       8.775   6.170  26.344  0.00  0.00    -0.285 N 
ATOM      5  C7  UNL     1       7.910   5.219  25.630  0.00  0.00    +0.112 C 
ATOM      6  C8  UNL     1       8.432   4.936  24.205  0.00  0.00    +0.055 C 
ATOM      7  C9  UNL     1       9.976   5.121  24.023  0.00  0.00    +0.089 C 
ATOM      8  C10 UNL     1      10.672   4.880  25.385  0.00  0.00    +0.055 C 
ATOM      9  C11 UNL     1      10.210   5.877  26.460  0.00  0.00    +0.112 C 
ATOM     10  C12 UNL     1      10.320   6.553  23.522  0.00  0.00    +0.149 C 
ATOM     11  N3  UNL     1       9.945   6.739  22.117  0.00  0.00    -0.264 N 
ATOM     12  C17 UNL     1      10.043   5.610  21.242  0.00  0.00    +0.246 C 
ATOM     13  O2  UNL     1      10.140   5.766  19.994  0.00  0.00    -0.273 OA
ATOM     14  C18 UNL     1       9.972   4.230  21.814  0.00  0.00    +0.256 C 
ATOM     15  O3  UNL     1      10.514   4.155  23.124  0.00  0.00    -0.362 OA
ATOM     16  H6  UNL     1       9.752   7.602  28.449  0.00  0.00    +0.156 HD
ENDROOT
BRANCH   1  21
ATOM     17  C1  UNL     1       7.963  13.605  29.251  0.00  0.00    +0.044 C 
ATOM     18  C2  UNL     1       8.242  12.171  28.910  0.00  0.00    -0.050 A 
ATOM     19  C3  UNL     1       9.008  11.839  27.784  0.00  0.00    +0.005 A 
ATOM     20  C4  UNL     1       9.254  10.499  27.470  0.00  0.00    +0.023 A 
ATOM     21  C5  UNL     1       8.740   9.471  28.275  0.00  0.00    +0.035 A 
ATOM     22  C19 UNL     1       7.934   9.807  29.379  0.00  0.00    +0.023 A 
ATOM     23  C20 UNL     1       7.694  11.147  29.696  0.00  0.00    +0.005 A 
ENDBRANCH   1  21
BRANCH  11  24
ATOM     24  C13 UNL     1       9.635   8.051  21.613  0.00  0.00    +0.073 A 
ATOM     25  C14 UNL     1       8.385   8.637  21.852  0.00  0.00    +0.137 A 
ATOM     26  N4  UNL     1       8.111   9.877  21.377  0.00  0.00    -0.242 NA
ATOM     27  C15 UNL     1       9.037  10.573  20.666  0.00  0.00    +0.221 A 
ATOM     28  N5  UNL     1      10.260  10.034  20.426  0.00  0.00    -0.242 NA
ATOM     29  C16 UNL     1      10.576   8.796  20.885  0.00  0.00    +0.137 A 
ENDBRANCH  11  24
TORSDOF 2
ENDMDL
MODEL 5
REMARK VINA RESULT:    -6.072      8.843     12.530
REMARK INTER + INTRA:          -7.430
REMARK INTER:                  -6.970
REMARK INTRA:                  -0.460
REMARK UNBOUND:                -0.648
REMARK  Name = /home/qwerty/github/datacon2025hack/step_04_hit_selection/docking/ligands/lig_76.pdb
REMARK  3 active torsions:
REMARK  status: ('A' for Active; 'I' for Inactive)
REMARK    1  A    between atoms: C1_1  and  C2_2
REMARK    2  A    between atoms: C5_5  and  N1_6
REMARK    3  A    between atoms: N3_16  and  C13_17
REMARK                            x       y       z     vdW  Elec       q    Type
REMARK                         _______ _______ _______ _____ _____    ______ ____
ROOT
ATOM      1  N1  UNL     1      18.523   1.946  33.480  0.00  0.00    -0.269 N 
ATOM      2  C6  UNL     1      18.379   3.337  33.138  0.00  0.00    +0.306 C 
ATOM      3  O1  UNL     1      17.467   4.020  33.677  0.00  0.00    -0.252 OA
ATOM      4  N2  UNL     1      19.250   3.945  32.158  0.00  0.00    -0.285 N 
ATOM      5  C7  UNL     1      18.933   5.259  31.579  0.00  0.00    +0.112 C 
ATOM      6  C8  UNL     1      20.130   6.228  31.678  0.00  0.00    +0.055 C 
ATOM      7  C9  UNL     1      21.534   5.534  31.722  0.00  0.00    +0.089 C 
ATOM      8  C10 UNL     1      21.439   4.169  30.998  0.00  0.00    +0.055 C 
ATOM      9  C11 UNL     1      20.433   3.221  31.671  0.00  0.00    +0.112 C 
ATOM     10  C12 UNL     1      22.007   5.303  33.185  0.00  0.00    +0.149 C 
ATOM     11  N3  UNL     1      22.402   6.558  33.831  0.00  0.00    -0.264 N 
ATOM     12  C17 UNL     1      23.000   7.572  33.016  0.00  0.00    +0.246 C 
ATOM     13  O2  UNL     1      23.719   8.472  33.529  0.00  0.00    -0.273 OA
ATOM     14  C18 UNL     1      22.720   7.592  31.547  0.00  0.00    +0.256 C 
ATOM     15  O3  UNL     1      22.512   6.293  31.015  0.00  0.00    -0.362 OA
ATOM     16  H6  UNL     1      18.919   1.305  32.757  0.00  0.00    +0.156 HD
ENDROOT
BRANCH   1  21
ATOM     17  C1  UNL     1      16.602  -0.337  38.403  0.00  0.00    +0.044 C 
ATOM     18  C2  UNL     1      17.111   0.252  37.120  0.00  0.00    -0.050 A 
ATOM     19  C3  UNL     1      17.992   1.342  37.132  0.00  0.00    +0.005 A 
ATOM     20  C4  UNL     1      18.453   1.888  35.930  0.00  0.00    +0.023 A 
ATOM     21  C5  UNL     1      18.039   1.356  34.699  0.00  0.00    +0.035 A 
ATOM     22  C19 UNL     1      17.119   0.292  34.691  0.00  0.00    +0.023 A 
ATOM     23  C20 UNL     1      16.665  -0.259  35.893  0.00  0.00    +0.005 A 
ENDBRANCH   1  21
BRANCH  11  24
ATOM     24  C13 UNL     1      22.324   6.698  35.262  0.00  0.00    +0.073 A 
ATOM     25  C14 UNL     1      21.135   7.103  35.881  0.00  0.00    +0.137 A 
ATOM     26  N4  UNL     1      21.076   7.223  37.231  0.00  0.00    -0.242 NA
ATOM     27  C15 UNL     1      22.161   6.951  38.005  0.00  0.00    +0.221 A 
ATOM     28  N5  UNL     1      23.324   6.548  37.432  0.00  0.00    -0.242 NA
ATOM     29  C16 UNL     1      23.425   6.414  36.084  0.00  0.00    +0.137 A 
ENDBRANCH  11  24
TORSDOF 2
ENDMDL
MODEL 6
REMARK VINA RESULT:    -6.039      5.186      7.571
REMARK INTER + INTRA:          -7.393
REMARK INTER:                  -6.772
REMARK INTRA:                  -0.621
REMARK UNBOUND:                -0.648
REMARK  Name = /home/qwerty/github/datacon2025hack/step_04_hit_selection/docking/ligands/lig_76.pdb
REMARK  3 active torsions:
REMARK  status: ('A' for Active; 'I' for Inactive)
REMARK    1  A    between atoms: C1_1  and  C2_2
REMARK    2  A    between atoms: C5_5  and  N1_6
REMARK    3  A    between atoms: N3_16  and  C13_17
REMARK                            x       y       z     vdW  Elec       q    Type
REMARK                         _______ _______ _______ _____ _____    ______ ____
ROOT
ATOM      1  N1  UNL     1      12.407  -0.082  24.986  0.00  0.00    -0.269 N 
ATOM      2  C6  UNL     1      12.292   1.308  25.340  0.00  0.00    +0.306 C 
ATOM      3  O1  UNL     1      13.270   1.896  25.876  0.00  0.00    -0.252 OA
ATOM      4  N2  UNL     1      11.057   2.024  25.115  0.00  0.00    -0.285 N 
ATOM      5  C7  UNL     1      10.821   3.336  25.734  0.00  0.00    +0.112 C 
ATOM      6  C8  UNL     1      10.376   4.385  24.694  0.00  0.00    +0.055 C 
ATOM      7  C9  UNL     1       9.650   3.796  23.437  0.00  0.00    +0.089 C 
ATOM      8  C10 UNL     1       8.971   2.462  23.834  0.00  0.00    +0.055 C 
ATOM      9  C11 UNL     1       9.985   1.412  24.316  0.00  0.00    +0.112 C 
ATOM     10  C12 UNL     1      10.651   3.533  22.276  0.00  0.00    +0.149 C 
ATOM     11  N3  UNL     1      11.102   4.783  21.658  0.00  0.00    -0.264 N 
ATOM     12  C17 UNL     1      10.178   5.874  21.600  0.00  0.00    +0.246 C 
ATOM     13  O2  UNL     1      10.325   6.801  20.757  0.00  0.00    -0.273 OA
ATOM     14  C18 UNL     1       9.059   5.941  22.590  0.00  0.00    +0.256 C 
ATOM     15  O3  UNL     1       8.607   4.656  22.988  0.00  0.00    -0.362 OA
ATOM     16  H6  UNL     1      11.536  -0.658  24.988  0.00  0.00    +0.156 HD
ENDROOT
BRANCH   1  21
ATOM     17  C1  UNL     1      17.362  -2.877  24.112  0.00  0.00    +0.044 C 
ATOM     18  C2  UNL     1      16.075  -2.142  24.345  0.00  0.00    -0.050 A 
ATOM     19  C3  UNL     1      15.230  -2.496  25.406  0.00  0.00    +0.005 A 
ATOM     20  C4  UNL     1      14.029  -1.810  25.610  0.00  0.00    +0.023 A 
ATOM     21  C5  UNL     1      13.653  -0.762  24.757  0.00  0.00    +0.035 A 
ATOM     22  C19 UNL     1      14.482  -0.439  23.666  0.00  0.00    +0.023 A 
ATOM     23  C20 UNL     1      15.686  -1.120  23.468  0.00  0.00    +0.005 A 
ENDBRANCH   1  21
BRANCH  11  24
ATOM     24  C13 UNL     1      12.382   4.850  21.001  0.00  0.00    +0.073 A 
ATOM     25  C14 UNL     1      13.498   5.388  21.654  0.00  0.00    +0.137 A 
ATOM     26  N4  UNL     1      14.698   5.438  21.024  0.00  0.00    -0.242 NA
ATOM     27  C15 UNL     1      14.842   4.967  19.757  0.00  0.00    +0.221 A 
ATOM     28  N5  UNL     1      13.779   4.432  19.103  0.00  0.00    -0.242 NA
ATOM     29  C16 UNL     1      12.561   4.361  19.698  0.00  0.00    +0.137 A 
ENDBRANCH  11  24
TORSDOF 2
ENDMDL
MODEL 7
REMARK VINA RESULT:    -5.959      3.979      8.320
REMARK INTER + INTRA:          -7.304
REMARK INTER:                  -6.710
REMARK INTRA:                  -0.595
REMARK UNBOUND:                -0.648
REMARK  Name = /home/qwerty/github/datacon2025hack/step_04_hit_selection/docking/ligands/lig_76.pdb
REMARK  3 active torsions:
REMARK  status: ('A' for Active; 'I' for Inactive)
REMARK    1  A    between atoms: C1_1  and  C2_2
REMARK    2  A    between atoms: C5_5  and  N1_6
REMARK    3  A    between atoms: N3_16  and  C13_17
REMARK                            x       y       z     vdW  Elec       q    Type
REMARK                         _______ _______ _______ _____ _____    ______ ____
ROOT
ATOM      1  N1  UNL     1      12.568   3.295  20.358  0.00  0.00    -0.269 N 
ATOM      2  C6  UNL     1      13.809   3.540  21.044  0.00  0.00    +0.306 C 
ATOM      3  O1  UNL     1      13.957   4.606  21.701  0.00  0.00    -0.252 OA
ATOM      4  N2  UNL     1      14.896   2.591  20.958  0.00  0.00    -0.285 N 
ATOM      5  C7  UNL     1      16.252   2.956  21.392  0.00  0.00    +0.112 C 
ATOM      6  C8  UNL     1      16.835   1.917  22.373  0.00  0.00    +0.055 C 
ATOM      7  C9  UNL     1      16.256   0.470  22.216  0.00  0.00    +0.089 C 
ATOM      8  C10 UNL     1      15.784   0.277  20.755  0.00  0.00    +0.055 C 
ATOM      9  C11 UNL     1      14.671   1.264  20.366  0.00  0.00    +0.112 C 
ATOM     10  C12 UNL     1      15.054   0.234  23.176  0.00  0.00    +0.149 C 
ATOM     11  N3  UNL     1      15.492   0.107  24.569  0.00  0.00    -0.264 N 
ATOM     12  C17 UNL     1      16.764  -0.499  24.820  0.00  0.00    +0.246 C 
ATOM     13  O2  UNL     1      17.027  -1.007  25.944  0.00  0.00    -0.273 OA
ATOM     14  C18 UNL     1      17.811  -0.477  23.752  0.00  0.00    +0.256 C 
ATOM     15  O3  UNL     1      17.256  -0.519  22.446  0.00  0.00    -0.362 OA
ATOM     16  H6  UNL     1      12.597   2.707  19.495  0.00  0.00    +0.156 HD
ENDROOT
BRANCH   1  21
ATOM     17  C1  UNL     1       7.553   5.802  21.661  0.00  0.00    +0.044 C 
ATOM     18  C2  UNL     1       8.864   5.153  21.329  0.00  0.00    -0.050 A 
ATOM     19  C3  UNL     1       9.785   5.788  20.485  0.00  0.00    +0.005 A 
ATOM     20  C4  UNL     1      11.000   5.170  20.175  0.00  0.00    +0.023 A 
ATOM     21  C5  UNL     1      11.314   3.909  20.703  0.00  0.00    +0.035 A 
ATOM     22  C19 UNL     1      10.369   3.254  21.514  0.00  0.00    +0.023 A 
ATOM     23  C20 UNL     1       9.158   3.876  21.829  0.00  0.00    +0.005 A 
ENDBRANCH   1  21
BRANCH  11  24
ATOM     24  C13 UNL     1      14.599   0.447  25.646  0.00  0.00    +0.073 A 
ATOM     25  C14 UNL     1      14.697   1.683  26.299  0.00  0.00    +0.137 A 
ATOM     26  N4  UNL     1      13.843   1.991  27.307  0.00  0.00    -0.242 NA
ATOM     27  C15 UNL     1      12.882   1.115  27.701  0.00  0.00    +0.221 A 
ATOM     28  N5  UNL     1      12.758  -0.087  27.080  0.00  0.00    -0.242 NA
ATOM     29  C16 UNL     1      13.590  -0.434  26.065  0.00  0.00    +0.137 A 
ENDBRANCH  11  24
TORSDOF 2
ENDMDL
MODEL 8
REMARK VINA RESULT:    -5.957      8.936     12.495
REMARK INTER + INTRA:          -7.302
REMARK INTER:                  -6.675
REMARK INTRA:                  -0.626
REMARK UNBOUND:                -0.648
REMARK  Name = /home/qwerty/github/datacon2025hack/step_04_hit_selection/docking/ligands/lig_76.pdb
REMARK  3 active torsions:
REMARK  status: ('A' for Active; 'I' for Inactive)
REMARK    1  A    between atoms: C1_1  and  C2_2
REMARK    2  A    between atoms: C5_5  and  N1_6
REMARK    3  A    between atoms: N3_16  and  C13_17
REMARK                            x       y       z     vdW  Elec       q    Type
REMARK                         _______ _______ _______ _____ _____    ______ ____
ROOT
ATOM      1  N1  UNL     1      18.910   2.297  32.439  0.00  0.00    -0.269 N 
ATOM      2  C6  UNL     1      19.019   2.467  33.864  0.00  0.00    +0.306 C 
ATOM      3  O1  UNL     1      19.930   1.865  34.494  0.00  0.00    -0.252 OA
ATOM      4  N2  UNL     1      18.074   3.293  34.579  0.00  0.00    -0.285 N 
ATOM      5  C7  UNL     1      17.983   3.239  36.046  0.00  0.00    +0.112 C 
ATOM      6  C8  UNL     1      18.065   4.646  36.673  0.00  0.00    +0.055 C 
ATOM      7  C9  UNL     1      17.576   5.809  35.744  0.00  0.00    +0.089 C 
ATOM      8  C10 UNL     1      16.540   5.244  34.742  0.00  0.00    +0.055 C 
ATOM      9  C11 UNL     1      17.136   4.151  33.840  0.00  0.00    +0.112 C 
ATOM     10  C12 UNL     1      18.759   6.438  34.954  0.00  0.00    +0.149 C 
ATOM     11  N3  UNL     1      19.619   7.246  35.822  0.00  0.00    -0.264 N 
ATOM     12  C17 UNL     1      19.007   7.946  36.910  0.00  0.00    +0.246 C 
ATOM     13  O2  UNL     1      19.568   8.948  37.431  0.00  0.00    -0.273 OA
ATOM     14  C18 UNL     1      17.714   7.444  37.470  0.00  0.00    +0.256 C 
ATOM     15  O3  UNL     1      16.902   6.821  36.487  0.00  0.00    -0.362 OA
ATOM     16  H6  UNL     1      17.963   2.389  32.009  0.00  0.00    +0.156 HD
ENDROOT
BRANCH   1  21
ATOM     17  C1  UNL     1      23.292   0.697  29.067  0.00  0.00    +0.044 C 
ATOM     18  C2  UNL     1      22.146   1.118  29.938  0.00  0.00    -0.050 A 
ATOM     19  C3  UNL     1      22.153   2.364  30.579  0.00  0.00    +0.005 A 
ATOM     20  C4  UNL     1      21.084   2.743  31.396  0.00  0.00    +0.023 A 
ATOM     21  C5  UNL     1      19.991   1.883  31.585  0.00  0.00    +0.035 A 
ATOM     22  C19 UNL     1      20.007   0.615  30.977  0.00  0.00    +0.023 A 
ATOM     23  C20 UNL     1      21.074   0.240  30.154  0.00  0.00    +0.005 A 
ENDBRANCH   1  21
BRANCH  11  24
ATOM     24  C13 UNL     1      21.008   7.443  35.492  0.00  0.00    +0.073 A 
ATOM     25  C14 UNL     1      22.016   6.777  36.200  0.00  0.00    +0.137 A 
ATOM     26  N4  UNL     1      23.319   6.968  35.873  0.00  0.00    -0.242 NA
ATOM     27  C15 UNL     1      23.669   7.800  34.857  0.00  0.00    +0.221 A 
ATOM     28  N5  UNL     1      22.712   8.452  34.148  0.00  0.00    -0.242 NA
ATOM     29  C16 UNL     1      21.396   8.289  34.441  0.00  0.00    +0.137 A 
ENDBRANCH  11  24
TORSDOF 2
ENDMDL
MODEL 9
REMARK VINA RESULT:    -5.935     11.129     14.596
REMARK INTER + INTRA:          -7.277
REMARK INTER:                  -6.657
REMARK INTRA:                  -0.621
REMARK UNBOUND:                -0.648
REMARK  Name = /home/qwerty/github/datacon2025hack/step_04_hit_selection/docking/ligands/lig_76.pdb
REMARK  3 active torsions:
REMARK  status: ('A' for Active; 'I' for Inactive)
REMARK    1  A    between atoms: C1_1  and  C2_2
REMARK    2  A    between atoms: C5_5  and  N1_6
REMARK    3  A    between atoms: N3_16  and  C13_17
REMARK                            x       y       z     vdW  Elec       q    Type
REMARK                         _______ _______ _______ _____ _____    ______ ____
ROOT
ATOM      1  N1  UNL     1      18.312   9.920  37.278  0.00  0.00    -0.269 N 
ATOM      2  C6  UNL     1      18.311   8.696  36.521  0.00  0.00    +0.306 C 
ATOM      3  O1  UNL     1      17.322   8.417  35.791  0.00  0.00    -0.252 OA
ATOM      4  N2  UNL     1      19.418   7.772  36.618  0.00  0.00    -0.285 N 
ATOM      5  C7  UNL     1      19.303   6.401  36.099  0.00  0.00    +0.112 C 
ATOM      6  C8  UNL     1      20.476   6.047  35.161  0.00  0.00    +0.055 C 
ATOM      7  C9  UNL     1      21.799   6.840  35.437  0.00  0.00    +0.089 C 
ATOM      8  C10 UNL     1      21.830   7.254  36.928  0.00  0.00    +0.055 C 
ATOM      9  C11 UNL     1      20.655   8.171  37.304  0.00  0.00    +0.112 C 
ATOM     10  C12 UNL     1      21.890   8.115  34.552  0.00  0.00    +0.149 C 
ATOM     11  N3  UNL     1      22.164   7.782  33.151  0.00  0.00    -0.264 N 
ATOM     12  C17 UNL     1      22.982   6.639  32.880  0.00  0.00    +0.246 C 
ATOM     13  O2  UNL     1      23.588   6.524  31.780  0.00  0.00    -0.273 OA
ATOM     14  C18 UNL     1      23.070   5.544  33.895  0.00  0.00    +0.256 C 
ATOM     15  O3  UNL     1      22.948   6.024  35.225  0.00  0.00    -0.362 OA
ATOM     16  H6  UNL     1      18.848   9.937  38.175  0.00  0.00    +0.156 HD
ENDROOT
BRANCH   1  21
ATOM     17  C1  UNL     1      15.194  14.556  35.893  0.00  0.00    +0.044 C 
ATOM     18  C2  UNL     1      16.011  13.353  36.262  0.00  0.00    -0.050 A 
ATOM     19  C3  UNL     1      17.244  13.108  35.642  0.00  0.00    +0.005 A 
ATOM     20  C4  UNL     1      17.994  11.979  35.986  0.00  0.00    +0.023 A 
ATOM     21  C5  UNL     1      17.523  11.077  36.953  0.00  0.00    +0.035 A 
ATOM     22  C19 UNL     1      16.264  11.302  37.539  0.00  0.00    +0.023 A 
ATOM     23  C20 UNL     1      15.519  12.435  37.200  0.00  0.00    +0.005 A 
ENDBRANCH   1  21
BRANCH  11  24
ATOM     24  C13 UNL     1      21.744   8.668  32.096  0.00  0.00    +0.073 A 
ATOM     25  C14 UNL     1      20.505   8.499  31.464  0.00  0.00    +0.137 A 
ATOM     26  N4  UNL     1      20.122   9.346  30.477  0.00  0.00    -0.242 NA
ATOM     27  C15 UNL     1      20.924  10.371  30.086  0.00  0.00    +0.221 A 
ATOM     28  N5  UNL     1      22.126  10.565  30.686  0.00  0.00    -0.242 NA
ATOM     29  C16 UNL     1      22.548   9.741  31.679  0.00  0.00    +0.137 A 
ENDBRANCH  11  24
TORSDOF 2
ENDMDL
