REMARK  Name = /home/qwerty/github/datacon2025hack/step_04_hit_selection/docking/ligands/lig_753.pdb
REMARK  4 active torsions:
REMARK  status: ('A' for Active; 'I' for Inactive)
REMARK    1  A    between atoms: C1_1  and  O1_2
REMARK    2  A    between atoms: O1_2  and  C2_3
REMARK    3  A    between atoms: C6_7  and  C7_8
REMARK    4  A    between atoms: C9_12  and  C10_13
REMARK                            x       y       z     vdW  Elec       q    Type
REMARK                         _______ _______ _______ _____ _____    ______ ____
ROOT
ATOM      1  C7  UNL     1      -0.064  -2.037  -0.113  0.00  0.00    +0.027 A 
ATOM      2  C8  UNL     1      -0.012  -3.408   0.039  0.00  0.00    +0.114 A 
ATOM      3  N1  UNL     1      -0.990  -3.783   0.880  0.00  0.00    -0.284 N 
ATOM      4  N2  UNL     1      -1.677  -2.723   1.272  0.00  0.00    -0.173 NA
ATOM      5  C9  UNL     1      -1.141  -1.638   0.677  0.00  0.00    +0.100 A 
ATOM      6  H8  UNL     1      -1.188  -4.759   1.194  0.00  0.00    +0.188 HD
ENDROOT
BRANCH   5   7
ATOM      7  C10 UNL     1      -1.698  -0.279   0.835  0.00  0.00    +0.004 A 
ATOM      8  C11 UNL     1      -1.779   0.602  -0.256  0.00  0.00    +0.011 A 
ATOM      9  C12 UNL     1      -2.304   1.885  -0.090  0.00  0.00    +0.022 A 
ATOM     10  C13 UNL     1      -2.770   2.301   1.162  0.00  0.00    +0.059 A 
ATOM     11 CL1  UNL     1      -3.421   3.925   1.332  0.00  0.00    -0.082 Cl
ATOM     12  C14 UNL     1      -2.718   1.418   2.253  0.00  0.00    +0.060 A 
ATOM     13 CL2  UNL     1      -3.302   1.896   3.841  0.00  0.00    -0.082 Cl
ATOM     14  C15 UNL     1      -2.190   0.132   2.085  0.00  0.00    +0.031 A 
ENDBRANCH   5   7
BRANCH   1  19
ATOM     15  C2  UNL     1       2.249   0.820  -1.087  0.00  0.00    +0.121 A 
ATOM     16  C3  UNL     1       2.742   0.348  -2.308  0.00  0.00    +0.045 A 
ATOM     17  C4  UNL     1       2.336  -0.893  -2.804  0.00  0.00    +0.004 A 
ATOM     18  C5  UNL     1       1.422  -1.670  -2.088  0.00  0.00    +0.009 A 
ATOM     19  C6  UNL     1       0.903  -1.208  -0.868  0.00  0.00    -0.011 A 
ATOM     20  C16 UNL     1       1.338   0.029  -0.361  0.00  0.00    +0.054 A 
BRANCH  15  22
ATOM     21  C1  UNL     1       2.226   2.697   0.564  0.00  0.00    +0.277 C 
ATOM     22  O1  UNL     1       2.682   2.075  -0.633  0.00  0.00    -0.495 OA
ENDBRANCH  15  22
ENDBRANCH   1  19
TORSDOF 3
