REMARK  Name = /home/qwerty/github/datacon2025hack/step_04_hit_selection/docking/ligands/lig_177.pdb
REMARK  9 active torsions:
REMARK  status: ('A' for Active; 'I' for Inactive)
REMARK    1  A    between atoms: C1_1  and  C2_2
REMARK    2  A    between atoms: C3_4  and  C4_5
REMARK    3  A    between atoms: C5_6  and  C6_7
REMARK    4  A    between atoms: N2_9  and  C7_10
REMARK    5  A    between atoms: C7_10  and  C8_11
REMARK    6  A    between atoms: C8_11  and  C9_12
REMARK    7  A    between atoms: C8_11  and  N3_13
REMARK    8  A    between atoms: N3_13  and  C10_14
REMARK    9  A    between atoms: C11_15  and  C12_17
REMARK                            x       y       z     vdW  Elec       q    Type
REMARK                         _______ _______ _______ _____ _____    ______ ____
ROOT
ATOM      1  C7  UNL     1       0.524  -1.379   2.209  0.00  0.00    +0.126 C 
ENDROOT
BRANCH   1   4
ATOM      2  C6  UNL     1      -1.690  -0.980   1.033  0.00  0.00    +0.253 C 
ATOM      3  O1  UNL     1      -1.860  -2.221   0.890  0.00  0.00    -0.270 OA
ATOM      4  N2  UNL     1      -0.493  -0.488   1.654  0.00  0.00    -0.309 N 
ATOM      5  H7  UNL     1      -0.268   0.529   1.603  0.00  0.00    +0.149 HD
BRANCH   2  11
ATOM      6  C1  UNL     1      -5.584   1.468  -1.693  0.00  0.00    +0.073 C 
ATOM      7  C2  UNL     1      -4.476   1.070  -0.780  0.00  0.00    +0.076 A 
ATOM      8  N1  UNL     1      -4.084   1.805   0.282  0.00  0.00    -0.249 NA
ATOM      9  C3  UNL     1      -3.105   1.191   1.001  0.00  0.00    +0.058 A 
ATOM     10  C4  UNL     1      -2.559   1.828   2.242  0.00  0.00    +0.067 C 
ATOM     11  C5  UNL     1      -2.707  -0.056   0.498  0.00  0.00    +0.096 A 
ATOM     12  S1  UNL     1      -3.650  -0.391  -0.857  0.00  0.00    -0.068 S 
ENDBRANCH   2  11
ENDBRANCH   1   4
BRANCH   1  13
ATOM     13  C8  UNL     1       1.437  -1.929   1.096  0.00  0.00    +0.090 C 
ATOM     14  C9  UNL     1       2.531  -2.834   1.675  0.00  0.00    +0.029 C 
BRANCH  13  15
ATOM     15  N3  UNL     1       2.027  -0.838   0.289  0.00  0.00    -0.295 N 
ATOM     16  C10 UNL     1       2.993   0.092   0.890  0.00  0.00    +0.132 C 
ATOM     17  C11 UNL     1       1.537  -0.598  -1.053  0.00  0.00    +0.267 C 
ATOM     18  O2  UNL     1       0.383  -0.993  -1.374  0.00  0.00    -0.268 OA
BRANCH  17  19
ATOM     19  C12 UNL     1       2.343   0.098  -2.078  0.00  0.00    +0.147 A 
ATOM     20  C13 UNL     1       1.876   0.536  -3.305  0.00  0.00    +0.054 A 
ATOM     21  C14 UNL     1       2.982   1.082  -3.920  0.00  0.00    +0.105 A 
ATOM     22  N4  UNL     1       4.036   0.960  -3.096  0.00  0.00    -0.284 N 
ATOM     23  N5  UNL     1       3.661   0.361  -1.978  0.00  0.00    -0.169 NA
ATOM     24  H19 UNL     1       5.010   1.279  -3.293  0.00  0.00    +0.188 HD
ENDBRANCH  17  19
ENDBRANCH  13  15
ENDBRANCH   1  13
TORSDOF 5
