MODEL 1
REMARK VINA RESULT:    -7.023      0.000      0.000
REMARK INTER + INTRA:         -10.025
REMARK INTER:                  -9.281
REMARK INTRA:                  -0.744
REMARK UNBOUND:                -0.744
REMARK  Name = /home/qwerty/github/datacon2025hack/step_04_hit_selection/docking/ligands/lig_555.pdb
REMARK  7 active torsions:
REMARK  status: ('A' for Active; 'I' for Inactive)
REMARK    1  A    between atoms: C1_1  and  O1_2
REMARK    2  A    between atoms: O1_2  and  C2_3
REMARK    3  A    between atoms: C2_3  and  C3_5
REMARK    4  A    between atoms: C6_9  and  C7_10
REMARK    5  A    between atoms: C11_14  and  C12_15
REMARK    6  A    between atoms: N2_17  and  C13_18
REMARK    7  A    between atoms: C21_29  and  N5_30
REMARK                            x       y       z     vdW  Elec       q    Type
REMARK                         _______ _______ _______ _____ _____    ______ ____
ROOT
ATOM      1  C7  UNL     1      22.244   6.789  34.760  0.00  0.00    -0.012 A 
ATOM      2  C8  UNL     1      23.467   7.353  34.362  0.00  0.00    +0.009 A 
ATOM      3  C9  UNL     1      24.265   6.713  33.412  0.00  0.00    +0.001 A 
ATOM      4  C10 UNL     1      23.858   5.501  32.855  0.00  0.00    +0.013 A 
ATOM      5  C11 UNL     1      22.648   4.904  33.251  0.00  0.00    +0.038 A 
ATOM      6  C19 UNL     1      21.845   5.561  34.202  0.00  0.00    +0.021 A 
ENDROOT
BRANCH   1  11
ATOM      7  C3  UNL     1      19.226  10.971  35.909  0.00  0.00    +0.116 A 
ATOM      8  C4  UNL     1      19.921  10.666  34.713  0.00  0.00    +0.131 A 
ATOM      9  N1  UNL     1      20.650   9.521  34.600  0.00  0.00    -0.235 NA
ATOM     10  C5  UNL     1      20.700   8.668  35.648  0.00  0.00    +0.165 A 
ATOM     11  C6  UNL     1      21.399   7.482  35.763  0.00  0.00    +0.046 A 
ATOM     12  C20 UNL     1      21.143   7.088  37.077  0.00  0.00    +0.145 A 
ATOM     13  N3  UNL     1      20.340   7.992  37.687  0.00  0.00    -0.171 NA
ATOM     14  N4  UNL     1      20.082   8.940  36.802  0.00  0.00    -0.199 N 
ATOM     15  C21 UNL     1      19.346  10.067  36.997  0.00  0.00    +0.136 A 
BRANCH  15  16
ATOM     16  N5  UNL     1      18.784  10.337  38.288  0.00  0.00    -0.342 N 
ATOM     17  H15 UNL     1      17.748  10.336  38.424  0.00  0.00    +0.144 HD
ATOM     18  H16 UNL     1      19.374  10.412  39.145  0.00  0.00    +0.144 HD
ENDBRANCH  15  16
BRANCH   7  19
ATOM     19  C2  UNL     1      18.387  12.189  35.952  0.00  0.00    +0.344 C 
ATOM     20  O2  UNL     1      17.390  12.252  36.724  0.00  0.00    -0.245 OA
BRANCH  19  22
ATOM     21  C1  UNL     1      17.660  14.073  34.520  0.00  0.00    +0.280 C 
ATOM     22  O1  UNL     1      18.672  13.253  35.089  0.00  0.00    -0.464 OA
ENDBRANCH  19  22
ENDBRANCH   7  19
ENDBRANCH   1  11
BRANCH   5  23
ATOM     23  C12 UNL     1      22.225   3.613  32.656  0.00  0.00    +0.248 C 
ATOM     24  O3  UNL     1      21.878   2.665  33.413  0.00  0.00    -0.270 OA
ATOM     25  N2  UNL     1      22.159   3.447  31.230  0.00  0.00    -0.282 N 
ATOM     26  H8  UNL     1      21.968   4.291  30.646  0.00  0.00    +0.155 HD
BRANCH  25  27
ATOM     27  C13 UNL     1      22.191   2.166  30.573  0.00  0.00    +0.034 A 
ATOM     28  C14 UNL     1      23.367   1.754  29.925  0.00  0.00    +0.026 A 
ATOM     29  C15 UNL     1      23.429   0.504  29.299  0.00  0.00    +0.040 A 
ATOM     30  C16 UNL     1      22.323  -0.348  29.327  0.00  0.00    +0.124 A 
ATOM     31  F1  UNL     1      22.386  -1.560  28.722  0.00  0.00    -0.205 F 
ATOM     32  C17 UNL     1      21.155   0.044  29.987  0.00  0.00    +0.040 A 
ATOM     33  C18 UNL     1      21.088   1.293  30.613  0.00  0.00    +0.026 A 
ENDBRANCH  25  27
ENDBRANCH   5  23
TORSDOF 6
ENDMDL
MODEL 2
REMARK VINA RESULT:    -6.973      1.876      2.689
REMARK INTER + INTRA:          -9.959
REMARK INTER:                  -8.968
REMARK INTRA:                  -0.991
REMARK UNBOUND:                -0.744
REMARK  Name = /home/qwerty/github/datacon2025hack/step_04_hit_selection/docking/ligands/lig_555.pdb
REMARK  7 active torsions:
REMARK  status: ('A' for Active; 'I' for Inactive)
REMARK    1  A    between atoms: C1_1  and  O1_2
REMARK    2  A    between atoms: O1_2  and  C2_3
REMARK    3  A    between atoms: C2_3  and  C3_5
REMARK    4  A    between atoms: C6_9  and  C7_10
REMARK    5  A    between atoms: C11_14  and  C12_15
REMARK    6  A    between atoms: N2_17  and  C13_18
REMARK    7  A    between atoms: C21_29  and  N5_30
REMARK                            x       y       z     vdW  Elec       q    Type
REMARK                         _______ _______ _______ _____ _____    ______ ____
ROOT
ATOM      1  C7  UNL     1      20.547   7.998  36.421  0.00  0.00    -0.012 A 
ATOM      2  C8  UNL     1      21.786   7.962  37.083  0.00  0.00    +0.009 A 
ATOM      3  C9  UNL     1      22.790   7.092  36.655  0.00  0.00    +0.001 A 
ATOM      4  C10 UNL     1      22.570   6.243  35.571  0.00  0.00    +0.013 A 
ATOM      5  C11 UNL     1      21.332   6.244  34.905  0.00  0.00    +0.038 A 
ATOM      6  C19 UNL     1      20.328   7.131  35.335  0.00  0.00    +0.021 A 
ENDROOT
BRANCH   1  11
ATOM      7  C3  UNL     1      17.858  12.456  35.518  0.00  0.00    +0.116 A 
ATOM      8  C4  UNL     1      18.894  11.862  34.757  0.00  0.00    +0.131 A 
ATOM      9  N1  UNL     1      19.468  10.690  35.149  0.00  0.00    -0.235 NA
ATOM     10  C5  UNL     1      19.031  10.092  36.281  0.00  0.00    +0.165 A 
ATOM     11  C6  UNL     1      19.490   8.933  36.877  0.00  0.00    +0.046 A 
ATOM     12  C20 UNL     1      18.731   8.855  38.045  0.00  0.00    +0.145 A 
ATOM     13  N3  UNL     1      17.880   9.906  38.121  0.00  0.00    -0.171 NA
ATOM     14  N4  UNL     1      18.077  10.641  37.040  0.00  0.00    -0.199 N 
ATOM     15  C21 UNL     1      17.466  11.813  36.722  0.00  0.00    +0.136 A 
BRANCH  15  16
ATOM     16  N5  UNL     1      16.514  12.390  37.627  0.00  0.00    -0.342 N 
ATOM     17  H15 UNL     1      15.540  12.016  37.677  0.00  0.00    +0.144 HD
ATOM     18  H16 UNL     1      16.788  13.095  38.344  0.00  0.00    +0.144 HD
ENDBRANCH  15  16
BRANCH   7  19
ATOM     19  C2  UNL     1      17.216  13.687  35.006  0.00  0.00    +0.344 C 
ATOM     20  O2  UNL     1      17.901  14.569  34.420  0.00  0.00    -0.245 OA
BRANCH  19  22
ATOM     21  C1  UNL     1      14.844  13.331  34.395  0.00  0.00    +0.280 C 
ATOM     22  O1  UNL     1      15.850  13.893  35.228  0.00  0.00    -0.464 OA
ENDBRANCH  19  22
ENDBRANCH   7  19
ENDBRANCH   1  11
BRANCH   5  23
ATOM     23  C12 UNL     1      21.105   5.335  33.754  0.00  0.00    +0.248 C 
ATOM     24  O3  UNL     1      20.120   5.535  32.991  0.00  0.00    -0.270 OA
ATOM     25  N2  UNL     1      22.018   4.262  33.473  0.00  0.00    -0.282 N 
ATOM     26  H8  UNL     1      23.016   4.380  33.758  0.00  0.00    +0.155 HD
BRANCH  25  27
ATOM     27  C13 UNL     1      21.673   3.104  32.691  0.00  0.00    +0.034 A 
ATOM     28  C14 UNL     1      22.243   2.937  31.418  0.00  0.00    +0.026 A 
ATOM     29  C15 UNL     1      21.941   1.808  30.649  0.00  0.00    +0.040 A 
ATOM     30  C16 UNL     1      21.078   0.831  31.150  0.00  0.00    +0.124 A 
ATOM     31  F1  UNL     1      20.788  -0.264  30.405  0.00  0.00    -0.205 F 
ATOM     32  C17 UNL     1      20.522   0.976  32.424  0.00  0.00    +0.040 A 
ATOM     33  C18 UNL     1      20.821   2.104  33.196  0.00  0.00    +0.026 A 
ENDBRANCH  25  27
ENDBRANCH   5  23
TORSDOF 6
ENDMDL
MODEL 3
REMARK VINA RESULT:    -6.967      8.003     10.282
REMARK INTER + INTRA:          -9.951
REMARK INTER:                  -9.006
REMARK INTRA:                  -0.945
REMARK UNBOUND:                -0.744
REMARK  Name = /home/qwerty/github/datacon2025hack/step_04_hit_selection/docking/ligands/lig_555.pdb
REMARK  7 active torsions:
REMARK  status: ('A' for Active; 'I' for Inactive)
REMARK    1  A    between atoms: C1_1  and  O1_2
REMARK    2  A    between atoms: O1_2  and  C2_3
REMARK    3  A    between atoms: C2_3  and  C3_5
REMARK    4  A    between atoms: C6_9  and  C7_10
REMARK    5  A    between atoms: C11_14  and  C12_15
REMARK    6  A    between atoms: N2_17  and  C13_18
REMARK    7  A    between atoms: C21_29  and  N5_30
REMARK                            x       y       z     vdW  Elec       q    Type
REMARK                         _______ _______ _______ _____ _____    ______ ____
ROOT
ATOM      1  C7  UNL     1      21.117   1.754  27.178  0.00  0.00    -0.012 A 
ATOM      2  C8  UNL     1      22.216   2.521  26.757  0.00  0.00    +0.009 A 
ATOM      3  C9  UNL     1      22.235   3.088  25.481  0.00  0.00    +0.001 A 
ATOM      4  C10 UNL     1      21.166   2.889  24.608  0.00  0.00    +0.013 A 
ATOM      5  C11 UNL     1      20.063   2.109  24.998  0.00  0.00    +0.038 A 
ATOM      6  C19 UNL     1      20.046   1.549  26.289  0.00  0.00    +0.021 A 
ENDROOT
BRANCH   1  11
ATOM      7  C3  UNL     1      18.589   1.278  31.793  0.00  0.00    +0.116 A 
ATOM      8  C4  UNL     1      18.222   2.014  30.640  0.00  0.00    +0.131 A 
ATOM      9  N1  UNL     1      19.008   2.008  29.527  0.00  0.00    -0.235 NA
ATOM     10  C5  UNL     1      20.150   1.283  29.533  0.00  0.00    +0.165 A 
ATOM     11  C6  UNL     1      21.102   1.165  28.540  0.00  0.00    +0.046 A 
ATOM     12  C20 UNL     1      22.082   0.367  29.131  0.00  0.00    +0.145 A 
ATOM     13  N3  UNL     1      21.717   0.038  30.394  0.00  0.00    -0.171 NA
ATOM     14  N4  UNL     1      20.541   0.603  30.615  0.00  0.00    -0.199 N 
ATOM     15  C21 UNL     1      19.819   0.569  31.767  0.00  0.00    +0.136 A 
BRANCH  15  16
ATOM     16  N5  UNL     1      20.342  -0.108  32.918  0.00  0.00    -0.342 N 
ATOM     17  H15 UNL     1      20.496   0.411  33.811  0.00  0.00    +0.144 HD
ATOM     18  H16 UNL     1      20.459  -1.143  32.946  0.00  0.00    +0.144 HD
ENDBRANCH  15  16
BRANCH   7  19
ATOM     19  C2  UNL     1      17.662   1.256  32.947  0.00  0.00    +0.344 C 
ATOM     20  O2  UNL     1      16.886   2.226  33.163  0.00  0.00    -0.245 OA
BRANCH  19  22
ATOM     21  C1  UNL     1      17.001   0.177  35.074  0.00  0.00    +0.280 C 
ATOM     22  O1  UNL     1      17.691   0.172  33.831  0.00  0.00    -0.464 OA
ENDBRANCH  19  22
ENDBRANCH   7  19
ENDBRANCH   1  11
BRANCH   5  23
ATOM     23  C12 UNL     1      18.931   1.901  24.062  0.00  0.00    +0.248 C 
ATOM     24  O3  UNL     1      18.612   2.821  23.259  0.00  0.00    -0.270 OA
ATOM     25  N2  UNL     1      18.226   0.649  24.027  0.00  0.00    -0.282 N 
ATOM     26  H8  UNL     1      18.748  -0.216  24.295  0.00  0.00    +0.155 HD
BRANCH  25  27
ATOM     27  C13 UNL     1      16.895   0.496  23.502  0.00  0.00    +0.034 A 
ATOM     28  C14 UNL     1      15.800   0.940  24.261  0.00  0.00    +0.026 A 
ATOM     29  C15 UNL     1      14.498   0.822  23.762  0.00  0.00    +0.040 A 
ATOM     30  C16 UNL     1      14.281   0.274  22.496  0.00  0.00    +0.124 A 
ATOM     31  F1  UNL     1      13.019   0.164  22.012  0.00  0.00    -0.205 F 
ATOM     32  C17 UNL     1      15.365  -0.151  21.723  0.00  0.00    +0.040 A 
ATOM     33  C18 UNL     1      16.668  -0.037  22.219  0.00  0.00    +0.026 A 
ENDBRANCH  25  27
ENDBRANCH   5  23
TORSDOF 6
ENDMDL
MODEL 4
REMARK VINA RESULT:    -6.891     10.462     12.951
REMARK INTER + INTRA:          -9.851
REMARK INTER:                  -8.890
REMARK INTRA:                  -0.960
REMARK UNBOUND:                -0.744
REMARK  Name = /home/qwerty/github/datacon2025hack/step_04_hit_selection/docking/ligands/lig_555.pdb
REMARK  7 active torsions:
REMARK  status: ('A' for Active; 'I' for Inactive)
REMARK    1  A    between atoms: C1_1  and  O1_2
REMARK    2  A    between atoms: O1_2  and  C2_3
REMARK    3  A    between atoms: C2_3  and  C3_5
REMARK    4  A    between atoms: C6_9  and  C7_10
REMARK    5  A    between atoms: C11_14  and  C12_15
REMARK    6  A    between atoms: N2_17  and  C13_18
REMARK    7  A    between atoms: C21_29  and  N5_30
REMARK                            x       y       z     vdW  Elec       q    Type
REMARK                         _______ _______ _______ _____ _____    ______ ____
ROOT
ATOM      1  C7  UNL     1      22.671   6.586  21.583  0.00  0.00    -0.012 A 
ATOM      2  C8  UNL     1      21.629   5.949  20.888  0.00  0.00    +0.009 A 
ATOM      3  C9  UNL     1      20.800   5.036  21.540  0.00  0.00    +0.001 A 
ATOM      4  C10 UNL     1      21.003   4.739  22.887  0.00  0.00    +0.013 A 
ATOM      5  C11 UNL     1      22.051   5.346  23.600  0.00  0.00    +0.038 A 
ATOM      6  C19 UNL     1      22.878   6.273  22.939  0.00  0.00    +0.021 A 
ENDROOT
BRANCH   1  11
ATOM      7  C3  UNL     1      23.327  11.548  19.891  0.00  0.00    +0.116 A 
ATOM      8  C4  UNL     1      22.236  10.973  20.587  0.00  0.00    +0.131 A 
ATOM      9  N1  UNL     1      22.251   9.660  20.952  0.00  0.00    -0.235 NA
ATOM     10  C5  UNL     1      23.331   8.906  20.645  0.00  0.00    +0.165 A 
ATOM     11  C6  UNL     1      23.542   7.562  20.883  0.00  0.00    +0.046 A 
ATOM     12  C20 UNL     1      24.776   7.321  20.280  0.00  0.00    +0.145 A 
ATOM     13  N3  UNL     1      25.256   8.461  19.727  0.00  0.00    -0.171 NA
ATOM     14  N4  UNL     1      24.365   9.409  19.962  0.00  0.00    -0.199 N 
ATOM     15  C21 UNL     1      24.418  10.705  19.552  0.00  0.00    +0.136 A 
BRANCH  15  16
ATOM     16  N5  UNL     1      25.516  11.154  18.747  0.00  0.00    -0.342 N 
ATOM     17  H15 UNL     1      25.658  10.771  17.785  0.00  0.00    +0.144 HD
ATOM     18  H16 UNL     1      26.119  11.956  19.030  0.00  0.00    +0.144 HD
ENDBRANCH  15  16
BRANCH   7  19
ATOM     19  C2  UNL     1      23.293  12.996  19.588  0.00  0.00    +0.344 C 
ATOM     20  O2  UNL     1      23.602  13.416  18.439  0.00  0.00    -0.245 OA
BRANCH  19  22
ATOM     21  C1  UNL     1      23.942  14.719  21.242  0.00  0.00    +0.280 C 
ATOM     22  O1  UNL     1      22.969  13.904  20.601  0.00  0.00    -0.464 OA
ENDBRANCH  19  22
ENDBRANCH   7  19
ENDBRANCH   1  11
BRANCH   5  23
ATOM     23  C12 UNL     1      22.263   5.022  25.033  0.00  0.00    +0.248 C 
ATOM     24  O3  UNL     1      23.315   5.414  25.609  0.00  0.00    -0.270 OA
ATOM     25  N2  UNL     1      21.264   4.310  25.782  0.00  0.00    -0.282 N 
ATOM     26  H8  UNL     1      20.266   4.414  25.491  0.00  0.00    +0.155 HD
BRANCH  25  27
ATOM     27  C13 UNL     1      21.540   3.587  26.995  0.00  0.00    +0.034 A 
ATOM     28  C14 UNL     1      21.220   4.170  28.232  0.00  0.00    +0.026 A 
ATOM     29  C15 UNL     1      21.458   3.477  29.424  0.00  0.00    +0.040 A 
ATOM     30  C16 UNL     1      22.004   2.192  29.389  0.00  0.00    +0.124 A 
ATOM     31  F1  UNL     1      22.231   1.520  30.545  0.00  0.00    -0.205 F 
ATOM     32  C17 UNL     1      22.306   1.594  28.163  0.00  0.00    +0.040 A 
ATOM     33  C18 UNL     1      22.070   2.284  26.968  0.00  0.00    +0.026 A 
ENDBRANCH  25  27
ENDBRANCH   5  23
TORSDOF 6
ENDMDL
MODEL 5
REMARK VINA RESULT:    -6.860     15.259     18.623
REMARK INTER + INTRA:          -9.809
REMARK INTER:                  -9.210
REMARK INTRA:                  -0.599
REMARK UNBOUND:                -0.744
REMARK  Name = /home/qwerty/github/datacon2025hack/step_04_hit_selection/docking/ligands/lig_555.pdb
REMARK  7 active torsions:
REMARK  status: ('A' for Active; 'I' for Inactive)
REMARK    1  A    between atoms: C1_1  and  O1_2
REMARK    2  A    between atoms: O1_2  and  C2_3
REMARK    3  A    between atoms: C2_3  and  C3_5
REMARK    4  A    between atoms: C6_9  and  C7_10
REMARK    5  A    between atoms: C11_14  and  C12_15
REMARK    6  A    between atoms: N2_17  and  C13_18
REMARK    7  A    between atoms: C21_29  and  N5_30
REMARK                            x       y       z     vdW  Elec       q    Type
REMARK                         _______ _______ _______ _____ _____    ______ ____
ROOT
ATOM      1  C7  UNL     1      10.985   3.260  21.709  0.00  0.00    -0.012 A 
ATOM      2  C8  UNL     1      10.412   2.221  22.462  0.00  0.00    +0.009 A 
ATOM      3  C9  UNL     1       9.188   2.408  23.106  0.00  0.00    +0.001 A 
ATOM      4  C10 UNL     1       8.526   3.632  23.016  0.00  0.00    +0.013 A 
ATOM      5  C11 UNL     1       9.087   4.694  22.286  0.00  0.00    +0.038 A 
ATOM      6  C19 UNL     1      10.317   4.496  21.631  0.00  0.00    +0.021 A 
ENDROOT
BRANCH   1  11
ATOM      7  C3  UNL     1      15.426   0.420  21.358  0.00  0.00    +0.116 A 
ATOM      8  C4  UNL     1      14.335   0.274  22.248  0.00  0.00    +0.131 A 
ATOM      9  N1  UNL     1      13.259   1.108  22.180  0.00  0.00    -0.235 NA
ATOM     10  C5  UNL     1      13.242   2.081  21.242  0.00  0.00    +0.165 A 
ATOM     11  C6  UNL     1      12.281   3.049  21.019  0.00  0.00    +0.046 A 
ATOM     12  C20 UNL     1      12.833   3.815  19.992  0.00  0.00    +0.145 A 
ATOM     13  N3  UNL     1      14.042   3.318  19.637  0.00  0.00    -0.171 NA
ATOM     14  N4  UNL     1      14.269   2.266  20.406  0.00  0.00    -0.199 N 
ATOM     15  C21 UNL     1      15.381   1.485  20.420  0.00  0.00    +0.136 A 
BRANCH  15  16
ATOM     16  N5  UNL     1      16.482   1.795  19.555  0.00  0.00    -0.342 N 
ATOM     17  H15 UNL     1      17.441   1.441  19.772  0.00  0.00    +0.144 HD
ATOM     18  H16 UNL     1      16.348   2.259  18.631  0.00  0.00    +0.144 HD
ENDBRANCH  15  16
BRANCH   7  19
ATOM     19  C2  UNL     1      16.533  -0.560  21.424  0.00  0.00    +0.344 C 
ATOM     20  O2  UNL     1      16.894  -1.189  20.391  0.00  0.00    -0.245 OA
BRANCH  19  22
ATOM     21  C1  UNL     1      17.025  -2.082  23.314  0.00  0.00    +0.280 C 
ATOM     22  O1  UNL     1      17.143  -0.827  22.655  0.00  0.00    -0.464 OA
ENDBRANCH  19  22
ENDBRANCH   7  19
ENDBRANCH   1  11
BRANCH   5  23
ATOM     23  C12 UNL     1       8.378   5.995  22.198  0.00  0.00    +0.248 C 
ATOM     24  O3  UNL     1       7.273   6.059  21.593  0.00  0.00    -0.270 OA
ATOM     25  N2  UNL     1       8.911   7.168  22.835  0.00  0.00    -0.282 N 
ATOM     26  H8  UNL     1       9.501   7.039  23.687  0.00  0.00    +0.155 HD
BRANCH  25  27
ATOM     27  C13 UNL     1       8.557   8.511  22.458  0.00  0.00    +0.034 A 
ATOM     28  C14 UNL     1       7.787   9.293  23.336  0.00  0.00    +0.026 A 
ATOM     29  C15 UNL     1       7.450  10.609  23.001  0.00  0.00    +0.040 A 
ATOM     30  C16 UNL     1       7.890  11.159  21.795  0.00  0.00    +0.124 A 
ATOM     31  F1  UNL     1       7.564  12.435  21.474  0.00  0.00    -0.205 F 
ATOM     32  C17 UNL     1       8.673  10.397  20.925  0.00  0.00    +0.040 A 
ATOM     33  C18 UNL     1       9.012   9.080  21.254  0.00  0.00    +0.026 A 
ENDBRANCH  25  27
ENDBRANCH   5  23
TORSDOF 6
ENDMDL
MODEL 6
REMARK VINA RESULT:    -6.854     12.012     15.116
REMARK INTER + INTRA:          -9.802
REMARK INTER:                  -8.845
REMARK INTRA:                  -0.956
REMARK UNBOUND:                -0.744
REMARK  Name = /home/qwerty/github/datacon2025hack/step_04_hit_selection/docking/ligands/lig_555.pdb
REMARK  7 active torsions:
REMARK  status: ('A' for Active; 'I' for Inactive)
REMARK    1  A    between atoms: C1_1  and  O1_2
REMARK    2  A    between atoms: O1_2  and  C2_3
REMARK    3  A    between atoms: C2_3  and  C3_5
REMARK    4  A    between atoms: C6_9  and  C7_10
REMARK    5  A    between atoms: C11_14  and  C12_15
REMARK    6  A    between atoms: N2_17  and  C13_18
REMARK    7  A    between atoms: C21_29  and  N5_30
REMARK                            x       y       z     vdW  Elec       q    Type
REMARK                         _______ _______ _______ _____ _____    ______ ____
ROOT
ATOM      1  C7  UNL     1      14.692   2.379  20.951  0.00  0.00    -0.012 A 
ATOM      2  C8  UNL     1      14.831   1.269  20.101  0.00  0.00    +0.009 A 
ATOM      3  C9  UNL     1      15.744   0.257  20.403  0.00  0.00    +0.001 A 
ATOM      4  C10 UNL     1      16.534   0.343  21.549  0.00  0.00    +0.013 A 
ATOM      5  C11 UNL     1      16.429   1.452  22.406  0.00  0.00    +0.038 A 
ATOM      6  C19 UNL     1      15.499   2.464  22.100  0.00  0.00    +0.021 A 
ENDROOT
BRANCH   1  11
ATOM      7  C3  UNL     1       9.679   4.033  21.173  0.00  0.00    +0.116 A 
ATOM      8  C4  UNL     1      10.249   2.828  21.651  0.00  0.00    +0.131 A 
ATOM      9  N1  UNL     1      11.581   2.578  21.508  0.00  0.00    -0.235 NA
ATOM     10  C5  UNL     1      12.361   3.504  20.905  0.00  0.00    +0.165 A 
ATOM     11  C6  UNL     1      13.712   3.444  20.626  0.00  0.00    +0.046 A 
ATOM     12  C20 UNL     1      13.946   4.631  19.929  0.00  0.00    +0.145 A 
ATOM     13  N3  UNL     1      12.797   5.339  19.815  0.00  0.00    -0.171 NA
ATOM     14  N4  UNL     1      11.850   4.638  20.415  0.00  0.00    -0.199 N 
ATOM     15  C21 UNL     1      10.530   4.953  20.507  0.00  0.00    +0.136 A 
BRANCH  15  16
ATOM     16  N5  UNL     1      10.036   6.145  19.881  0.00  0.00    -0.342 N 
ATOM     17  H15 UNL     1      10.649   6.985  19.785  0.00  0.00    +0.144 HD
ATOM     18  H16 UNL     1       9.115   6.173  19.393  0.00  0.00    +0.144 HD
ENDBRANCH  15  16
BRANCH   7  19
ATOM     19  C2  UNL     1       8.242   4.287  21.423  0.00  0.00    +0.344 C 
ATOM     20  O2  UNL     1       7.515   4.787  20.521  0.00  0.00    -0.245 OA
BRANCH  19  22
ATOM     21  C1  UNL     1       7.978   4.834  23.822  0.00  0.00    +0.280 C 
ATOM     22  O1  UNL     1       7.706   4.022  22.688  0.00  0.00    -0.464 OA
ENDBRANCH  19  22
ENDBRANCH   7  19
ENDBRANCH   1  11
BRANCH   5  23
ATOM     23  C12 UNL     1      17.275   1.537  23.622  0.00  0.00    +0.248 C 
ATOM     24  O3  UNL     1      16.832   2.126  24.646  0.00  0.00    -0.270 OA
ATOM     25  N2  UNL     1      18.570   0.916  23.661  0.00  0.00    -0.282 N 
ATOM     26  H8  UNL     1      18.729   0.073  23.066  0.00  0.00    +0.155 HD
BRANCH  25  27
ATOM     27  C13 UNL     1      19.610   1.295  24.581  0.00  0.00    +0.034 A 
ATOM     28  C14 UNL     1      20.452   2.373  24.263  0.00  0.00    +0.026 A 
ATOM     29  C15 UNL     1      21.455   2.774  25.152  0.00  0.00    +0.040 A 
ATOM     30  C16 UNL     1      21.617   2.112  26.371  0.00  0.00    +0.124 A 
ATOM     31  F1  UNL     1      22.588   2.503  27.232  0.00  0.00    -0.205 F 
ATOM     32  C17 UNL     1      20.771   1.052  26.706  0.00  0.00    +0.040 A 
ATOM     33  C18 UNL     1      19.767   0.646  25.820  0.00  0.00    +0.026 A 
ENDBRANCH  25  27
ENDBRANCH   5  23
TORSDOF 6
ENDMDL
MODEL 7
REMARK VINA RESULT:    -6.847      4.751      9.804
REMARK INTER + INTRA:          -9.793
REMARK INTER:                  -8.842
REMARK INTRA:                  -0.951
REMARK UNBOUND:                -0.744
REMARK  Name = /home/qwerty/github/datacon2025hack/step_04_hit_selection/docking/ligands/lig_555.pdb
REMARK  7 active torsions:
REMARK  status: ('A' for Active; 'I' for Inactive)
REMARK    1  A    between atoms: C1_1  and  O1_2
REMARK    2  A    between atoms: O1_2  and  C2_3
REMARK    3  A    between atoms: C2_3  and  C3_5
REMARK    4  A    between atoms: C6_9  and  C7_10
REMARK    5  A    between atoms: C11_14  and  C12_15
REMARK    6  A    between atoms: N2_17  and  C13_18
REMARK    7  A    between atoms: C21_29  and  N5_30
REMARK                            x       y       z     vdW  Elec       q    Type
REMARK                         _______ _______ _______ _____ _____    ______ ____
ROOT
ATOM      1  C7  UNL     1      21.182   1.878  30.888  0.00  0.00    -0.012 A 
ATOM      2  C8  UNL     1      20.631   0.651  31.294  0.00  0.00    +0.009 A 
ATOM      3  C9  UNL     1      20.050   0.520  32.556  0.00  0.00    +0.001 A 
ATOM      4  C10 UNL     1      20.018   1.605  33.431  0.00  0.00    +0.013 A 
ATOM      5  C11 UNL     1      20.581   2.838  33.058  0.00  0.00    +0.038 A 
ATOM      6  C19 UNL     1      21.157   2.966  31.780  0.00  0.00    +0.021 A 
ENDROOT
BRANCH   1  11
ATOM      7  C3  UNL     1      21.366   4.547  26.332  0.00  0.00    +0.116 A 
ATOM      8  C4  UNL     1      20.562   4.776  27.475  0.00  0.00    +0.131 A 
ATOM      9  N1  UNL     1      20.663   3.975  28.573  0.00  0.00    -0.235 NA
ATOM     10  C5  UNL     1      21.550   2.955  28.563  0.00  0.00    +0.165 A 
ATOM     11  C6  UNL     1      21.789   2.009  29.541  0.00  0.00    +0.046 A 
ATOM     12  C20 UNL     1      22.736   1.172  28.950  0.00  0.00    +0.145 A 
ATOM     13  N3  UNL     1      23.031   1.609  27.702  0.00  0.00    -0.171 NA
ATOM     14  N4  UNL     1      22.302   2.692  27.489  0.00  0.00    -0.199 N 
ATOM     15  C21 UNL     1      22.250   3.435  26.352  0.00  0.00    +0.136 A 
BRANCH  15  16
ATOM     16  N5  UNL     1      23.020   3.044  25.207  0.00  0.00    -0.342 N 
ATOM     17  H15 UNL     1      22.557   2.582  24.392  0.00  0.00    +0.144 HD
ATOM     18  H16 UNL     1      24.019   3.318  25.091  0.00  0.00    +0.144 HD
ENDBRANCH  15  16
BRANCH   7  19
ATOM     19  C2  UNL     1      21.273   5.492  25.197  0.00  0.00    +0.344 C 
ATOM     20  O2  UNL     1      20.183   6.068  24.932  0.00  0.00    -0.245 OA
BRANCH  19  22
ATOM     21  C1  UNL     1      22.285   6.043  23.006  0.00  0.00    +0.280 C 
ATOM     22  O1  UNL     1      22.391   5.700  24.382  0.00  0.00    -0.464 OA
ENDBRANCH  19  22
ENDBRANCH   7  19
ENDBRANCH   1  11
BRANCH   5  23
ATOM     23  C12 UNL     1      20.546   3.987  33.997  0.00  0.00    +0.248 C 
ATOM     24  O3  UNL     1      19.548   4.140  34.753  0.00  0.00    -0.270 OA
ATOM     25  N2  UNL     1      21.655   4.897  34.087  0.00  0.00    -0.282 N 
ATOM     26  H8  UNL     1      22.608   4.533  33.863  0.00  0.00    +0.155 HD
BRANCH  25  27
ATOM     27  C13 UNL     1      21.550   6.233  34.611  0.00  0.00    +0.034 A 
ATOM     28  C14 UNL     1      22.071   6.516  35.884  0.00  0.00    +0.026 A 
ATOM     29  C15 UNL     1      22.001   7.813  36.405  0.00  0.00    +0.040 A 
ATOM     30  C16 UNL     1      21.424   8.839  35.654  0.00  0.00    +0.124 A 
ATOM     31  F1  UNL     1      21.360  10.096  36.159  0.00  0.00    -0.205 F 
ATOM     32  C17 UNL     1      20.923   8.573  34.377  0.00  0.00    +0.040 A 
ATOM     33  C18 UNL     1      20.989   7.278  33.853  0.00  0.00    +0.026 A 
ENDBRANCH  25  27
ENDBRANCH   5  23
TORSDOF 6
ENDMDL
MODEL 8
REMARK VINA RESULT:    -6.845      5.139      8.561
REMARK INTER + INTRA:          -9.790
REMARK INTER:                  -8.837
REMARK INTRA:                  -0.953
REMARK UNBOUND:                -0.744
REMARK  Name = /home/qwerty/github/datacon2025hack/step_04_hit_selection/docking/ligands/lig_555.pdb
REMARK  7 active torsions:
REMARK  status: ('A' for Active; 'I' for Inactive)
REMARK    1  A    between atoms: C1_1  and  O1_2
REMARK    2  A    between atoms: O1_2  and  C2_3
REMARK    3  A    between atoms: C2_3  and  C3_5
REMARK    4  A    between atoms: C6_9  and  C7_10
REMARK    5  A    between atoms: C11_14  and  C12_15
REMARK    6  A    between atoms: N2_17  and  C13_18
REMARK    7  A    between atoms: C21_29  and  N5_30
REMARK                            x       y       z     vdW  Elec       q    Type
REMARK                         _______ _______ _______ _____ _____    ______ ____
ROOT
ATOM      1  C7  UNL     1      21.470   2.390  27.323  0.00  0.00    -0.012 A 
ATOM      2  C8  UNL     1      22.222   3.150  26.411  0.00  0.00    +0.009 A 
ATOM      3  C9  UNL     1      21.891   3.157  25.055  0.00  0.00    +0.001 A 
ATOM      4  C10 UNL     1      20.816   2.400  24.590  0.00  0.00    +0.013 A 
ATOM      5  C11 UNL     1      20.061   1.614  25.478  0.00  0.00    +0.038 A 
ATOM      6  C19 UNL     1      20.394   1.620  26.846  0.00  0.00    +0.021 A 
ENDROOT
BRANCH   1  11
ATOM      7  C3  UNL     1      21.810   5.164  31.807  0.00  0.00    +0.116 A 
ATOM      8  C4  UNL     1      21.380   5.580  30.523  0.00  0.00    +0.131 A 
ATOM      9  N1  UNL     1      21.353   4.708  29.477  0.00  0.00    -0.235 NA
ATOM     10  C5  UNL     1      21.739   3.428  29.679  0.00  0.00    +0.165 A 
ATOM     11  C6  UNL     1      21.824   2.397  28.764  0.00  0.00    +0.046 A 
ATOM     12  C20 UNL     1      22.354   1.347  29.514  0.00  0.00    +0.145 A 
ATOM     13  N3  UNL     1      22.561   1.746  30.792  0.00  0.00    -0.171 NA
ATOM     14  N4  UNL     1      22.179   3.009  30.870  0.00  0.00    -0.199 N 
ATOM     15  C21 UNL     1      22.248   3.821  31.958  0.00  0.00    +0.136 A 
BRANCH  15  16
ATOM     16  N5  UNL     1      22.814   3.330  33.181  0.00  0.00    -0.342 N 
ATOM     17  H15 UNL     1      23.142   3.996  33.916  0.00  0.00    +0.144 HD
ATOM     18  H16 UNL     1      22.797   2.319  33.432  0.00  0.00    +0.144 HD
ENDBRANCH  15  16
BRANCH   7  19
ATOM     19  C2  UNL     1      21.746   6.130  32.926  0.00  0.00    +0.344 C 
ATOM     20  O2  UNL     1      20.993   5.915  33.915  0.00  0.00    -0.245 OA
BRANCH  19  22
ATOM     21  C1  UNL     1      23.858   7.386  33.226  0.00  0.00    +0.280 C 
ATOM     22  O1  UNL     1      22.487   7.315  32.855  0.00  0.00    -0.464 OA
ENDBRANCH  19  22
ENDBRANCH   7  19
ENDBRANCH   1  11
BRANCH   5  23
ATOM     23  C12 UNL     1      18.920   0.809  24.975  0.00  0.00    +0.248 C 
ATOM     24  O3  UNL     1      18.225   1.249  24.018  0.00  0.00    -0.270 OA
ATOM     25  N2  UNL     1      18.629  -0.483  25.532  0.00  0.00    -0.282 N 
ATOM     26  H8  UNL     1      19.420  -1.033  25.934  0.00  0.00    +0.155 HD
BRANCH  25  27
ATOM     27  C13 UNL     1      17.344  -1.124  25.434  0.00  0.00    +0.034 A 
ATOM     28  C14 UNL     1      17.161  -2.161  24.505  0.00  0.00    +0.026 A 
ATOM     29  C15 UNL     1      15.928  -2.814  24.407  0.00  0.00    +0.040 A 
ATOM     30  C16 UNL     1      14.872  -2.446  25.244  0.00  0.00    +0.124 A 
ATOM     31  F1  UNL     1      13.678  -3.082  25.150  0.00  0.00    -0.205 F 
ATOM     32  C17 UNL     1      15.050  -1.430  26.186  0.00  0.00    +0.040 A 
ATOM     33  C18 UNL     1      16.281  -0.773  26.287  0.00  0.00    +0.026 A 
ENDBRANCH  25  27
ENDBRANCH   5  23
TORSDOF 6
ENDMDL
MODEL 9
REMARK VINA RESULT:    -6.798     14.307     18.176
REMARK INTER + INTRA:          -9.728
REMARK INTER:                  -8.847
REMARK INTRA:                  -0.881
REMARK UNBOUND:                -0.744
REMARK  Name = /home/qwerty/github/datacon2025hack/step_04_hit_selection/docking/ligands/lig_555.pdb
REMARK  7 active torsions:
REMARK  status: ('A' for Active; 'I' for Inactive)
REMARK    1  A    between atoms: C1_1  and  O1_2
REMARK    2  A    between atoms: O1_2  and  C2_3
REMARK    3  A    between atoms: C2_3  and  C3_5
REMARK    4  A    between atoms: C6_9  and  C7_10
REMARK    5  A    between atoms: C11_14  and  C12_15
REMARK    6  A    between atoms: N2_17  and  C13_18
REMARK    7  A    between atoms: C21_29  and  N5_30
REMARK                            x       y       z     vdW  Elec       q    Type
REMARK                         _______ _______ _______ _____ _____    ______ ____
ROOT
ATOM      1  C7  UNL     1       9.485   5.438  21.959  0.00  0.00    -0.012 A 
ATOM      2  C8  UNL     1       8.622   5.820  20.918  0.00  0.00    +0.009 A 
ATOM      3  C9  UNL     1       7.930   7.030  20.982  0.00  0.00    +0.001 A 
ATOM      4  C10 UNL     1       8.081   7.869  22.086  0.00  0.00    +0.013 A 
ATOM      5  C11 UNL     1       8.923   7.501  23.150  0.00  0.00    +0.038 A 
ATOM      6  C19 UNL     1       9.625   6.284  23.074  0.00  0.00    +0.021 A 
ENDROOT
BRANCH   1  11
ATOM      7  C3  UNL     1      13.864   2.915  20.417  0.00  0.00    +0.116 A 
ATOM      8  C4  UNL     1      13.525   4.284  20.291  0.00  0.00    +0.131 A 
ATOM      9  N1  UNL     1      12.337   4.757  20.763  0.00  0.00    -0.235 NA
ATOM     10  C5  UNL     1      11.481   3.901  21.363  0.00  0.00    +0.165 A 
ATOM     11  C6  UNL     1      10.224   4.154  21.876  0.00  0.00    +0.046 A 
ATOM     12  C20 UNL     1       9.787   2.894  22.286  0.00  0.00    +0.145 A 
ATOM     13  N3  UNL     1      10.737   1.964  22.028  0.00  0.00    -0.171 NA
ATOM     14  N4  UNL     1      11.756   2.597  21.471  0.00  0.00    -0.199 N 
ATOM     15  C21 UNL     1      12.912   2.046  21.014  0.00  0.00    +0.136 A 
BRANCH  15  16
ATOM     16  N5  UNL     1      13.104   0.627  21.083  0.00  0.00    -0.342 N 
ATOM     17  H15 UNL     1      13.907   0.177  20.589  0.00  0.00    +0.144 HD
ATOM     18  H16 UNL     1      12.542   0.022  21.720  0.00  0.00    +0.144 HD
ENDBRANCH  15  16
BRANCH   7  19
ATOM     19  C2  UNL     1      15.198   2.468  19.957  0.00  0.00    +0.344 C 
ATOM     20  O2  UNL     1      15.381   1.275  19.590  0.00  0.00    -0.245 OA
BRANCH  19  22
ATOM     21  C1  UNL     1      17.134   3.496  21.107  0.00  0.00    +0.280 C 
ATOM     22  O1  UNL     1      16.271   3.365  19.984  0.00  0.00    -0.464 OA
ENDBRANCH  19  22
ENDBRANCH   7  19
ENDBRANCH   1  11
BRANCH   5  23
ATOM     23  C12 UNL     1       9.076   8.398  24.323  0.00  0.00    +0.248 C 
ATOM     24  O3  UNL     1      10.217   8.555  24.838  0.00  0.00    -0.270 OA
ATOM     25  N2  UNL     1       7.952   9.123  24.846  0.00  0.00    -0.282 N 
ATOM     26  H8  UNL     1       7.183   9.379  24.187  0.00  0.00    +0.155 HD
BRANCH  25  27
ATOM     27  C13 UNL     1       7.892   9.648  26.185  0.00  0.00    +0.034 A 
ATOM     28  C14 UNL     1       8.344  10.954  26.433  0.00  0.00    +0.026 A 
ATOM     29  C15 UNL     1       8.275  11.493  27.723  0.00  0.00    +0.040 A 
ATOM     30  C16 UNL     1       7.743  10.738  28.770  0.00  0.00    +0.124 A 
ATOM     31  F1  UNL     1       7.675  11.263  30.018  0.00  0.00    -0.205 F 
ATOM     32  C17 UNL     1       7.271   9.445  28.529  0.00  0.00    +0.040 A 
ATOM     33  C18 UNL     1       7.339   8.901  27.242  0.00  0.00    +0.026 A 
ENDBRANCH  25  27
ENDBRANCH   5  23
TORSDOF 6
ENDMDL
