REMARK  Name = /home/qwerty/github/datacon2025hack/step_04_hit_selection/docking/ligands/lig_411.pdb
REMARK  7 active torsions:
REMARK  status: ('A' for Active; 'I' for Inactive)
REMARK    1  A    between atoms: C1_1  and  O1_2
REMARK    2  A    between atoms: O1_2  and  C2_3
REMARK    3  A    between atoms: C5_6  and  N1_7
REMARK    4  A    between atoms: N2_10  and  C7_11
REMARK    5  A    between atoms: C12_18  and  O3_19
REMARK    6  A    between atoms: C13_20  and  O4_21
REMARK    7  A    between atoms: O4_21  and  C14_22
REMARK                            x       y       z     vdW  Elec       q    Type
REMARK                         _______ _______ _______ _____ _____    ______ ____
ROOT
ATOM      1  N1  UNL     1      -0.456   1.283  -0.572  0.00  0.00    -0.266 N 
ATOM      2  C6  UNL     1       0.869   0.815  -0.283  0.00  0.00    +0.308 C 
ATOM      3  O2  UNL     1       1.039  -0.210   0.433  0.00  0.00    -0.252 OA
ATOM      4  N2  UNL     1       2.000   1.520  -0.814  0.00  0.00    -0.266 N 
ATOM      5  H6  UNL     1      -0.561   2.260  -0.926  0.00  0.00    +0.156 HD
ATOM      6  H7  UNL     1       1.832   2.188  -1.600  0.00  0.00    +0.156 HD
ENDROOT
BRANCH   4   7
ATOM      7  C7  UNL     1       3.358   1.192  -0.481  0.00  0.00    +0.078 A 
ATOM      8  C8  UNL     1       4.288   1.026  -1.513  0.00  0.00    +0.028 A 
ATOM      9  C9  UNL     1       5.615   0.710  -1.226  0.00  0.00    +0.023 A 
ATOM     10  C10 UNL     1       6.035   0.568   0.099  0.00  0.00    +0.063 A 
ATOM     11 CL1  UNL     1       7.718   0.161   0.410  0.00  0.00    -0.082 Cl
ATOM     12  C11 UNL     1       5.121   0.760   1.151  0.00  0.00    +0.102 A 
ATOM     13 CL2  UNL     1       5.667   0.602   2.821  0.00  0.00    -0.078 Cl
ATOM     14  C12 UNL     1       3.779   1.089   0.861  0.00  0.00    +0.158 A 
BRANCH  14  15
ATOM     15  O3  UNL     1       2.860   1.342   1.884  0.00  0.00    -0.503 OA
ATOM     16  H10 UNL     1       3.099   1.295   2.866  0.00  0.00    +0.292 HD
ENDBRANCH  14  15
ENDBRANCH   4   7
BRANCH   1  20
ATOM     17  C2  UNL     1      -4.005  -0.781   0.538  0.00  0.00    +0.124 A 
ATOM     18  C3  UNL     1      -3.842   0.584   0.830  0.00  0.00    +0.047 A 
ATOM     19  C4  UNL     1      -2.673   1.249   0.455  0.00  0.00    +0.030 A 
ATOM     20  C5  UNL     1      -1.643   0.564  -0.201  0.00  0.00    +0.077 A 
ATOM     21  C13 UNL     1      -1.808  -0.797  -0.532  0.00  0.00    +0.145 A 
ATOM     22  C15 UNL     1      -2.989  -1.461  -0.142  0.00  0.00    +0.093 A 
BRANCH  17  24
ATOM     23  C1  UNL     1      -6.268  -0.932   1.591  0.00  0.00    +0.277 C 
ATOM     24  O1  UNL     1      -5.158  -1.494   0.899  0.00  0.00    -0.495 OA
ENDBRANCH  17  24
BRANCH  21  25
ATOM     25  O4  UNL     1      -0.802  -1.447  -1.264  0.00  0.00    -0.493 OA
ATOM     26  C14 UNL     1      -0.842  -2.815  -1.658  0.00  0.00    +0.277 C 
ENDBRANCH  21  25
ENDBRANCH   1  20
TORSDOF 5
