REMARK  Name = /home/qwerty/github/datacon2025hack/step_04_hit_selection/docking/ligands/lig_180.pdb
REMARK  8 active torsions:
REMARK  status: ('A' for Active; 'I' for Inactive)
REMARK    1  A    between atoms: C1_1  and  C2_2
REMARK    2  A    between atoms: C2_2  and  O1_3
REMARK    3  A    between atoms: C2_2  and  C3_4
REMARK    4  A    between atoms: C3_4  and  N1_5
REMARK    5  A    between atoms: N3_11  and  C7_12
REMARK    6  A    between atoms: C11_17  and  C12_18
REMARK    7  A    between atoms: N4_20  and  C13_21
REMARK    8  A    between atoms: C13_21  and  C14_22
REMARK                            x       y       z     vdW  Elec       q    Type
REMARK                         _______ _______ _______ _____ _____    ______ ____
ROOT
ATOM      1  C7  UNL     1       1.189   0.612   0.775  0.00  0.00    +0.036 A 
ATOM      2  C8  UNL     1       1.398   1.835   1.434  0.00  0.00    +0.025 A 
ATOM      3  C9  UNL     1       2.692   2.265   1.730  0.00  0.00    +0.022 A 
ATOM      4  C10 UNL     1       3.799   1.488   1.370  0.00  0.00    +0.053 A 
ATOM      5 CL1  UNL     1       5.403   2.147   1.683  0.00  0.00    -0.083 Cl
ATOM      6  C11 UNL     1       3.606   0.259   0.703  0.00  0.00    +0.057 A 
ATOM      7  C18 UNL     1       2.299  -0.155   0.392  0.00  0.00    +0.037 A 
ENDROOT
BRANCH   1  14
ATOM      8  N1  UNL     1      -5.311  -0.311  -0.319  0.00  0.00    -0.297 NA
ATOM      9  C4  UNL     1      -4.264  -1.366  -0.367  0.00  0.00    +0.103 C 
ATOM     10  C5  UNL     1      -2.831  -0.812  -0.386  0.00  0.00    +0.124 C 
ATOM     11  N2  UNL     1      -2.620   0.123   0.726  0.00  0.00    -0.283 N 
ATOM     12  C6  UNL     1      -1.299   0.391   1.236  0.00  0.00    +0.307 C 
ATOM     13  O2  UNL     1      -1.169   0.817   2.416  0.00  0.00    -0.252 OA
ATOM     14  N3  UNL     1      -0.132   0.164   0.424  0.00  0.00    -0.269 N 
ATOM     15  C19 UNL     1      -3.781   0.796   1.318  0.00  0.00    +0.124 C 
ATOM     16  C20 UNL     1      -4.862   0.981   0.251  0.00  0.00    +0.103 C 
ATOM     17  H12 UNL     1      -0.225  -0.395  -0.452  0.00  0.00    +0.156 HD
BRANCH   8  18
ATOM     18  C3  UNL     1      -5.973  -0.113  -1.627  0.00  0.00    +0.115 C 
BRANCH  18  20
ATOM     19  C1  UNL     1      -8.213  -1.023  -0.828  0.00  0.00    +0.039 C 
ATOM     20  C2  UNL     1      -7.080  -1.163  -1.853  0.00  0.00    +0.125 C 
BRANCH  20  21
ATOM     21  O1  UNL     1      -7.589  -1.062  -3.159  0.00  0.00    -0.391 OA
ATOM     22  H5  UNL     1      -7.987  -0.158  -3.259  0.00  0.00    +0.210 HD
ENDBRANCH  20  21
ENDBRANCH  18  20
ENDBRANCH   8  18
ENDBRANCH   1  14
BRANCH   6  23
ATOM     23  C12 UNL     1       4.741  -0.598   0.297  0.00  0.00    +0.246 C 
ATOM     24  O3  UNL     1       4.742  -1.118  -0.852  0.00  0.00    -0.270 OA
ATOM     25  N4  UNL     1       5.810  -0.879   1.211  0.00  0.00    -0.307 N 
ATOM     26  H15 UNL     1       5.696  -0.635   2.221  0.00  0.00    +0.149 HD
BRANCH  25  27
ATOM     27  C13 UNL     1       7.050  -1.526   0.790  0.00  0.00    +0.147 C 
BRANCH  27  28
ATOM     28  C14 UNL     1       7.859  -0.588  -0.048  0.00  0.00    +0.007 A 
ATOM     29  C15 UNL     1       8.489   0.564   0.403  0.00  0.00    +0.013 A 
ATOM     30  C16 UNL     1       9.127   1.277  -0.618  0.00  0.00    +0.008 A 
ATOM     31  C17 UNL     1       8.997   0.694  -1.871  0.00  0.00    +0.045 A 
ATOM     32  S1  UNL     1       8.084  -0.709  -1.709  0.00  0.00    -0.100 S 
ENDBRANCH  27  28
ENDBRANCH  25  27
ENDBRANCH   6  23
TORSDOF 7
