MODEL 1
REMARK VINA RESULT:    -7.227      0.000      0.000
REMARK INTER + INTRA:         -11.138
REMARK INTER:                 -10.185
REMARK INTRA:                  -0.954
REMARK UNBOUND:                -0.954
REMARK  Name = /home/qwerty/github/datacon2025hack/step_04_hit_selection/docking/ligands/lig_604.pdb
REMARK  9 active torsions:
REMARK  status: ('A' for Active; 'I' for Inactive)
REMARK    1  A    between atoms: C1_1  and  O1_2
REMARK    2  A    between atoms: O1_2  and  C2_3
REMARK    3  A    between atoms: C2_3  and  C3_5
REMARK    4  A    between atoms: C5_7  and  N1_8
REMARK    5  A    between atoms: C6_9  and  C7_11
REMARK    6  A    between atoms: C7_11  and  C8_12
REMARK    7  A    between atoms: C20_24  and  C21_25
REMARK    8  A    between atoms: C21_25  and  O5_27
REMARK    9  A    between atoms: O5_27  and  C22_28
REMARK                            x       y       z     vdW  Elec       q    Type
REMARK                         _______ _______ _______ _____ _____    ______ ____
ROOT
ATOM      1  N1  UNL     1      22.713   3.789  32.652  0.00  0.00    -0.285 N 
ATOM      2  C6  UNL     1      22.336   5.164  32.427  0.00  0.00    +0.224 C 
ATOM      3  O3  UNL     1      21.490   5.425  31.527  0.00  0.00    -0.275 OA
ATOM      4  H5  UNL     1      23.538   3.570  33.252  0.00  0.00    +0.155 HD
ENDROOT
BRANCH   1   7
ATOM      5  C3  UNL     1      20.182   1.080  32.133  0.00  0.00    +0.062 A 
ATOM      6  C4  UNL     1      20.891   2.153  32.695  0.00  0.00    +0.038 A 
ATOM      7  C5  UNL     1      22.029   2.671  32.063  0.00  0.00    +0.035 A 
ATOM      8  C19 UNL     1      22.437   2.134  30.831  0.00  0.00    +0.038 A 
ATOM      9  C20 UNL     1      21.742   1.059  30.251  0.00  0.00    +0.062 A 
ATOM     10  C23 UNL     1      20.618   0.534  30.912  0.00  0.00    +0.030 A 
BRANCH   5  11
ATOM     11  C2  UNL     1      18.989   0.534  32.820  0.00  0.00    +0.339 C 
ATOM     12  O2  UNL     1      18.504  -0.575  32.463  0.00  0.00    -0.245 OA
BRANCH  11  14
ATOM     13  C1  UNL     1      17.393   0.697  34.707  0.00  0.00    +0.280 C 
ATOM     14  O1  UNL     1      18.399   1.251  33.867  0.00  0.00    -0.464 OA
ENDBRANCH  11  14
ENDBRANCH   5  11
BRANCH   9  15
ATOM     15  C21 UNL     1      22.180   0.490  28.956  0.00  0.00    +0.339 C 
ATOM     16  O4  UNL     1      22.233   1.221  27.928  0.00  0.00    -0.245 OA
BRANCH  15  17
ATOM     17  O5  UNL     1      22.533  -0.861  28.872  0.00  0.00    -0.464 OA
ATOM     18  C22 UNL     1      23.885  -1.304  28.896  0.00  0.00    +0.280 C 
ENDBRANCH  15  17
ENDBRANCH   9  15
ENDBRANCH   1   7
BRANCH   2  19
ATOM     19  C7  UNL     1      22.913   6.306  33.294  0.00  0.00    +0.050 C 
ATOM     20  C14 UNL     1      24.444   6.486  32.955  0.00  0.00    +0.016 C 
ATOM     21  C15 UNL     1      24.889   7.943  32.741  0.00  0.00    +0.001 C 
ATOM     22  C16 UNL     1      24.078   8.628  31.627  0.00  0.00    +0.000 C 
ATOM     23  C17 UNL     1      22.591   8.221  31.607  0.00  0.00    +0.001 C 
ATOM     24  C18 UNL     1      22.138   7.630  32.949  0.00  0.00    +0.016 C 
BRANCH  19  25
ATOM     25  C8  UNL     1      22.661   5.948  34.819  0.00  0.00    +0.004 C 
ATOM     26  C9  UNL     1      21.163   5.985  35.277  0.00  0.00    +0.004 C 
ATOM     27  C10 UNL     1      20.848   7.118  36.262  0.00  0.00    +0.000 C 
ATOM     28  C11 UNL     1      21.715   7.037  37.530  0.00  0.00    +0.000 C 
ATOM     29  C12 UNL     1      23.133   6.501  37.266  0.00  0.00    +0.000 C 
ATOM     30  C13 UNL     1      23.573   6.725  35.815  0.00  0.00    +0.004 C 
ENDBRANCH  19  25
ENDBRANCH   2  19
TORSDOF 7
ENDMDL
MODEL 2
REMARK VINA RESULT:    -7.207      0.172      3.727
REMARK INTER + INTRA:         -11.110
REMARK INTER:                 -10.134
REMARK INTRA:                  -0.975
REMARK UNBOUND:                -0.954
REMARK  Name = /home/qwerty/github/datacon2025hack/step_04_hit_selection/docking/ligands/lig_604.pdb
REMARK  9 active torsions:
REMARK  status: ('A' for Active; 'I' for Inactive)
REMARK    1  A    between atoms: C1_1  and  O1_2
REMARK    2  A    between atoms: O1_2  and  C2_3
REMARK    3  A    between atoms: C2_3  and  C3_5
REMARK    4  A    between atoms: C5_7  and  N1_8
REMARK    5  A    between atoms: C6_9  and  C7_11
REMARK    6  A    between atoms: C7_11  and  C8_12
REMARK    7  A    between atoms: C20_24  and  C21_25
REMARK    8  A    between atoms: C21_25  and  O5_27
REMARK    9  A    between atoms: O5_27  and  C22_28
REMARK                            x       y       z     vdW  Elec       q    Type
REMARK                         _______ _______ _______ _____ _____    ______ ____
ROOT
ATOM      1  N1  UNL     1      22.729   3.877  32.700  0.00  0.00    -0.285 N 
ATOM      2  C6  UNL     1      22.337   5.260  32.565  0.00  0.00    +0.224 C 
ATOM      3  O3  UNL     1      21.440   5.559  31.728  0.00  0.00    -0.275 OA
ATOM      4  H5  UNL     1      23.588   3.634  33.241  0.00  0.00    +0.155 HD
ENDROOT
BRANCH   1   7
ATOM      5  C3  UNL     1      21.842   1.144  30.301  0.00  0.00    +0.062 A 
ATOM      6  C4  UNL     1      22.497   2.229  30.903  0.00  0.00    +0.038 A 
ATOM      7  C5  UNL     1      22.017   2.785  32.096  0.00  0.00    +0.035 A 
ATOM      8  C19 UNL     1      20.890   2.220  32.715  0.00  0.00    +0.038 A 
ATOM      9  C20 UNL     1      20.220   1.133  32.129  0.00  0.00    +0.062 A 
ATOM     10  C23 UNL     1      20.699   0.605  30.918  0.00  0.00    +0.030 A 
BRANCH   5  11
ATOM     11  C2  UNL     1      22.354   0.576  29.032  0.00  0.00    +0.339 C 
ATOM     12  O2  UNL     1      22.518   1.319  28.026  0.00  0.00    -0.245 OA
BRANCH  11  14
ATOM     13  C1  UNL     1      23.991  -1.279  28.909  0.00  0.00    +0.280 C 
ATOM     14  O1  UNL     1      22.656  -0.788  28.951  0.00  0.00    -0.464 OA
ENDBRANCH  11  14
ENDBRANCH   5  11
BRANCH   9  15
ATOM     15  C21 UNL     1      19.027   0.543  32.780  0.00  0.00    +0.339 C 
ATOM     16  O4  UNL     1      18.595  -0.583  32.408  0.00  0.00    -0.245 OA
BRANCH  15  17
ATOM     17  O5  UNL     1      18.380   1.237  33.807  0.00  0.00    -0.464 OA
ATOM     18  C22 UNL     1      17.429   0.622  34.669  0.00  0.00    +0.280 C 
ENDBRANCH  15  17
ENDBRANCH   9  15
ENDBRANCH   1   7
BRANCH   2  19
ATOM     19  C7  UNL     1      22.958   6.361  33.453  0.00  0.00    +0.050 C 
ATOM     20  C14 UNL     1      24.498   6.479  33.126  0.00  0.00    +0.016 C 
ATOM     21  C15 UNL     1      25.007   7.917  32.937  0.00  0.00    +0.001 C 
ATOM     22  C16 UNL     1      24.234   8.655  31.831  0.00  0.00    +0.000 C 
ATOM     23  C17 UNL     1      22.731   8.315  31.796  0.00  0.00    +0.001 C 
ATOM     24  C18 UNL     1      22.244   7.723  33.126  0.00  0.00    +0.016 C 
BRANCH  19  25
ATOM     25  C8  UNL     1      22.681   5.989  34.971  0.00  0.00    +0.004 C 
ATOM     26  C9  UNL     1      21.183   6.082  35.421  0.00  0.00    +0.004 C 
ATOM     27  C10 UNL     1      20.908   7.212  36.422  0.00  0.00    +0.000 C 
ATOM     28  C11 UNL     1      21.763   7.075  37.693  0.00  0.00    +0.000 C 
ATOM     29  C12 UNL     1      23.159   6.484  37.429  0.00  0.00    +0.000 C 
ATOM     30  C13 UNL     1      23.617   6.713  35.985  0.00  0.00    +0.004 C 
ENDBRANCH  19  25
ENDBRANCH   2  19
TORSDOF 7
ENDMDL
MODEL 3
REMARK VINA RESULT:    -6.828     15.168     17.288
REMARK INTER + INTRA:         -10.576
REMARK INTER:                  -9.252
REMARK INTRA:                  -1.324
REMARK UNBOUND:                -0.954
REMARK  Name = /home/qwerty/github/datacon2025hack/step_04_hit_selection/docking/ligands/lig_604.pdb
REMARK  9 active torsions:
REMARK  status: ('A' for Active; 'I' for Inactive)
REMARK    1  A    between atoms: C1_1  and  O1_2
REMARK    2  A    between atoms: O1_2  and  C2_3
REMARK    3  A    between atoms: C2_3  and  C3_5
REMARK    4  A    between atoms: C5_7  and  N1_8
REMARK    5  A    between atoms: C6_9  and  C7_11
REMARK    6  A    between atoms: C7_11  and  C8_12
REMARK    7  A    between atoms: C20_24  and  C21_25
REMARK    8  A    between atoms: C21_25  and  O5_27
REMARK    9  A    between atoms: O5_27  and  C22_28
REMARK                            x       y       z     vdW  Elec       q    Type
REMARK                         _______ _______ _______ _____ _____    ______ ____
ROOT
ATOM      1  N1  UNL     1       8.133   9.631  25.399  0.00  0.00    -0.285 N 
ATOM      2  C6  UNL     1       9.239   8.867  24.873  0.00  0.00    +0.224 C 
ATOM      3  O3  UNL     1      10.232   8.641  25.619  0.00  0.00    -0.275 OA
ATOM      4  H5  UNL     1       7.396   9.987  24.751  0.00  0.00    +0.155 HD
ENDROOT
BRANCH   1   7
ATOM      5  C3  UNL     1       7.486   9.276  29.069  0.00  0.00    +0.062 A 
ATOM      6  C4  UNL     1       7.607   8.984  27.701  0.00  0.00    +0.038 A 
ATOM      7  C5  UNL     1       7.991   9.973  26.787  0.00  0.00    +0.035 A 
ATOM      8  C19 UNL     1       8.299  11.261  27.255  0.00  0.00    +0.038 A 
ATOM      9  C20 UNL     1       8.185  11.575  28.620  0.00  0.00    +0.062 A 
ATOM     10  C23 UNL     1       7.772  10.577  29.520  0.00  0.00    +0.030 A 
BRANCH   5  11
ATOM     11  C2  UNL     1       7.064   8.223  30.021  0.00  0.00    +0.339 C 
ATOM     12  O2  UNL     1       6.851   8.511  31.231  0.00  0.00    -0.245 OA
BRANCH  11  14
ATOM     13  C1  UNL     1       6.402   5.868  30.412  0.00  0.00    +0.280 C 
ATOM     14  O1  UNL     1       6.902   6.906  29.576  0.00  0.00    -0.464 OA
ENDBRANCH  11  14
ENDBRANCH   5  11
BRANCH   9  15
ATOM     15  C21 UNL     1       8.503  12.936  29.110  0.00  0.00    +0.339 C 
ATOM     16  O4  UNL     1       7.577  13.769  29.311  0.00  0.00    -0.245 OA
BRANCH  15  17
ATOM     17  O5  UNL     1       9.834  13.297  29.348  0.00  0.00    -0.464 OA
ATOM     18  C22 UNL     1      10.671  13.850  28.338  0.00  0.00    +0.280 C 
ENDBRANCH  15  17
ENDBRANCH   9  15
ENDBRANCH   1   7
BRANCH   2  19
ATOM     19  C7  UNL     1       9.205   8.287  23.442  0.00  0.00    +0.050 C 
ATOM     20  C14 UNL     1       7.951   8.868  22.680  0.00  0.00    +0.016 C 
ATOM     21  C15 UNL     1       8.239   9.376  21.258  0.00  0.00    +0.001 C 
ATOM     22  C16 UNL     1       9.335  10.456  21.249  0.00  0.00    +0.000 C 
ATOM     23  C17 UNL     1      10.466  10.195  22.264  0.00  0.00    +0.001 C 
ATOM     24  C18 UNL     1      10.521   8.724  22.699  0.00  0.00    +0.016 C 
BRANCH  19  25
ATOM     25  C8  UNL     1       9.179   6.704  23.547  0.00  0.00    +0.004 C 
ATOM     26  C9  UNL     1       8.970   5.946  22.192  0.00  0.00    +0.004 C 
ATOM     27  C10 UNL     1       7.622   5.219  22.093  0.00  0.00    +0.000 C 
ATOM     28  C11 UNL     1       7.435   4.196  23.227  0.00  0.00    +0.000 C 
ATOM     29  C12 UNL     1       8.079   4.632  24.555  0.00  0.00    +0.000 C 
ATOM     30  C13 UNL     1       8.226   6.155  24.650  0.00  0.00    +0.004 C 
ENDBRANCH  19  25
ENDBRANCH   2  19
TORSDOF 7
ENDMDL
MODEL 4
REMARK VINA RESULT:    -6.824      6.605     11.401
REMARK INTER + INTRA:         -10.570
REMARK INTER:                  -9.483
REMARK INTRA:                  -1.087
REMARK UNBOUND:                -0.954
REMARK  Name = /home/qwerty/github/datacon2025hack/step_04_hit_selection/docking/ligands/lig_604.pdb
REMARK  9 active torsions:
REMARK  status: ('A' for Active; 'I' for Inactive)
REMARK    1  A    between atoms: C1_1  and  O1_2
REMARK    2  A    between atoms: O1_2  and  C2_3
REMARK    3  A    between atoms: C2_3  and  C3_5
REMARK    4  A    between atoms: C5_7  and  N1_8
REMARK    5  A    between atoms: C6_9  and  C7_11
REMARK    6  A    between atoms: C7_11  and  C8_12
REMARK    7  A    between atoms: C20_24  and  C21_25
REMARK    8  A    between atoms: C21_25  and  O5_27
REMARK    9  A    between atoms: O5_27  and  C22_28
REMARK                            x       y       z     vdW  Elec       q    Type
REMARK                         _______ _______ _______ _____ _____    ______ ____
ROOT
ATOM      1  N1  UNL     1      19.243   0.034  25.199  0.00  0.00    -0.285 N 
ATOM      2  C6  UNL     1      17.817   0.256  25.189  0.00  0.00    +0.224 C 
ATOM      3  O3  UNL     1      17.339   1.178  25.907  0.00  0.00    -0.275 OA
ATOM      4  H5  UNL     1      19.635  -0.831  24.767  0.00  0.00    +0.155 HD
ENDROOT
BRANCH   1   7
ATOM      5  C3  UNL     1      21.624   1.481  27.700  0.00  0.00    +0.062 A 
ATOM      6  C4  UNL     1      20.683   0.640  27.086  0.00  0.00    +0.038 A 
ATOM      7  C5  UNL     1      20.183   0.933  25.810  0.00  0.00    +0.035 A 
ATOM      8  C19 UNL     1      20.665   2.060  25.124  0.00  0.00    +0.038 A 
ATOM      9  C20 UNL     1      21.607   2.915  25.720  0.00  0.00    +0.062 A 
ATOM     10  C23 UNL     1      22.077   2.621  27.012  0.00  0.00    +0.030 A 
BRANCH   5  11
ATOM     11  C2  UNL     1      22.132   1.166  29.055  0.00  0.00    +0.339 C 
ATOM     12  O2  UNL     1      21.638   1.736  30.065  0.00  0.00    -0.245 OA
BRANCH  11  14
ATOM     13  C1  UNL     1      24.538   0.593  29.197  0.00  0.00    +0.280 C 
ATOM     14  O1  UNL     1      23.162   0.231  29.213  0.00  0.00    -0.464 OA
ENDBRANCH  11  14
ENDBRANCH   5  11
BRANCH   9  15
ATOM     15  C21 UNL     1      22.107   4.107  24.998  0.00  0.00    +0.339 C 
ATOM     16  O4  UNL     1      23.157   4.690  25.388  0.00  0.00    -0.245 OA
BRANCH  15  17
ATOM     17  O5  UNL     1      21.413   4.587  23.882  0.00  0.00    -0.464 OA
ATOM     18  C22 UNL     1      21.338   5.972  23.562  0.00  0.00    +0.280 C 
ENDBRANCH  15  17
ENDBRANCH   9  15
ENDBRANCH   1   7
BRANCH   2  19
ATOM     19  C7  UNL     1      16.882  -0.579  24.287  0.00  0.00    +0.050 C 
ATOM     20  C14 UNL     1      17.105  -2.112  24.592  0.00  0.00    +0.016 C 
ATOM     21  C15 UNL     1      15.814  -2.928  24.766  0.00  0.00    +0.001 C 
ATOM     22  C16 UNL     1      14.922  -2.354  25.880  0.00  0.00    +0.000 C 
ATOM     23  C17 UNL     1      14.923  -0.813  25.937  0.00  0.00    +0.001 C 
ATOM     24  C18 UNL     1      15.395  -0.188  24.618  0.00  0.00    +0.016 C 
BRANCH  19  25
ATOM     25  C8  UNL     1      17.185  -0.205  22.775  0.00  0.00    +0.004 C 
ATOM     26  C9  UNL     1      16.912   1.289  22.387  0.00  0.00    +0.004 C 
ATOM     27  C10 UNL     1      15.736   1.469  21.417  0.00  0.00    +0.000 C 
ATOM     28  C11 UNL     1      15.942   0.684  20.111  0.00  0.00    +0.000 C 
ATOM     29  C12 UNL     1      16.694  -0.644  20.309  0.00  0.00    +0.000 C 
ATOM     30  C13 UNL     1      16.551  -1.179  21.737  0.00  0.00    +0.004 C 
ENDBRANCH  19  25
ENDBRANCH   2  19
TORSDOF 7
ENDMDL
MODEL 5
REMARK VINA RESULT:    -6.725     15.142     17.389
REMARK INTER + INTRA:         -10.431
REMARK INTER:                  -9.015
REMARK INTRA:                  -1.415
REMARK UNBOUND:                -0.954
REMARK  Name = /home/qwerty/github/datacon2025hack/step_04_hit_selection/docking/ligands/lig_604.pdb
REMARK  9 active torsions:
REMARK  status: ('A' for Active; 'I' for Inactive)
REMARK    1  A    between atoms: C1_1  and  O1_2
REMARK    2  A    between atoms: O1_2  and  C2_3
REMARK    3  A    between atoms: C2_3  and  C3_5
REMARK    4  A    between atoms: C5_7  and  N1_8
REMARK    5  A    between atoms: C6_9  and  C7_11
REMARK    6  A    between atoms: C7_11  and  C8_12
REMARK    7  A    between atoms: C20_24  and  C21_25
REMARK    8  A    between atoms: C21_25  and  O5_27
REMARK    9  A    between atoms: O5_27  and  C22_28
REMARK                            x       y       z     vdW  Elec       q    Type
REMARK                         _______ _______ _______ _____ _____    ______ ____
ROOT
ATOM      1  N1  UNL     1       8.191   9.504  25.350  0.00  0.00    -0.285 N 
ATOM      2  C6  UNL     1       9.343   8.840  24.790  0.00  0.00    +0.224 C 
ATOM      3  O3  UNL     1      10.395   8.756  25.483  0.00  0.00    -0.275 OA
ATOM      4  H5  UNL     1       7.384   9.749  24.735  0.00  0.00    +0.155 HD
ENDROOT
BRANCH   1   7
ATOM      5  C3  UNL     1       8.149  11.657  28.413  0.00  0.00    +0.062 A 
ATOM      6  C4  UNL     1       8.269  11.238  27.079  0.00  0.00    +0.038 A 
ATOM      7  C5  UNL     1       8.090   9.893  26.730  0.00  0.00    +0.035 A 
ATOM      8  C19 UNL     1       7.746   8.963  27.725  0.00  0.00    +0.038 A 
ATOM      9  C20 UNL     1       7.622   9.362  29.067  0.00  0.00    +0.062 A 
ATOM     10  C23 UNL     1       7.830  10.710  29.403  0.00  0.00    +0.030 A 
BRANCH   5  11
ATOM     11  C2  UNL     1       8.354  13.080  28.768  0.00  0.00    +0.339 C 
ATOM     12  O2  UNL     1       7.724  13.590  29.734  0.00  0.00    -0.245 OA
BRANCH  11  14
ATOM     13  C1  UNL     1      10.633  13.957  28.351  0.00  0.00    +0.280 C 
ATOM     14  O1  UNL     1       9.251  13.860  28.029  0.00  0.00    -0.464 OA
ENDBRANCH  11  14
ENDBRANCH   5  11
BRANCH   9  15
ATOM     15  C21 UNL     1       7.266   8.378  30.115  0.00  0.00    +0.339 C 
ATOM     16  O4  UNL     1       6.709   8.762  31.181  0.00  0.00    -0.245 OA
BRANCH  15  17
ATOM     17  O5  UNL     1       7.551   7.022  29.923  0.00  0.00    -0.464 OA
ATOM     18  C22 UNL     1       6.547   6.013  29.967  0.00  0.00    +0.280 C 
ENDBRANCH  15  17
ENDBRANCH   9  15
ENDBRANCH   1   7
BRANCH   2  19
ATOM     19  C7  UNL     1       9.293   8.195  23.387  0.00  0.00    +0.050 C 
ATOM     20  C14 UNL     1       8.037   8.749  22.609  0.00  0.00    +0.016 C 
ATOM     21  C15 UNL     1       8.317   9.188  21.162  0.00  0.00    +0.001 C 
ATOM     22  C16 UNL     1       9.420  10.258  21.095  0.00  0.00    +0.000 C 
ATOM     23  C17 UNL     1      10.558  10.036  22.112  0.00  0.00    +0.001 C 
ATOM     24  C18 UNL     1      10.605   8.587  22.614  0.00  0.00    +0.016 C 
BRANCH  19  25
ATOM     25  C8  UNL     1       9.257   6.618  23.566  0.00  0.00    +0.004 C 
ATOM     26  C9  UNL     1       9.079   5.798  22.243  0.00  0.00    +0.004 C 
ATOM     27  C10 UNL     1       7.731   5.071  22.144  0.00  0.00    +0.000 C 
ATOM     28  C11 UNL     1       7.511   4.104  23.319  0.00  0.00    +0.000 C 
ATOM     29  C12 UNL     1       8.122   4.600  24.641  0.00  0.00    +0.000 C 
ATOM     30  C13 UNL     1       8.273   6.124  24.669  0.00  0.00    +0.004 C 
ENDBRANCH  19  25
ENDBRANCH   2  19
TORSDOF 7
ENDMDL
MODEL 6
REMARK VINA RESULT:    -6.699      6.292     11.271
REMARK INTER + INTRA:         -10.394
REMARK INTER:                  -9.401
REMARK INTRA:                  -0.993
REMARK UNBOUND:                -0.954
REMARK  Name = /home/qwerty/github/datacon2025hack/step_04_hit_selection/docking/ligands/lig_604.pdb
REMARK  9 active torsions:
REMARK  status: ('A' for Active; 'I' for Inactive)
REMARK    1  A    between atoms: C1_1  and  O1_2
REMARK    2  A    between atoms: O1_2  and  C2_3
REMARK    3  A    between atoms: C2_3  and  C3_5
REMARK    4  A    between atoms: C5_7  and  N1_8
REMARK    5  A    between atoms: C6_9  and  C7_11
REMARK    6  A    between atoms: C7_11  and  C8_12
REMARK    7  A    between atoms: C20_24  and  C21_25
REMARK    8  A    between atoms: C21_25  and  O5_27
REMARK    9  A    between atoms: O5_27  and  C22_28
REMARK                            x       y       z     vdW  Elec       q    Type
REMARK                         _______ _______ _______ _____ _____    ______ ____
ROOT
ATOM      1  N1  UNL     1      19.427   0.186  25.531  0.00  0.00    -0.285 N 
ATOM      2  C6  UNL     1      18.031   0.542  25.618  0.00  0.00    +0.224 C 
ATOM      3  O3  UNL     1      17.693   1.511  26.353  0.00  0.00    -0.275 OA
ATOM      4  H5  UNL     1      19.705  -0.716  25.086  0.00  0.00    +0.155 HD
ENDROOT
BRANCH   1   7
ATOM      5  C3  UNL     1      21.880   2.992  25.883  0.00  0.00    +0.062 A 
ATOM      6  C4  UNL     1      20.866   2.162  25.379  0.00  0.00    +0.038 A 
ATOM      7  C5  UNL     1      20.488   0.997  26.061  0.00  0.00    +0.035 A 
ATOM      8  C19 UNL     1      21.105   0.683  27.283  0.00  0.00    +0.038 A 
ATOM      9  C20 UNL     1      22.121   1.501  27.805  0.00  0.00    +0.062 A 
ATOM     10  C23 UNL     1      22.507   2.651  27.094  0.00  0.00    +0.030 A 
BRANCH   5  11
ATOM     11  C2  UNL     1      22.278   4.212  25.144  0.00  0.00    +0.339 C 
ATOM     12  O2  UNL     1      23.306   4.856  25.490  0.00  0.00    -0.245 OA
BRANCH  11  14
ATOM     13  C1  UNL     1      20.608   5.747  24.148  0.00  0.00    +0.280 C 
ATOM     14  O1  UNL     1      21.512   4.651  24.059  0.00  0.00    -0.464 OA
ENDBRANCH  11  14
ENDBRANCH   5  11
BRANCH   9  15
ATOM     15  C21 UNL     1      22.775   1.164  29.090  0.00  0.00    +0.339 C 
ATOM     16  O4  UNL     1      24.013   0.919  29.126  0.00  0.00    -0.245 OA
BRANCH  15  17
ATOM     17  O5  UNL     1      22.018   1.115  30.265  0.00  0.00    -0.464 OA
ATOM     18  C22 UNL     1      21.797   2.258  31.084  0.00  0.00    +0.280 C 
ENDBRANCH  15  17
ENDBRANCH   9  15
ENDBRANCH   1   7
BRANCH   2  19
ATOM     19  C7  UNL     1      16.959  -0.209  24.796  0.00  0.00    +0.050 C 
ATOM     20  C14 UNL     1      16.917  -1.717  25.260  0.00  0.00    +0.016 C 
ATOM     21  C15 UNL     1      15.506  -2.277  25.503  0.00  0.00    +0.001 C 
ATOM     22  C16 UNL     1      14.734  -1.445  26.542  0.00  0.00    +0.000 C 
ATOM     23  C17 UNL     1      15.001   0.070  26.440  0.00  0.00    +0.001 C 
ATOM     24  C18 UNL     1      15.565   0.464  25.068  0.00  0.00    +0.016 C 
BRANCH  19  25
ATOM     25  C8  UNL     1      17.313  -0.052  23.257  0.00  0.00    +0.004 C 
ATOM     26  C9  UNL     1      16.853   1.294  22.599  0.00  0.00    +0.004 C 
ATOM     27  C10 UNL     1      15.736   1.122  21.560  0.00  0.00    +0.000 C 
ATOM     28  C11 UNL     1      16.148   0.170  20.424  0.00  0.00    +0.000 C 
ATOM     29  C12 UNL     1      17.070  -0.971  20.888  0.00  0.00    +0.000 C 
ATOM     30  C13 UNL     1      16.905  -1.274  22.381  0.00  0.00    +0.004 C 
ENDBRANCH  19  25
ENDBRANCH   2  19
TORSDOF 7
ENDMDL
MODEL 7
REMARK VINA RESULT:    -6.615     12.180     14.907
REMARK INTER + INTRA:         -10.276
REMARK INTER:                  -9.319
REMARK INTRA:                  -0.957
REMARK UNBOUND:                -0.954
REMARK  Name = /home/qwerty/github/datacon2025hack/step_04_hit_selection/docking/ligands/lig_604.pdb
REMARK  9 active torsions:
REMARK  status: ('A' for Active; 'I' for Inactive)
REMARK    1  A    between atoms: C1_1  and  O1_2
REMARK    2  A    between atoms: O1_2  and  C2_3
REMARK    3  A    between atoms: C2_3  and  C3_5
REMARK    4  A    between atoms: C5_7  and  N1_8
REMARK    5  A    between atoms: C6_9  and  C7_11
REMARK    6  A    between atoms: C7_11  and  C8_12
REMARK    7  A    between atoms: C20_24  and  C21_25
REMARK    8  A    between atoms: C21_25  and  O5_27
REMARK    9  A    between atoms: O5_27  and  C22_28
REMARK                            x       y       z     vdW  Elec       q    Type
REMARK                         _______ _______ _______ _____ _____    ______ ____
ROOT
ATOM      1  N1  UNL     1      11.336  13.680  31.991  0.00  0.00    -0.285 N 
ATOM      2  C6  UNL     1      11.983  12.547  32.607  0.00  0.00    +0.224 C 
ATOM      3  O3  UNL     1      12.240  11.533  31.900  0.00  0.00    -0.275 OA
ATOM      4  H5  UNL     1      10.949  14.443  32.589  0.00  0.00    +0.155 HD
ENDROOT
BRANCH   1   7
ATOM      5  C3  UNL     1      12.096  14.363  28.389  0.00  0.00    +0.062 A 
ATOM      6  C4  UNL     1      12.230  14.244  29.782  0.00  0.00    +0.038 A 
ATOM      7  C5  UNL     1      11.155  13.818  30.572  0.00  0.00    +0.035 A 
ATOM      8  C19 UNL     1       9.943  13.465  29.956  0.00  0.00    +0.038 A 
ATOM      9  C20 UNL     1       9.788  13.576  28.563  0.00  0.00    +0.062 A 
ATOM     10  C23 UNL     1      10.868  14.032  27.788  0.00  0.00    +0.030 A 
BRANCH   5  11
ATOM     11  C2  UNL     1      13.237  14.829  27.569  0.00  0.00    +0.339 C 
ATOM     12  O2  UNL     1      13.102  14.982  26.324  0.00  0.00    -0.245 OA
BRANCH  11  14
ATOM     13  C1  UNL     1      15.571  15.652  27.467  0.00  0.00    +0.280 C 
ATOM     14  O1  UNL     1      14.468  15.101  28.177  0.00  0.00    -0.464 OA
ENDBRANCH  11  14
ENDBRANCH   5  11
BRANCH   9  15
ATOM     15  C21 UNL     1       8.507  13.210  27.916  0.00  0.00    +0.339 C 
ATOM     16  O4  UNL     1       7.613  14.085  27.742  0.00  0.00    -0.245 OA
BRANCH  15  17
ATOM     17  O5  UNL     1       8.288  11.893  27.500  0.00  0.00    -0.464 OA
ATOM     18  C22 UNL     1       7.974  10.843  28.407  0.00  0.00    +0.280 C 
ENDBRANCH  15  17
ENDBRANCH   9  15
ENDBRANCH   1   7
BRANCH   2  19
ATOM     19  C7  UNL     1      12.405  12.574  34.094  0.00  0.00    +0.050 C 
ATOM     20  C14 UNL     1      11.113  12.678  34.994  0.00  0.00    +0.016 C 
ATOM     21  C15 UNL     1      11.079  11.709  36.187  0.00  0.00    +0.001 C 
ATOM     22  C16 UNL     1      11.220  10.245  35.736  0.00  0.00    +0.000 C 
ATOM     23  C17 UNL     1      12.199  10.053  34.560  0.00  0.00    +0.001 C 
ATOM     24  C18 UNL     1      13.165  11.236  34.417  0.00  0.00    +0.016 C 
BRANCH  19  25
ATOM     25  C8  UNL     1      13.399  13.792  34.306  0.00  0.00    +0.004 C 
ATOM     26  C9  UNL     1      14.920  13.451  34.147  0.00  0.00    +0.004 C 
ATOM     27  C10 UNL     1      15.713  13.542  35.459  0.00  0.00    +0.000 C 
ATOM     28  C11 UNL     1      15.618  14.940  36.093  0.00  0.00    +0.000 C 
ATOM     29  C12 UNL     1      14.258  15.623  35.864  0.00  0.00    +0.000 C 
ATOM     30  C13 UNL     1      13.139  14.608  35.608  0.00  0.00    +0.004 C 
ENDBRANCH  19  25
ENDBRANCH   2  19
TORSDOF 7
ENDMDL
MODEL 8
REMARK VINA RESULT:    -6.614     14.833     17.044
REMARK INTER + INTRA:         -10.275
REMARK INTER:                  -8.874
REMARK INTRA:                  -1.401
REMARK UNBOUND:                -0.954
REMARK  Name = /home/qwerty/github/datacon2025hack/step_04_hit_selection/docking/ligands/lig_604.pdb
REMARK  9 active torsions:
REMARK  status: ('A' for Active; 'I' for Inactive)
REMARK    1  A    between atoms: C1_1  and  O1_2
REMARK    2  A    between atoms: O1_2  and  C2_3
REMARK    3  A    between atoms: C2_3  and  C3_5
REMARK    4  A    between atoms: C5_7  and  N1_8
REMARK    5  A    between atoms: C6_9  and  C7_11
REMARK    6  A    between atoms: C7_11  and  C8_12
REMARK    7  A    between atoms: C20_24  and  C21_25
REMARK    8  A    between atoms: C21_25  and  O5_27
REMARK    9  A    between atoms: O5_27  and  C22_28
REMARK                            x       y       z     vdW  Elec       q    Type
REMARK                         _______ _______ _______ _____ _____    ______ ____
ROOT
ATOM      1  N1  UNL     1       8.722   9.875  25.336  0.00  0.00    -0.285 N 
ATOM      2  C6  UNL     1       9.971   9.258  24.958  0.00  0.00    +0.224 C 
ATOM      3  O3  UNL     1      10.887   9.160  25.821  0.00  0.00    -0.275 OA
ATOM      4  H5  UNL     1       8.029  10.134  24.600  0.00  0.00    +0.155 HD
ENDROOT
BRANCH   1   7
ATOM      5  C3  UNL     1       7.596   9.449  28.881  0.00  0.00    +0.062 A 
ATOM      6  C4  UNL     1       7.921   9.177  27.542  0.00  0.00    +0.038 A 
ATOM      7  C5  UNL     1       8.371  10.195  26.692  0.00  0.00    +0.035 A 
ATOM      8  C19 UNL     1       8.539  11.493  27.201  0.00  0.00    +0.038 A 
ATOM      9  C20 UNL     1       8.221  11.787  28.537  0.00  0.00    +0.062 A 
ATOM     10  C23 UNL     1       7.744  10.759  29.369  0.00  0.00    +0.030 A 
BRANCH   5  11
ATOM     11  C2  UNL     1       7.107   8.365  29.763  0.00  0.00    +0.339 C 
ATOM     12  O2  UNL     1       6.892   8.591  30.985  0.00  0.00    -0.245 OA
BRANCH  11  14
ATOM     13  C1  UNL     1       6.740   5.933  30.060  0.00  0.00    +0.280 C 
ATOM     14  O1  UNL     1       6.884   7.086  29.239  0.00  0.00    -0.464 OA
ENDBRANCH  11  14
ENDBRANCH   5  11
BRANCH   9  15
ATOM     15  C21 UNL     1       8.391  13.158  29.069  0.00  0.00    +0.339 C 
ATOM     16  O4  UNL     1       7.417  13.755  29.606  0.00  0.00    -0.245 OA
BRANCH  15  17
ATOM     17  O5  UNL     1       9.634  13.793  28.973  0.00  0.00    -0.464 OA
ATOM     18  C22 UNL     1      10.641  13.663  29.971  0.00  0.00    +0.280 C 
ENDBRANCH  15  17
ENDBRANCH   9  15
ENDBRANCH   1   7
BRANCH   2  19
ATOM     19  C7  UNL     1      10.184   8.680  23.541  0.00  0.00    +0.050 C 
ATOM     20  C14 UNL     1      11.266   7.533  23.610  0.00  0.00    +0.016 C 
ATOM     21  C15 UNL     1      10.890   6.247  22.855  0.00  0.00    +0.001 C 
ATOM     22  C16 UNL     1       9.555   5.664  23.352  0.00  0.00    +0.000 C 
ATOM     23  C17 UNL     1       8.505   6.738  23.702  0.00  0.00    +0.001 C 
ATOM     24  C18 UNL     1       8.818   8.086  23.038  0.00  0.00    +0.016 C 
BRANCH  19  25
ATOM     25  C8  UNL     1      10.611   9.868  22.579  0.00  0.00    +0.004 C 
ATOM     26  C9  UNL     1       9.689  10.082  21.330  0.00  0.00    +0.004 C 
ATOM     27  C10 UNL     1      10.370   9.747  19.996  0.00  0.00    +0.000 C 
ATOM     28  C11 UNL     1      11.645  10.579  19.776  0.00  0.00    +0.000 C 
ATOM     29  C12 UNL     1      12.410  10.880  21.077  0.00  0.00    +0.000 C 
ATOM     30  C13 UNL     1      12.115   9.848  22.170  0.00  0.00    +0.004 C 
ENDBRANCH  19  25
ENDBRANCH   2  19
TORSDOF 7
ENDMDL
MODEL 9
REMARK VINA RESULT:    -6.539     12.028     14.566
REMARK INTER + INTRA:         -10.169
REMARK INTER:                  -8.766
REMARK INTRA:                  -1.403
REMARK UNBOUND:                -0.954
REMARK  Name = /home/qwerty/github/datacon2025hack/step_04_hit_selection/docking/ligands/lig_604.pdb
REMARK  9 active torsions:
REMARK  status: ('A' for Active; 'I' for Inactive)
REMARK    1  A    between atoms: C1_1  and  O1_2
REMARK    2  A    between atoms: O1_2  and  C2_3
REMARK    3  A    between atoms: C2_3  and  C3_5
REMARK    4  A    between atoms: C5_7  and  N1_8
REMARK    5  A    between atoms: C6_9  and  C7_11
REMARK    6  A    between atoms: C7_11  and  C8_12
REMARK    7  A    between atoms: C20_24  and  C21_25
REMARK    8  A    between atoms: C21_25  and  O5_27
REMARK    9  A    between atoms: O5_27  and  C22_28
REMARK                            x       y       z     vdW  Elec       q    Type
REMARK                         _______ _______ _______ _____ _____    ______ ____
ROOT
ATOM      1  N1  UNL     1      11.583  13.233  31.874  0.00  0.00    -0.285 N 
ATOM      2  C6  UNL     1      12.219  12.009  32.300  0.00  0.00    +0.224 C 
ATOM      3  O3  UNL     1      12.347  11.068  31.468  0.00  0.00    -0.275 OA
ATOM      4  H5  UNL     1      11.300  13.943  32.584  0.00  0.00    +0.155 HD
ENDROOT
BRANCH   1   7
ATOM      5  C3  UNL     1      12.017  14.333  28.322  0.00  0.00    +0.062 A 
ATOM      6  C4  UNL     1      12.276  14.054  29.674  0.00  0.00    +0.038 A 
ATOM      7  C5  UNL     1      11.274  13.534  30.503  0.00  0.00    +0.035 A 
ATOM      8  C19 UNL     1      10.010  13.250  29.962  0.00  0.00    +0.038 A 
ATOM      9  C20 UNL     1       9.730  13.522  28.612  0.00  0.00    +0.062 A 
ATOM     10  C23 UNL     1      10.739  14.069  27.801  0.00  0.00    +0.030 A 
BRANCH   5  11
ATOM     11  C2  UNL     1      13.083  14.897  27.461  0.00  0.00    +0.339 C 
ATOM     12  O2  UNL     1      12.835  15.196  26.261  0.00  0.00    -0.245 OA
BRANCH  11  14
ATOM     13  C1  UNL     1      15.449  14.212  27.722  0.00  0.00    +0.280 C 
ATOM     14  O1  UNL     1      14.366  15.098  27.982  0.00  0.00    -0.464 OA
ENDBRANCH  11  14
ENDBRANCH   5  11
BRANCH   9  15
ATOM     15  C21 UNL     1       8.394  13.228  28.046  0.00  0.00    +0.339 C 
ATOM     16  O4  UNL     1       7.695  14.159  27.555  0.00  0.00    -0.245 OA
BRANCH  15  17
ATOM     17  O5  UNL     1       7.905  11.918  28.056  0.00  0.00    -0.464 OA
ATOM     18  C22 UNL     1       8.385  10.912  27.172  0.00  0.00    +0.280 C 
ENDBRANCH  15  17
ENDBRANCH   9  15
ENDBRANCH   1   7
BRANCH   2  19
ATOM     19  C7  UNL     1      12.781  11.853  33.730  0.00  0.00    +0.050 C 
ATOM     20  C14 UNL     1      14.025  10.882  33.692  0.00  0.00    +0.016 C 
ATOM     21  C15 UNL     1      15.253  11.377  34.474  0.00  0.00    +0.001 C 
ATOM     22  C16 UNL     1      15.721  12.758  33.986  0.00  0.00    +0.000 C 
ATOM     23  C17 UNL     1      14.563  13.704  33.607  0.00  0.00    +0.001 C 
ATOM     24  C18 UNL     1      13.235  13.269  34.241  0.00  0.00    +0.016 C 
BRANCH  19  25
ATOM     25  C8  UNL     1      11.617  11.320  34.667  0.00  0.00    +0.004 C 
ATOM     26  C9  UNL     1      11.117  12.330  35.756  0.00  0.00    +0.004 C 
ATOM     27  C10 UNL     1      11.455  11.907  37.192  0.00  0.00    +0.000 C 
ATOM     28  C11 UNL     1      10.868  10.528  37.538  0.00  0.00    +0.000 C 
ATOM     29  C12 UNL     1      10.839   9.559  36.343  0.00  0.00    +0.000 C 
ATOM     30  C13 UNL     1      11.889   9.916  35.286  0.00  0.00    +0.004 C 
ENDBRANCH  19  25
ENDBRANCH   2  19
TORSDOF 7
ENDMDL
