MODEL 1
REMARK VINA RESULT:    -7.220      0.000      0.000
REMARK INTER + INTRA:          -9.162
REMARK INTER:                  -8.486
REMARK INTRA:                  -0.676
REMARK UNBOUND:                -0.676
REMARK  Name = /home/qwerty/github/datacon2025hack/step_04_hit_selection/docking/ligands/lig_743.pdb
REMARK  6 active torsions:
REMARK  status: ('A' for Active; 'I' for Inactive)
REMARK    1  A    between atoms: C1_1  and  C2_2
REMARK    2  A    between atoms: C2_2  and  C3_3
REMARK    3  A    between atoms: C2_2  and  C4_4
REMARK    4  A    between atoms: C2_2  and  C5_5
REMARK    5  A    between atoms: N1_7  and  C6_8
REMARK    6  A    between atoms: C9_11  and  C10_12
REMARK                            x       y       z     vdW  Elec       q    Type
REMARK                         _______ _______ _______ _____ _____    ______ ____
ROOT
ATOM      1  C10 UNL     1      21.378   2.699  27.852  0.00  0.00    -0.017 A 
ATOM      2  C11 UNL     1      22.283   1.633  28.109  0.00  0.00    +0.010 A 
ATOM      3  C12 UNL     1      22.043   0.712  29.145  0.00  0.00    +0.027 A 
ATOM      4  C13 UNL     1      20.896   0.880  29.915  0.00  0.00    +0.047 A 
ATOM      5  N2  UNL     1      20.468   0.094  30.924  0.00  0.00    -0.350 N 
ATOM      6  C14 UNL     1      19.304   0.650  31.322  0.00  0.00    +0.106 A 
ATOM      7  C15 UNL     1      18.998   1.779  30.595  0.00  0.00    -0.008 A 
ATOM      8  C16 UNL     1      20.017   1.912  29.678  0.00  0.00    +0.004 A 
ATOM      9  C17 UNL     1      20.219   2.834  28.654  0.00  0.00    +0.018 A 
ATOM     10  C18 UNL     1      17.693   2.510  30.720  0.00  0.00    +0.057 C 
ATOM     11  C19 UNL     1      17.107   2.324  32.140  0.00  0.00    +0.109 C 
ATOM     12  N3  UNL     1      17.208   0.931  32.607  0.00  0.00    -0.310 N 
ATOM     13  C20 UNL     1      18.384   0.154  32.340  0.00  0.00    +0.261 C 
ATOM     14  O2  UNL     1      18.593  -0.933  32.941  0.00  0.00    -0.269 OA
ATOM     15  H15 UNL     1      20.922  -0.772  31.294  0.00  0.00    +0.166 HD
ATOM     16  H21 UNL     1      16.465   0.545  33.232  0.00  0.00    +0.149 HD
ENDROOT
BRANCH   1  20
ATOM     17  C6  UNL     1      22.143   5.477  24.649  0.00  0.00    +0.033 A 
ATOM     18  C7  UNL     1      23.137   4.572  25.058  0.00  0.00    +0.024 A 
ATOM     19  C8  UNL     1      22.886   3.668  26.095  0.00  0.00    +0.010 A 
ATOM     20  C9  UNL     1      21.643   3.659  26.751  0.00  0.00    -0.018 A 
ATOM     21  C21 UNL     1      20.659   4.581  26.353  0.00  0.00    +0.010 A 
ATOM     22  C22 UNL     1      20.911   5.485  25.317  0.00  0.00    +0.024 A 
BRANCH  17  25
ATOM     23  C5  UNL     1      22.181   6.156  22.204  0.00  0.00    +0.223 C 
ATOM     24  O1  UNL     1      21.447   5.187  21.862  0.00  0.00    -0.275 OA
ATOM     25  N1  UNL     1      22.384   6.432  23.601  0.00  0.00    -0.285 N 
ATOM     26  H10 UNL     1      22.643   7.404  23.883  0.00  0.00    +0.155 HD
BRANCH  23  28
ATOM     27  C1  UNL     1      21.923   8.361  20.999  0.00  0.00    +0.020 C 
ATOM     28  C2  UNL     1      22.770   7.076  21.141  0.00  0.00    +0.039 C 
ATOM     29  C3  UNL     1      22.791   6.355  19.778  0.00  0.00    +0.020 C 
ATOM     30  C4  UNL     1      24.204   7.466  21.544  0.00  0.00    +0.020 C 
ENDBRANCH  23  28
ENDBRANCH  17  25
ENDBRANCH   1  20
TORSDOF 3
ENDMDL
MODEL 2
REMARK VINA RESULT:    -7.158      2.762     10.694
REMARK INTER + INTRA:          -9.089
REMARK INTER:                  -8.447
REMARK INTRA:                  -0.642
REMARK UNBOUND:                -0.676
REMARK  Name = /home/qwerty/github/datacon2025hack/step_04_hit_selection/docking/ligands/lig_743.pdb
REMARK  6 active torsions:
REMARK  status: ('A' for Active; 'I' for Inactive)
REMARK    1  A    between atoms: C1_1  and  C2_2
REMARK    2  A    between atoms: C2_2  and  C3_3
REMARK    3  A    between atoms: C2_2  and  C4_4
REMARK    4  A    between atoms: C2_2  and  C5_5
REMARK    5  A    between atoms: N1_7  and  C6_8
REMARK    6  A    between atoms: C9_11  and  C10_12
REMARK                            x       y       z     vdW  Elec       q    Type
REMARK                         _______ _______ _______ _____ _____    ______ ____
ROOT
ATOM      1  C10 UNL     1      20.447   1.609  30.079  0.00  0.00    -0.017 A 
ATOM      2  C11 UNL     1      21.633   0.865  29.831  0.00  0.00    +0.010 A 
ATOM      3  C12 UNL     1      22.517   1.233  28.801  0.00  0.00    +0.027 A 
ATOM      4  C13 UNL     1      22.191   2.342  28.025  0.00  0.00    +0.047 A 
ATOM      5  N2  UNL     1      22.914   2.876  27.020  0.00  0.00    -0.350 N 
ATOM      6  C14 UNL     1      22.199   3.948  26.615  0.00  0.00    +0.106 A 
ATOM      7  C15 UNL     1      21.034   4.090  27.334  0.00  0.00    -0.008 A 
ATOM      8  C16 UNL     1      21.042   3.065  28.254  0.00  0.00    +0.004 A 
ATOM      9  C17 UNL     1      20.152   2.735  29.273  0.00  0.00    +0.018 A 
ATOM     10  C18 UNL     1      20.124   5.277  27.201  0.00  0.00    +0.057 C 
ATOM     11  C19 UNL     1      20.234   5.880  25.779  0.00  0.00    +0.109 C 
ATOM     12  N3  UNL     1      21.630   5.978  25.321  0.00  0.00    -0.310 N 
ATOM     13  C20 UNL     1      22.566   4.927  25.597  0.00  0.00    +0.261 C 
ATOM     14  O2  UNL     1      23.675   4.874  25.003  0.00  0.00    -0.269 OA
ATOM     15  H15 UNL     1      23.838   2.550  26.656  0.00  0.00    +0.166 HD
ATOM     16  H21 UNL     1      21.909   6.767  24.696  0.00  0.00    +0.149 HD
ENDROOT
BRANCH   1  20
ATOM     17  C6  UNL     1      17.787   0.461  33.268  0.00  0.00    +0.033 A 
ATOM     18  C7  UNL     1      18.755  -0.439  32.790  0.00  0.00    +0.024 A 
ATOM     19  C8  UNL     1      19.620  -0.064  31.758  0.00  0.00    +0.010 A 
ATOM     20  C9  UNL     1      19.528   1.212  31.175  0.00  0.00    -0.018 A 
ATOM     21  C21 UNL     1      18.543   2.101  31.642  0.00  0.00    +0.010 A 
ATOM     22  C22 UNL     1      17.678   1.725  32.673  0.00  0.00    +0.024 A 
BRANCH  17  25
ATOM     23  C5  UNL     1      17.087   0.373  35.705  0.00  0.00    +0.223 C 
ATOM     24  O1  UNL     1      17.914   1.268  36.037  0.00  0.00    -0.275 OA
ATOM     25  N1  UNL     1      16.870   0.090  34.312  0.00  0.00    -0.285 N 
ATOM     26  H10 UNL     1      15.959  -0.335  34.027  0.00  0.00    +0.155 HD
BRANCH  23  28
ATOM     27  C1  UNL     1      16.935  -0.202  38.160  0.00  0.00    +0.020 C 
ATOM     28  C2  UNL     1      16.262  -0.333  36.775  0.00  0.00    +0.039 C 
ATOM     29  C3  UNL     1      16.138  -1.833  36.435  0.00  0.00    +0.020 C 
ATOM     30  C4  UNL     1      14.862   0.302  36.839  0.00  0.00    +0.020 C 
ENDBRANCH  23  28
ENDBRANCH  17  25
ENDBRANCH   1  20
TORSDOF 3
ENDMDL
MODEL 3
REMARK VINA RESULT:    -6.732     13.741     14.574
REMARK INTER + INTRA:          -8.588
REMARK INTER:                  -7.911
REMARK INTRA:                  -0.677
REMARK UNBOUND:                -0.676
REMARK  Name = /home/qwerty/github/datacon2025hack/step_04_hit_selection/docking/ligands/lig_743.pdb
REMARK  6 active torsions:
REMARK  status: ('A' for Active; 'I' for Inactive)
REMARK    1  A    between atoms: C1_1  and  C2_2
REMARK    2  A    between atoms: C2_2  and  C3_3
REMARK    3  A    between atoms: C2_2  and  C4_4
REMARK    4  A    between atoms: C2_2  and  C5_5
REMARK    5  A    between atoms: N1_7  and  C6_8
REMARK    6  A    between atoms: C9_11  and  C10_12
REMARK                            x       y       z     vdW  Elec       q    Type
REMARK                         _______ _______ _______ _____ _____    ______ ____
ROOT
ATOM      1  C10 UNL     1      11.179  13.023  30.938  0.00  0.00    -0.017 A 
ATOM      2  C11 UNL     1      11.767  14.313  30.824  0.00  0.00    +0.010 A 
ATOM      3  C12 UNL     1      12.401  14.920  31.922  0.00  0.00    +0.027 A 
ATOM      4  C13 UNL     1      12.430  14.224  33.127  0.00  0.00    +0.047 A 
ATOM      5  N2  UNL     1      13.013  14.611  34.279  0.00  0.00    -0.350 N 
ATOM      6  C14 UNL     1      12.797  13.588  35.134  0.00  0.00    +0.106 A 
ATOM      7  C15 UNL     1      12.076  12.572  34.547  0.00  0.00    -0.008 A 
ATOM      8  C16 UNL     1      11.858  12.978  33.249  0.00  0.00    +0.004 A 
ATOM      9  C17 UNL     1      11.232  12.343  32.179  0.00  0.00    +0.018 A 
ATOM     10  C18 UNL     1      11.823  11.251  35.214  0.00  0.00    +0.057 C 
ATOM     11  C19 UNL     1      11.808  11.421  36.752  0.00  0.00    +0.109 C 
ATOM     12  N3  UNL     1      12.905  12.278  37.230  0.00  0.00    -0.310 N 
ATOM     13  C20 UNL     1      13.282  13.456  36.503  0.00  0.00    +0.261 C 
ATOM     14  O2  UNL     1      14.031  14.326  37.022  0.00  0.00    -0.269 OA
ATOM     15  H15 UNL     1      13.542  15.494  34.461  0.00  0.00    +0.166 HD
ATOM     16  H21 UNL     1      13.337  12.086  38.162  0.00  0.00    +0.149 HD
ENDROOT
BRANCH   1  20
ATOM     17  C6  UNL     1       9.253  11.200  27.543  0.00  0.00    +0.033 A 
ATOM     18  C7  UNL     1       9.129  10.631  28.821  0.00  0.00    +0.024 A 
ATOM     19  C8  UNL     1       9.751  11.225  29.924  0.00  0.00    +0.010 A 
ATOM     20  C9  UNL     1      10.519  12.393  29.767  0.00  0.00    -0.018 A 
ATOM     21  C21 UNL     1      10.658  12.946  28.482  0.00  0.00    +0.010 A 
ATOM     22  C22 UNL     1      10.037  12.350  27.381  0.00  0.00    +0.024 A 
BRANCH  17  25
ATOM     23  C5  UNL     1       9.363   9.810  25.423  0.00  0.00    +0.223 C 
ATOM     24  O1  UNL     1      10.487   9.323  25.730  0.00  0.00    -0.275 OA
ATOM     25  N1  UNL     1       8.643  10.594  26.390  0.00  0.00    -0.285 N 
ATOM     26  H10 UNL     1       7.604  10.662  26.300  0.00  0.00    +0.155 HD
BRANCH  23  28
ATOM     27  C1  UNL     1       7.327  10.106  23.957  0.00  0.00    +0.020 C 
ATOM     28  C2  UNL     1       8.740   9.490  24.069  0.00  0.00    +0.039 C 
ATOM     29  C3  UNL     1       8.618   7.961  23.897  0.00  0.00    +0.020 C 
ATOM     30  C4  UNL     1       9.626  10.068  22.952  0.00  0.00    +0.020 C 
ENDBRANCH  23  28
ENDBRANCH  17  25
ENDBRANCH   1  20
TORSDOF 3
ENDMDL
MODEL 4
REMARK VINA RESULT:    -6.570      5.844      9.639
REMARK INTER + INTRA:          -8.398
REMARK INTER:                  -7.775
REMARK INTRA:                  -0.623
REMARK UNBOUND:                -0.676
REMARK  Name = /home/qwerty/github/datacon2025hack/step_04_hit_selection/docking/ligands/lig_743.pdb
REMARK  6 active torsions:
REMARK  status: ('A' for Active; 'I' for Inactive)
REMARK    1  A    between atoms: C1_1  and  C2_2
REMARK    2  A    between atoms: C2_2  and  C3_3
REMARK    3  A    between atoms: C2_2  and  C4_4
REMARK    4  A    between atoms: C2_2  and  C5_5
REMARK    5  A    between atoms: N1_7  and  C6_8
REMARK    6  A    between atoms: C9_11  and  C10_12
REMARK                            x       y       z     vdW  Elec       q    Type
REMARK                         _______ _______ _______ _____ _____    ______ ____
ROOT
ATOM      1  C10 UNL     1      17.964   0.212  25.064  0.00  0.00    -0.017 A 
ATOM      2  C11 UNL     1      17.847  -1.197  24.909  0.00  0.00    +0.010 A 
ATOM      3  C12 UNL     1      17.289  -1.754  23.745  0.00  0.00    +0.027 A 
ATOM      4  C13 UNL     1      16.845  -0.884  22.753  0.00  0.00    +0.047 A 
ATOM      5  N2  UNL     1      16.315  -1.212  21.557  0.00  0.00    -0.350 N 
ATOM      6  C14 UNL     1      16.082  -0.029  20.949  0.00  0.00    +0.106 A 
ATOM      7  C15 UNL     1      16.439   1.037  21.744  0.00  0.00    -0.008 A 
ATOM      8  C16 UNL     1      16.948   0.481  22.897  0.00  0.00    +0.004 A 
ATOM      9  C17 UNL     1      17.507   1.065  24.031  0.00  0.00    +0.018 A 
ATOM     10  C18 UNL     1      16.432   2.460  21.264  0.00  0.00    +0.057 C 
ATOM     11  C19 UNL     1      15.370   2.646  20.153  0.00  0.00    +0.109 C 
ATOM     12  N3  UNL     1      15.391   1.548  19.172  0.00  0.00    -0.310 N 
ATOM     13  C20 UNL     1      15.578   0.191  19.597  0.00  0.00    +0.261 C 
ATOM     14  O2  UNL     1      15.345  -0.771  18.818  0.00  0.00    -0.269 OA
ATOM     15  H15 UNL     1      16.151  -2.171  21.174  0.00  0.00    +0.166 HD
ATOM     16  H21 UNL     1      15.157   1.749  18.174  0.00  0.00    +0.149 HD
ENDROOT
BRANCH   1  20
ATOM     17  C6  UNL     1      19.701   1.862  28.645  0.00  0.00    +0.033 A 
ATOM     18  C7  UNL     1      18.308   1.719  28.531  0.00  0.00    +0.024 A 
ATOM     19  C8  UNL     1      17.745   1.180  27.370  0.00  0.00    +0.010 A 
ATOM     20  C9  UNL     1      18.563   0.784  26.296  0.00  0.00    -0.018 A 
ATOM     21  C21 UNL     1      19.955   0.949  26.406  0.00  0.00    +0.010 A 
ATOM     22  C22 UNL     1      20.516   1.490  27.567  0.00  0.00    +0.024 A 
BRANCH  17  25
ATOM     23  C5  UNL     1      20.346   1.779  31.098  0.00  0.00    +0.223 C 
ATOM     24  O1  UNL     1      20.177   0.529  31.162  0.00  0.00    -0.275 OA
ATOM     25  N1  UNL     1      20.303   2.435  29.819  0.00  0.00    -0.285 N 
ATOM     26  H10 UNL     1      20.806   3.345  29.710  0.00  0.00    +0.155 HD
BRANCH  23  28
ATOM     27  C1  UNL     1      22.189   2.914  32.401  0.00  0.00    +0.020 C 
ATOM     28  C2  UNL     1      20.684   2.566  32.359  0.00  0.00    +0.039 C 
ATOM     29  C3  UNL     1      20.346   1.724  33.607  0.00  0.00    +0.020 C 
ATOM     30  C4  UNL     1      19.869   3.871  32.378  0.00  0.00    +0.020 C 
ENDBRANCH  23  28
ENDBRANCH  17  25
ENDBRANCH   1  20
TORSDOF 3
ENDMDL
MODEL 5
REMARK VINA RESULT:    -6.531      5.118      6.261
REMARK INTER + INTRA:          -8.352
REMARK INTER:                  -7.718
REMARK INTRA:                  -0.634
REMARK UNBOUND:                -0.676
REMARK  Name = /home/qwerty/github/datacon2025hack/step_04_hit_selection/docking/ligands/lig_743.pdb
REMARK  6 active torsions:
REMARK  status: ('A' for Active; 'I' for Inactive)
REMARK    1  A    between atoms: C1_1  and  C2_2
REMARK    2  A    between atoms: C2_2  and  C3_3
REMARK    3  A    between atoms: C2_2  and  C4_4
REMARK    4  A    between atoms: C2_2  and  C5_5
REMARK    5  A    between atoms: N1_7  and  C6_8
REMARK    6  A    between atoms: C9_11  and  C10_12
REMARK                            x       y       z     vdW  Elec       q    Type
REMARK                         _______ _______ _______ _____ _____    ______ ____
ROOT
ATOM      1  C10 UNL     1      20.251   1.657  29.127  0.00  0.00    -0.017 A 
ATOM      2  C11 UNL     1      20.433   0.735  30.194  0.00  0.00    +0.010 A 
ATOM      3  C12 UNL     1      20.995   1.144  31.417  0.00  0.00    +0.027 A 
ATOM      4  C13 UNL     1      21.374   2.477  31.547  0.00  0.00    +0.047 A 
ATOM      5  N2  UNL     1      21.895   3.074  32.639  0.00  0.00    -0.350 N 
ATOM      6  C14 UNL     1      22.057   4.366  32.278  0.00  0.00    +0.106 A 
ATOM      7  C15 UNL     1      21.664   4.590  30.978  0.00  0.00    -0.008 A 
ATOM      8  C16 UNL     1      21.207   3.375  30.517  0.00  0.00    +0.004 A 
ATOM      9  C17 UNL     1      20.643   3.006  29.298  0.00  0.00    +0.018 A 
ATOM     10  C18 UNL     1      21.591   5.959  30.365  0.00  0.00    +0.057 C 
ATOM     11  C19 UNL     1      22.619   6.902  31.035  0.00  0.00    +0.109 C 
ATOM     12  N3  UNL     1      22.632   6.762  32.501  0.00  0.00    -0.310 N 
ATOM     13  C20 UNL     1      22.521   5.469  33.113  0.00  0.00    +0.261 C 
ATOM     14  O2  UNL     1      22.785   5.305  34.333  0.00  0.00    -0.269 OA
ATOM     15  H15 UNL     1      22.098   2.639  33.567  0.00  0.00    +0.166 HD
ATOM     16  H21 UNL     1      22.835   7.598  33.094  0.00  0.00    +0.149 HD
ENDROOT
BRANCH   1  20
ATOM     17  C6  UNL     1      18.505   0.372  25.403  0.00  0.00    +0.033 A 
ATOM     18  C7  UNL     1      17.695   0.593  26.529  0.00  0.00    +0.024 A 
ATOM     19  C8  UNL     1      18.261   1.014  27.736  0.00  0.00    +0.010 A 
ATOM     20  C9  UNL     1      19.650   1.210  27.844  0.00  0.00    -0.018 A 
ATOM     21  C21 UNL     1      20.459   0.965  26.721  0.00  0.00    +0.010 A 
ATOM     22  C22 UNL     1      19.891   0.544  25.515  0.00  0.00    +0.024 A 
BRANCH  17  25
ATOM     23  C5  UNL     1      17.178   0.747  23.273  0.00  0.00    +0.223 C 
ATOM     24  O1  UNL     1      17.254   2.003  23.377  0.00  0.00    -0.275 OA
ATOM     25  N1  UNL     1      17.949  -0.084  24.157  0.00  0.00    -0.285 N 
ATOM     26  H10 UNL     1      18.191  -1.052  23.844  0.00  0.00    +0.155 HD
BRANCH  23  28
ATOM     27  C1  UNL     1      14.913  -0.186  22.655  0.00  0.00    +0.020 C 
ATOM     28  C2  UNL     1      16.343   0.126  22.159  0.00  0.00    +0.039 C 
ATOM     29  C3  UNL     1      16.994  -1.192  21.691  0.00  0.00    +0.020 C 
ATOM     30  C4  UNL     1      16.257   1.110  20.979  0.00  0.00    +0.020 C 
ENDBRANCH  23  28
ENDBRANCH  17  25
ENDBRANCH   1  20
TORSDOF 3
ENDMDL
MODEL 6
REMARK VINA RESULT:    -6.447      9.173     13.490
REMARK INTER + INTRA:          -8.253
REMARK INTER:                  -7.595
REMARK INTRA:                  -0.659
REMARK UNBOUND:                -0.676
REMARK  Name = /home/qwerty/github/datacon2025hack/step_04_hit_selection/docking/ligands/lig_743.pdb
REMARK  6 active torsions:
REMARK  status: ('A' for Active; 'I' for Inactive)
REMARK    1  A    between atoms: C1_1  and  C2_2
REMARK    2  A    between atoms: C2_2  and  C3_3
REMARK    3  A    between atoms: C2_2  and  C4_4
REMARK    4  A    between atoms: C2_2  and  C5_5
REMARK    5  A    between atoms: N1_7  and  C6_8
REMARK    6  A    between atoms: C9_11  and  C10_12
REMARK                            x       y       z     vdW  Elec       q    Type
REMARK                         _______ _______ _______ _____ _____    ______ ____
ROOT
ATOM      1  C10 UNL     1      19.865  12.110  19.602  0.00  0.00    -0.017 A 
ATOM      2  C11 UNL     1      19.546  13.230  18.786  0.00  0.00    +0.010 A 
ATOM      3  C12 UNL     1      20.319  14.404  18.832  0.00  0.00    +0.027 A 
ATOM      4  C13 UNL     1      21.402  14.439  19.705  0.00  0.00    +0.047 A 
ATOM      5  N2  UNL     1      22.282  15.446  19.874  0.00  0.00    -0.350 N 
ATOM      6  C14 UNL     1      23.156  14.988  20.796  0.00  0.00    +0.106 A 
ATOM      7  C15 UNL     1      22.834  13.718  21.223  0.00  0.00    -0.008 A 
ATOM      8  C16 UNL     1      21.715  13.361  20.503  0.00  0.00    +0.004 A 
ATOM      9  C17 UNL     1      20.978  12.180  20.474  0.00  0.00    +0.018 A 
ATOM     10  C18 UNL     1      23.715  12.907  22.128  0.00  0.00    +0.057 C 
ATOM     11  C19 UNL     1      24.554  13.837  23.036  0.00  0.00    +0.109 C 
ATOM     12  N3  UNL     1      25.125  14.974  22.294  0.00  0.00    -0.310 N 
ATOM     13  C20 UNL     1      24.355  15.654  21.292  0.00  0.00    +0.261 C 
ATOM     14  O2  UNL     1      24.724  16.769  20.838  0.00  0.00    -0.269 OA
ATOM     15  H15 UNL     1      22.301  16.366  19.378  0.00  0.00    +0.166 HD
ATOM     16  H21 UNL     1      26.054  15.357  22.579  0.00  0.00    +0.149 HD
ENDROOT
BRANCH   1  20
ATOM     17  C6  UNL     1      17.477   8.529  19.401  0.00  0.00    +0.033 A 
ATOM     18  C7  UNL     1      16.863   9.791  19.465  0.00  0.00    +0.024 A 
ATOM     19  C8  UNL     1      17.638  10.953  19.526  0.00  0.00    +0.010 A 
ATOM     20  C9  UNL     1      19.043  10.876  19.537  0.00  0.00    -0.018 A 
ATOM     21  C21 UNL     1      19.653   9.609  19.495  0.00  0.00    +0.010 A 
ATOM     22  C22 UNL     1      18.876   8.449  19.435  0.00  0.00    +0.024 A 
BRANCH  17  25
ATOM     23  C5  UNL     1      16.306   6.583  20.534  0.00  0.00    +0.223 C 
ATOM     24  O1  UNL     1      16.318   7.155  21.660  0.00  0.00    -0.275 OA
ATOM     25  N1  UNL     1      16.701   7.318  19.363  0.00  0.00    -0.285 N 
ATOM     26  H10 UNL     1      16.339   7.006  18.434  0.00  0.00    +0.155 HD
BRANCH  23  28
ATOM     27  C1  UNL     1      14.575   5.090  19.460  0.00  0.00    +0.020 C 
ATOM     28  C2  UNL     1      15.791   5.154  20.412  0.00  0.00    +0.039 C 
ATOM     29  C3  UNL     1      15.351   4.637  21.797  0.00  0.00    +0.020 C 
ATOM     30  C4  UNL     1      16.909   4.256  19.854  0.00  0.00    +0.020 C 
ENDBRANCH  23  28
ENDBRANCH  17  25
ENDBRANCH   1  20
TORSDOF 3
ENDMDL
MODEL 7
REMARK VINA RESULT:    -6.430     10.417     13.223
REMARK INTER + INTRA:          -8.233
REMARK INTER:                  -7.554
REMARK INTRA:                  -0.679
REMARK UNBOUND:                -0.676
REMARK  Name = /home/qwerty/github/datacon2025hack/step_04_hit_selection/docking/ligands/lig_743.pdb
REMARK  6 active torsions:
REMARK  status: ('A' for Active; 'I' for Inactive)
REMARK    1  A    between atoms: C1_1  and  C2_2
REMARK    2  A    between atoms: C2_2  and  C3_3
REMARK    3  A    between atoms: C2_2  and  C4_4
REMARK    4  A    between atoms: C2_2  and  C5_5
REMARK    5  A    between atoms: N1_7  and  C6_8
REMARK    6  A    between atoms: C9_11  and  C10_12
REMARK                            x       y       z     vdW  Elec       q    Type
REMARK                         _______ _______ _______ _____ _____    ______ ____
ROOT
ATOM      1  C10 UNL     1      17.634   9.955  36.534  0.00  0.00    -0.017 A 
ATOM      2  C11 UNL     1      17.404   9.266  37.756  0.00  0.00    +0.010 A 
ATOM      3  C12 UNL     1      18.363   8.382  38.281  0.00  0.00    +0.027 A 
ATOM      4  C13 UNL     1      19.541   8.195  37.563  0.00  0.00    +0.047 A 
ATOM      5  N2  UNL     1      20.592   7.424  37.907  0.00  0.00    -0.350 N 
ATOM      6  C14 UNL     1      21.489   7.604  36.913  0.00  0.00    +0.106 A 
ATOM      7  C15 UNL     1      21.017   8.461  35.944  0.00  0.00    -0.008 A 
ATOM      8  C16 UNL     1      19.770   8.853  36.376  0.00  0.00    +0.004 A 
ATOM      9  C17 UNL     1      18.847   9.745  35.835  0.00  0.00    +0.018 A 
ATOM     10  C18 UNL     1      21.860   8.959  34.805  0.00  0.00    +0.057 C 
ATOM     11  C19 UNL     1      22.955   7.923  34.454  0.00  0.00    +0.109 C 
ATOM     12  N3  UNL     1      23.607   7.372  35.654  0.00  0.00    -0.310 N 
ATOM     13  C20 UNL     1      22.838   7.056  36.824  0.00  0.00    +0.261 C 
ATOM     14  O2  UNL     1      23.327   6.356  37.750  0.00  0.00    -0.269 OA
ATOM     15  H15 UNL     1      20.701   6.841  38.767  0.00  0.00    +0.166 HD
ATOM     16  H21 UNL     1      24.616   7.107  35.613  0.00  0.00    +0.149 HD
ENDROOT
BRANCH   1  20
ATOM     17  C6  UNL     1      14.681  12.680  34.978  0.00  0.00    +0.033 A 
ATOM     18  C7  UNL     1      14.703  12.361  36.346  0.00  0.00    +0.024 A 
ATOM     19  C8  UNL     1      15.664  11.480  36.851  0.00  0.00    +0.010 A 
ATOM     20  C9  UNL     1      16.614  10.891  35.997  0.00  0.00    -0.018 A 
ATOM     21  C21 UNL     1      16.574  11.197  34.625  0.00  0.00    +0.010 A 
ATOM     22  C22 UNL     1      15.611  12.077  34.122  0.00  0.00    +0.024 A 
BRANCH  17  25
ATOM     23  C5  UNL     1      12.475  13.115  33.801  0.00  0.00    +0.223 C 
ATOM     24  O1  UNL     1      12.061  11.942  34.017  0.00  0.00    -0.275 OA
ATOM     25  N1  UNL     1      13.688  13.565  34.431  0.00  0.00    -0.285 N 
ATOM     26  H10 UNL     1      13.822  14.591  34.575  0.00  0.00    +0.155 HD
BRANCH  23  28
ATOM     27  C1  UNL     1      11.127  13.363  31.680  0.00  0.00    +0.020 C 
ATOM     28  C2  UNL     1      11.645  14.071  32.953  0.00  0.00    +0.039 C 
ATOM     29  C3  UNL     1      12.508  15.274  32.523  0.00  0.00    +0.020 C 
ATOM     30  C4  UNL     1      10.440  14.564  33.774  0.00  0.00    +0.020 C 
ENDBRANCH  23  28
ENDBRANCH  17  25
ENDBRANCH   1  20
TORSDOF 3
ENDMDL
MODEL 8
REMARK VINA RESULT:    -6.386      5.435      7.849
REMARK INTER + INTRA:          -8.182
REMARK INTER:                  -7.561
REMARK INTRA:                  -0.621
REMARK UNBOUND:                -0.676
REMARK  Name = /home/qwerty/github/datacon2025hack/step_04_hit_selection/docking/ligands/lig_743.pdb
REMARK  6 active torsions:
REMARK  status: ('A' for Active; 'I' for Inactive)
REMARK    1  A    between atoms: C1_1  and  C2_2
REMARK    2  A    between atoms: C2_2  and  C3_3
REMARK    3  A    between atoms: C2_2  and  C4_4
REMARK    4  A    between atoms: C2_2  and  C5_5
REMARK    5  A    between atoms: N1_7  and  C6_8
REMARK    6  A    between atoms: C9_11  and  C10_12
REMARK                            x       y       z     vdW  Elec       q    Type
REMARK                         _______ _______ _______ _____ _____    ______ ____
ROOT
ATOM      1  C10 UNL     1      19.798   1.698  27.023  0.00  0.00    -0.017 A 
ATOM      2  C11 UNL     1      20.576   1.766  25.836  0.00  0.00    +0.010 A 
ATOM      3  C12 UNL     1      20.158   1.122  24.657  0.00  0.00    +0.027 A 
ATOM      4  C13 UNL     1      18.963   0.409  24.692  0.00  0.00    +0.047 A 
ATOM      5  N2  UNL     1      18.374  -0.245  23.670  0.00  0.00    -0.350 N 
ATOM      6  C14 UNL     1      17.231  -0.739  24.194  0.00  0.00    +0.106 A 
ATOM      7  C15 UNL     1      17.098  -0.423  25.528  0.00  0.00    -0.008 A 
ATOM      8  C16 UNL     1      18.206   0.333  25.839  0.00  0.00    +0.004 A 
ATOM      9  C17 UNL     1      18.585   0.968  27.019  0.00  0.00    +0.018 A 
ATOM     10  C18 UNL     1      15.856  -0.712  26.321  0.00  0.00    +0.057 C 
ATOM     11  C19 UNL     1      15.125  -1.947  25.743  0.00  0.00    +0.109 C 
ATOM     12  N3  UNL     1      15.057  -1.918  24.272  0.00  0.00    -0.310 N 
ATOM     13  C20 UNL     1      16.179  -1.472  23.497  0.00  0.00    +0.261 C 
ATOM     14  O2  UNL     1      16.233  -1.679  22.256  0.00  0.00    -0.269 OA
ATOM     15  H15 UNL     1      18.712  -0.325  22.685  0.00  0.00    +0.166 HD
ATOM     16  H21 UNL     1      14.227  -2.329  23.790  0.00  0.00    +0.149 HD
ENDROOT
BRANCH   1  20
ATOM     17  C6  UNL     1      21.103   3.698  30.610  0.00  0.00    +0.033 A 
ATOM     18  C7  UNL     1      19.883   4.044  30.006  0.00  0.00    +0.024 A 
ATOM     19  C8  UNL     1      19.458   3.392  28.845  0.00  0.00    +0.010 A 
ATOM     20  C9  UNL     1      20.250   2.390  28.257  0.00  0.00    -0.018 A 
ATOM     21  C21 UNL     1      21.481   2.062  28.852  0.00  0.00    +0.010 A 
ATOM     22  C22 UNL     1      21.905   2.715  30.013  0.00  0.00    +0.024 A 
BRANCH  17  25
ATOM     23  C5  UNL     1      22.317   5.601  31.769  0.00  0.00    +0.223 C 
ATOM     24  O1  UNL     1      22.285   6.328  30.737  0.00  0.00    -0.275 OA
ATOM     25  N1  UNL     1      21.573   4.370  31.791  0.00  0.00    -0.285 N 
ATOM     26  H10 UNL     1      21.284   3.981  32.717  0.00  0.00    +0.155 HD
BRANCH  23  28
ATOM     27  C1  UNL     1      24.547   5.630  32.954  0.00  0.00    +0.020 C 
ATOM     28  C2  UNL     1      23.068   6.073  33.009  0.00  0.00    +0.039 C 
ATOM     29  C3  UNL     1      22.425   5.466  34.273  0.00  0.00    +0.020 C 
ATOM     30  C4  UNL     1      23.009   7.609  33.084  0.00  0.00    +0.020 C 
ENDBRANCH  23  28
ENDBRANCH  17  25
ENDBRANCH   1  20
TORSDOF 3
ENDMDL
MODEL 9
REMARK VINA RESULT:    -6.188     13.336     15.196
REMARK INTER + INTRA:          -7.949
REMARK INTER:                  -7.275
REMARK INTRA:                  -0.674
REMARK UNBOUND:                -0.676
REMARK  Name = /home/qwerty/github/datacon2025hack/step_04_hit_selection/docking/ligands/lig_743.pdb
REMARK  6 active torsions:
REMARK  status: ('A' for Active; 'I' for Inactive)
REMARK    1  A    between atoms: C1_1  and  C2_2
REMARK    2  A    between atoms: C2_2  and  C3_3
REMARK    3  A    between atoms: C2_2  and  C4_4
REMARK    4  A    between atoms: C2_2  and  C5_5
REMARK    5  A    between atoms: N1_7  and  C6_8
REMARK    6  A    between atoms: C9_11  and  C10_12
REMARK                            x       y       z     vdW  Elec       q    Type
REMARK                         _______ _______ _______ _____ _____    ______ ____
ROOT
ATOM      1  C10 UNL     1      11.050  12.097  31.622  0.00  0.00    -0.017 A 
ATOM      2  C11 UNL     1      11.060  13.443  31.164  0.00  0.00    +0.010 A 
ATOM      3  C12 UNL     1      11.643  14.466  31.934  0.00  0.00    +0.027 A 
ATOM      4  C13 UNL     1      12.203  14.122  33.160  0.00  0.00    +0.047 A 
ATOM      5  N2  UNL     1      12.835  14.939  34.027  0.00  0.00    -0.350 N 
ATOM      6  C14 UNL     1      13.222  14.133  35.039  0.00  0.00    +0.106 A 
ATOM      7  C15 UNL     1      12.831  12.828  34.835  0.00  0.00    -0.008 A 
ATOM      8  C16 UNL     1      12.192  12.822  33.615  0.00  0.00    +0.004 A 
ATOM      9  C17 UNL     1      11.634  11.784  32.874  0.00  0.00    +0.018 A 
ATOM     10  C18 UNL     1      13.257  11.694  35.722  0.00  0.00    +0.057 C 
ATOM     11  C19 UNL     1      13.521  12.206  37.158  0.00  0.00    +0.109 C 
ATOM     12  N3  UNL     1      14.286  13.464  37.170  0.00  0.00    -0.310 N 
ATOM     13  C20 UNL     1      14.013  14.495  36.210  0.00  0.00    +0.261 C 
ATOM     14  O2  UNL     1      14.469  15.659  36.362  0.00  0.00    -0.269 OA
ATOM     15  H15 UNL     1      13.014  15.964  33.922  0.00  0.00    +0.166 HD
ATOM     16  H21 UNL     1      14.954  13.650  37.952  0.00  0.00    +0.149 HD
ENDROOT
BRANCH   1  20
ATOM     17  C6  UNL     1       9.276   8.997  29.212  0.00  0.00    +0.033 A 
ATOM     18  C7  UNL     1       8.720  10.287  29.233  0.00  0.00    +0.024 A 
ATOM     19  C8  UNL     1       9.299  11.294  30.012  0.00  0.00    +0.010 A 
ATOM     20  C9  UNL     1      10.436  11.027  30.795  0.00  0.00    -0.018 A 
ATOM     21  C21 UNL     1      10.975   9.729  30.788  0.00  0.00    +0.010 A 
ATOM     22  C22 UNL     1      10.395   8.723  30.010  0.00  0.00    +0.024 A 
BRANCH  17  25
ATOM     23  C5  UNL     1       7.830   6.923  28.992  0.00  0.00    +0.223 C 
ATOM     24  O1  UNL     1       7.275   7.119  30.109  0.00  0.00    -0.275 OA
ATOM     25  N1  UNL     1       8.685   7.939  28.438  0.00  0.00    -0.285 N 
ATOM     26  H10 UNL     1       8.822   7.962  27.402  0.00  0.00    +0.155 HD
BRANCH  23  28
ATOM     27  C1  UNL     1       6.122   5.112  28.567  0.00  0.00    +0.020 C 
ATOM     28  C2  UNL     1       7.520   5.658  28.201  0.00  0.00    +0.039 C 
ATOM     29  C3  UNL     1       8.566   4.570  28.523  0.00  0.00    +0.020 C 
ATOM     30  C4  UNL     1       7.552   5.979  26.696  0.00  0.00    +0.020 C 
ENDBRANCH  23  28
ENDBRANCH  17  25
ENDBRANCH   1  20
TORSDOF 3
ENDMDL
