REMARK  Name = /home/qwerty/github/datacon2025hack/step_04_hit_selection/docking/ligands/lig_680.pdb
REMARK  7 active torsions:
REMARK  status: ('A' for Active; 'I' for Inactive)
REMARK    1  A    between atoms: C1_1  and  C2_2
REMARK    2  A    between atoms: C2_2  and  C3_3
REMARK    3  A    between atoms: C2_2  and  N1_9
REMARK    4  A    between atoms: N1_9  and  C9_10
REMARK    5  A    between atoms: C9_10  and  C10_11
REMARK    6  A    between atoms: C11_14  and  C12_16
REMARK    7  A    between atoms: C15_20  and  C16_21
REMARK                            x       y       z     vdW  Elec       q    Type
REMARK                         _______ _______ _______ _____ _____    ______ ____
ROOT
ATOM      1  N1  UNL     1      -0.968  -0.541   1.139  0.00  0.00    -0.282 N 
ATOM      2  C11 UNL     1       0.142  -1.418   1.413  0.00  0.00    +0.253 C 
ATOM      3  O2  UNL     1       0.017  -2.335   2.269  0.00  0.00    -0.270 OA
ENDROOT
BRANCH   2   4
ATOM      4  C12 UNL     1       1.433  -1.256   0.714  0.00  0.00    +0.107 A 
ATOM      5  C13 UNL     1       2.639  -1.290   1.434  0.00  0.00    +0.139 A 
ATOM      6  F1  UNL     1       2.634  -1.449   2.782  0.00  0.00    -0.205 F 
ATOM      7  C14 UNL     1       3.859  -1.124   0.773  0.00  0.00    +0.051 A 
ATOM      8  C15 UNL     1       3.899  -0.948  -0.620  0.00  0.00    +0.060 A 
ATOM      9  C17 UNL     1       2.691  -0.906  -1.336  0.00  0.00    +0.051 A 
ATOM     10  C18 UNL     1       1.469  -1.074  -0.679  0.00  0.00    +0.139 A 
ATOM     11  F5  UNL     1       0.326  -1.088  -1.409  0.00  0.00    -0.205 F 
BRANCH   8  12
ATOM     12  C16 UNL     1       5.213  -0.712  -1.323  0.00  0.00    +0.418 C 
ATOM     13  F2  UNL     1       5.160  -1.174  -2.627  0.00  0.00    -0.166 F 
ATOM     14  F3  UNL     1       5.483   0.644  -1.336  0.00  0.00    -0.166 F 
ATOM     15  F4  UNL     1       6.241  -1.371  -0.672  0.00  0.00    -0.166 F 
ENDBRANCH   8  12
ENDBRANCH   2   4
BRANCH   1  17
ATOM     16  C1  UNL     1      -1.220   1.461   2.579  0.00  0.00    +0.033 C 
ATOM     17  C2  UNL     1      -0.764   0.922   1.216  0.00  0.00    +0.104 C 
BRANCH  17  18
ATOM     18  C3  UNL     1      -1.396   1.642   0.032  0.00  0.00    -0.027 A 
ATOM     19  C4  UNL     1      -0.630   1.859  -1.128  0.00  0.00    +0.005 A 
ATOM     20  C5  UNL     1      -1.189   2.482  -2.247  0.00  0.00    +0.000 A 
ATOM     21  C6  UNL     1      -2.520   2.900  -2.223  0.00  0.00    +0.000 A 
ATOM     22  C7  UNL     1      -3.293   2.699  -1.079  0.00  0.00    +0.000 A 
ATOM     23  C8  UNL     1      -2.739   2.076   0.043  0.00  0.00    +0.005 A 
ENDBRANCH  17  18
ENDBRANCH   1  17
BRANCH   1  24
ATOM     24  C9  UNL     1      -2.316  -1.125   1.053  0.00  0.00    +0.204 C 
BRANCH  24  25
ATOM     25  C10 UNL     1      -2.512  -1.765  -0.287  0.00  0.00    +0.228 C 
ATOM     26  N2  UNL     1      -2.136  -3.125  -0.501  0.00  0.00    -0.328 N 
ATOM     27  O1  UNL     1      -2.971  -1.086  -1.244  0.00  0.00    -0.274 OA
ATOM     28  H12 UNL     1      -1.726  -3.693   0.273  0.00  0.00    +0.145 HD
ATOM     29  H13 UNL     1      -2.259  -3.564  -1.441  0.00  0.00    +0.145 HD
ENDBRANCH  24  25
ENDBRANCH   1  24
TORSDOF 6
