REMARK  Name = /home/qwerty/github/datacon2025hack/step_04_hit_selection/docking/ligands/lig_449.pdb
REMARK  9 active torsions:
REMARK  status: ('A' for Active; 'I' for Inactive)
REMARK    1  A    between atoms: C1_1  and  C2_2
REMARK    2  A    between atoms: C2_2  and  C3_3
REMARK    3  A    between atoms: C2_2  and  C4_4
REMARK    4  A    between atoms: C2_2  and  O1_5
REMARK    5  A    between atoms: O1_5  and  C5_6
REMARK    6  A    between atoms: C7_10  and  N2_11
REMARK    7  A    between atoms: C9_13  and  N3_14
REMARK    8  A    between atoms: C10_15  and  C11_17
REMARK    9  A    between atoms: C15_22  and  O4_23
REMARK                            x       y       z     vdW  Elec       q    Type
REMARK                         _______ _______ _______ _____ _____    ______ ____
ROOT
ATOM      1  N2  UNL     1       0.221  -0.554  -1.039  0.00  0.00    -0.294 N 
ATOM      2  C8  UNL     1       1.558  -0.805  -1.549  0.00  0.00    +0.131 C 
ATOM      3  C9  UNL     1       2.356   0.499  -1.306  0.00  0.00    +0.099 C 
ATOM      4  C17 UNL     1       1.541   1.329  -0.298  0.00  0.00    +0.119 C 
ATOM      5  C18 UNL     1       0.224   0.665  -0.308  0.00  0.00    +0.218 C 
ATOM      6  O5  UNL     1      -0.787   1.124   0.287  0.00  0.00    -0.276 OA
ENDROOT
BRANCH   1  11
ATOM      7  C5  UNL     1      -4.138  -0.995   0.314  0.00  0.00    +0.403 C 
ATOM      8  O2  UNL     1      -4.363  -1.419   1.479  0.00  0.00    -0.226 OA
ATOM      9  N1  UNL     1      -2.861  -1.212  -0.275  0.00  0.00    -0.264 N 
ATOM     10  C6  UNL     1      -2.189  -0.907  -1.552  0.00  0.00    +0.135 C 
ATOM     11  C7  UNL     1      -0.876  -1.524  -1.183  0.00  0.00    +0.111 C 
ATOM     12  C19 UNL     1      -1.581  -1.846   0.098  0.00  0.00    +0.135 C 
BRANCH   7  13
ATOM     13  O1  UNL     1      -5.119  -0.310  -0.417  0.00  0.00    -0.445 OA
BRANCH  13  15
ATOM     14  C1  UNL     1      -7.145   0.757  -1.113  0.00  0.00    +0.055 C 
ATOM     15  C2  UNL     1      -6.448   0.000   0.028  0.00  0.00    +0.107 C 
ATOM     16  C3  UNL     1      -6.406   0.906   1.274  0.00  0.00    +0.055 C 
ATOM     17  C4  UNL     1      -7.236  -1.291   0.322  0.00  0.00    +0.055 C 
ENDBRANCH  13  15
ENDBRANCH   7  13
ENDBRANCH   1  11
BRANCH   3  18
ATOM     18  N3  UNL     1       3.712   0.238  -0.809  0.00  0.00    -0.307 N 
ATOM     19  C10 UNL     1       4.678   1.293  -0.663  0.00  0.00    +0.244 C 
ATOM     20  O3  UNL     1       4.427   2.436  -1.136  0.00  0.00    -0.270 OA
ATOM     21  H16 UNL     1       4.014  -0.746  -0.631  0.00  0.00    +0.149 HD
BRANCH  19  22
ATOM     22  C11 UNL     1       5.973   1.057   0.019  0.00  0.00    +0.040 A 
ATOM     23  C12 UNL     1       7.079   1.876  -0.270  0.00  0.00    +0.015 A 
ATOM     24  C13 UNL     1       8.303   1.667   0.371  0.00  0.00    +0.024 A 
ATOM     25  C14 UNL     1       8.438   0.645   1.314  0.00  0.00    +0.082 A 
ATOM     26 CL1  UNL     1       9.986   0.401   2.108  0.00  0.00    -0.080 Cl
ATOM     27  C15 UNL     1       7.342  -0.170   1.624  0.00  0.00    +0.136 A 
ATOM     28  C16 UNL     1       6.113   0.038   0.979  0.00  0.00    +0.060 A 
BRANCH  27  29
ATOM     29  O4  UNL     1       7.475  -1.182   2.574  0.00  0.00    -0.505 OA
ATOM     30  H19 UNL     1       6.699  -1.787   2.818  0.00  0.00    +0.292 HD
ENDBRANCH  27  29
ENDBRANCH  19  22
ENDBRANCH   3  18
TORSDOF 6
