MODEL 1
REMARK VINA RESULT:    -8.102      0.000      0.000
REMARK INTER + INTRA:         -12.466
REMARK INTER:                 -11.418
REMARK INTRA:                  -1.049
REMARK UNBOUND:                -1.049
REMARK  Name = /home/qwerty/github/datacon2025hack/step_04_hit_selection/docking/ligands/lig_172.pdb
REMARK  9 active torsions:
REMARK  status: ('A' for Active; 'I' for Inactive)
REMARK    1  A    between atoms: C1_1  and  N1_2
REMARK    2  A    between atoms: N1_2  and  C2_3
REMARK    3  A    between atoms: N1_2  and  C3_4
REMARK    4  A    between atoms: C3_4  and  C4_5
REMARK    5  A    between atoms: C8_9  and  C9_10
REMARK    6  A    between atoms: C9_10  and  N2_11
REMARK    7  A    between atoms: C10_12  and  C11_14
REMARK    8  A    between atoms: C15_19  and  C16_20
REMARK    9  A    between atoms: C19_23  and  C20_24
REMARK                            x       y       z     vdW  Elec       q    Type
REMARK                         _______ _______ _______ _____ _____    ______ ____
ROOT
ATOM      1  C11 UNL     1      21.266   2.094  27.719  0.00  0.00    +0.037 A 
ATOM      2  C12 UNL     1      21.627   0.945  28.475  0.00  0.00    +0.015 A 
ATOM      3  C13 UNL     1      21.910   1.045  29.849  0.00  0.00    +0.027 A 
ATOM      4  C14 UNL     1      21.818   2.300  30.444  0.00  0.00    +0.047 A 
ATOM      5  N3  UNL     1      22.041   2.609  31.731  0.00  0.00    -0.353 N 
ATOM      6  C15 UNL     1      21.819   3.943  31.832  0.00  0.00    +0.064 A 
ATOM      7  C28 UNL     1      21.454   4.479  30.597  0.00  0.00    +0.037 A 
ATOM      8  C29 UNL     1      21.463   3.410  29.728  0.00  0.00    +0.001 A 
ATOM      9  C30 UNL     1      21.174   3.350  28.367  0.00  0.00    +0.023 A 
ATOM     10  H17 UNL     1      22.325   1.950  32.491  0.00  0.00    +0.166 HD
ENDROOT
BRANCH   6  11
ATOM     11  C16 UNL     1      21.953   4.709  33.086  0.00  0.00    +0.064 A 
ATOM     12  C17 UNL     1      20.894   5.209  33.841  0.00  0.00    +0.038 A 
ATOM     13  C18 UNL     1      21.481   5.856  34.912  0.00  0.00    +0.011 A 
ATOM     14  C19 UNL     1      20.930   6.574  35.984  0.00  0.00    +0.011 A 
ATOM     15  C25 UNL     1      21.846   7.171  36.880  0.00  0.00    +0.120 A 
ATOM     16  N5  UNL     1      23.196   7.030  36.697  0.00  0.00    -0.261 NA
ATOM     17  C26 UNL     1      23.716   6.324  35.653  0.00  0.00    +0.137 A 
ATOM     18  C27 UNL     1      22.835   5.735  34.755  0.00  0.00    +0.066 A 
ATOM     19  N6  UNL     1      23.140   5.035  33.651  0.00  0.00    -0.352 N 
ATOM     20  H25 UNL     1      24.097   4.806  33.301  0.00  0.00    +0.166 HD
BRANCH  14  21
ATOM     21  C20 UNL     1      19.469   6.714  36.185  0.00  0.00    +0.002 A 
ATOM     22  C21 UNL     1      18.754   5.790  36.962  0.00  0.00    +0.011 A 
ATOM     23  C22 UNL     1      17.379   5.946  37.148  0.00  0.00    +0.020 A 
ATOM     24  C23 UNL     1      16.729   7.033  36.562  0.00  0.00    +0.111 A 
ATOM     25  N4  UNL     1      17.433   7.928  35.821  0.00  0.00    -0.263 NA
ATOM     26  C24 UNL     1      18.772   7.798  35.623  0.00  0.00    +0.119 A 
ENDBRANCH  14  21
ENDBRANCH   6  11
BRANCH   1  28
ATOM     27  N2  UNL     1      19.830   1.214  25.813  0.00  0.00    -0.307 N 
ATOM     28  C10 UNL     1      20.969   1.961  26.272  0.00  0.00    +0.244 C 
ATOM     29  O1  UNL     1      21.722   2.523  25.432  0.00  0.00    -0.270 OA
ATOM     30  H14 UNL     1      19.089   0.926  26.490  0.00  0.00    +0.149 HD
BRANCH  27  31
ATOM     31  C9  UNL     1      19.619   0.901  24.402  0.00  0.00    +0.139 C 
BRANCH  31  36
ATOM     32  C4  UNL     1      16.703  -1.093  22.949  0.00  0.00    -0.033 A 
ATOM     33  C5  UNL     1      16.495  -2.036  23.970  0.00  0.00    +0.005 A 
ATOM     34  C6  UNL     1      17.285  -2.016  25.120  0.00  0.00    +0.001 A 
ATOM     35  C7  UNL     1      18.293  -1.059  25.262  0.00  0.00    +0.005 A 
ATOM     36  C8  UNL     1      18.519  -0.114  24.251  0.00  0.00    -0.030 A 
ATOM     37  C31 UNL     1      17.725  -0.141  23.092  0.00  0.00    +0.010 A 
BRANCH  32  38
ATOM     38  C3  UNL     1      15.840  -1.110  21.703  0.00  0.00    +0.119 C 
BRANCH  38  40
ATOM     39  C1  UNL     1      16.925  -1.101  19.498  0.00  0.00    +0.104 C 
ATOM     40  N1  UNL     1      16.372  -0.288  20.593  0.00  0.00    -0.304 NA
ATOM     41  C2  UNL     1      15.390   0.681  20.083  0.00  0.00    +0.104 C 
ENDBRANCH  38  40
ENDBRANCH  32  38
ENDBRANCH  31  36
ENDBRANCH  27  31
ENDBRANCH   1  28
TORSDOF 7
ENDMDL
MODEL 2
REMARK VINA RESULT:    -7.906      1.851      2.433
REMARK INTER + INTRA:         -12.190
REMARK INTER:                 -11.134
REMARK INTRA:                  -1.055
REMARK UNBOUND:                -1.049
REMARK  Name = /home/qwerty/github/datacon2025hack/step_04_hit_selection/docking/ligands/lig_172.pdb
REMARK  9 active torsions:
REMARK  status: ('A' for Active; 'I' for Inactive)
REMARK    1  A    between atoms: C1_1  and  N1_2
REMARK    2  A    between atoms: N1_2  and  C2_3
REMARK    3  A    between atoms: N1_2  and  C3_4
REMARK    4  A    between atoms: C3_4  and  C4_5
REMARK    5  A    between atoms: C8_9  and  C9_10
REMARK    6  A    between atoms: C9_10  and  N2_11
REMARK    7  A    between atoms: C10_12  and  C11_14
REMARK    8  A    between atoms: C15_19  and  C16_20
REMARK    9  A    between atoms: C19_23  and  C20_24
REMARK                            x       y       z     vdW  Elec       q    Type
REMARK                         _______ _______ _______ _____ _____    ______ ____
ROOT
ATOM      1  C11 UNL     1      21.019   1.600  27.789  0.00  0.00    +0.037 A 
ATOM      2  C12 UNL     1      21.900   0.668  28.403  0.00  0.00    +0.015 A 
ATOM      3  C13 UNL     1      22.448   0.923  29.673  0.00  0.00    +0.027 A 
ATOM      4  C14 UNL     1      22.095   2.110  30.309  0.00  0.00    +0.047 A 
ATOM      5  N3  UNL     1      22.500   2.538  31.516  0.00  0.00    -0.353 N 
ATOM      6  C15 UNL     1      21.887   3.732  31.706  0.00  0.00    +0.064 A 
ATOM      7  C28 UNL     1      21.089   4.060  30.610  0.00  0.00    +0.037 A 
ATOM      8  C29 UNL     1      21.241   3.008  29.732  0.00  0.00    +0.001 A 
ATOM      9  C30 UNL     1      20.678   2.790  28.477  0.00  0.00    +0.023 A 
ATOM     10  H17 UNL     1      23.153   2.045  32.166  0.00  0.00    +0.166 HD
ENDROOT
BRANCH   6  11
ATOM     11  C16 UNL     1      22.054   4.563  32.914  0.00  0.00    +0.064 A 
ATOM     12  C17 UNL     1      21.014   5.085  33.683  0.00  0.00    +0.038 A 
ATOM     13  C18 UNL     1      21.630   5.793  34.698  0.00  0.00    +0.011 A 
ATOM     14  C19 UNL     1      21.106   6.556  35.752  0.00  0.00    +0.011 A 
ATOM     15  C25 UNL     1      22.044   7.211  36.583  0.00  0.00    +0.120 A 
ATOM     16  N5  UNL     1      23.388   7.080  36.357  0.00  0.00    -0.261 NA
ATOM     17  C26 UNL     1      23.882   6.331  35.330  0.00  0.00    +0.137 A 
ATOM     18  C27 UNL     1      22.979   5.684  34.496  0.00  0.00    +0.066 A 
ATOM     19  N6  UNL     1      23.255   4.934  33.418  0.00  0.00    -0.352 N 
ATOM     20  H25 UNL     1      24.202   4.702  33.044  0.00  0.00    +0.166 HD
BRANCH  14  21
ATOM     21  C20 UNL     1      19.652   6.684  36.000  0.00  0.00    +0.002 A 
ATOM     22  C21 UNL     1      18.959   5.727  36.756  0.00  0.00    +0.011 A 
ATOM     23  C22 UNL     1      17.590   5.873  36.988  0.00  0.00    +0.020 A 
ATOM     24  C23 UNL     1      16.923   6.981  36.467  0.00  0.00    +0.111 A 
ATOM     25  N4  UNL     1      17.605   7.909  35.745  0.00  0.00    -0.263 NA
ATOM     26  C24 UNL     1      18.938   7.790  35.505  0.00  0.00    +0.119 A 
ENDBRANCH  14  21
ENDBRANCH   6  11
BRANCH   1  28
ATOM     27  N2  UNL     1      19.367   0.375  26.292  0.00  0.00    -0.307 N 
ATOM     28  C10 UNL     1      20.451   1.306  26.451  0.00  0.00    +0.244 C 
ATOM     29  O1  UNL     1      20.920   1.892  25.438  0.00  0.00    -0.270 OA
ATOM     30  H14 UNL     1      18.836   0.047  27.129  0.00  0.00    +0.149 HD
BRANCH  27  31
ATOM     31  C9  UNL     1      18.918  -0.082  24.980  0.00  0.00    +0.139 C 
BRANCH  31  36
ATOM     32  C4  UNL     1      15.468  -1.321  26.057  0.00  0.00    -0.033 A 
ATOM     33  C5  UNL     1      15.383  -2.522  25.333  0.00  0.00    +0.005 A 
ATOM     34  C6  UNL     1      16.438  -2.930  24.515  0.00  0.00    +0.001 A 
ATOM     35  C7  UNL     1      17.587  -2.141  24.407  0.00  0.00    +0.005 A 
ATOM     36  C8  UNL     1      17.687  -0.936  25.117  0.00  0.00    -0.030 A 
ATOM     37  C31 UNL     1      16.621  -0.527  25.935  0.00  0.00    +0.010 A 
BRANCH  32  38
ATOM     38  C3  UNL     1      14.326  -0.882  26.951  0.00  0.00    +0.119 C 
BRANCH  38  40
ATOM     39  C1  UNL     1      13.076   0.379  25.252  0.00  0.00    +0.104 C 
ATOM     40  N1  UNL     1      13.731   0.418  26.569  0.00  0.00    -0.304 NA
ATOM     41  C2  UNL     1      12.817   0.947  27.594  0.00  0.00    +0.104 C 
ENDBRANCH  38  40
ENDBRANCH  32  38
ENDBRANCH  31  36
ENDBRANCH  27  31
ENDBRANCH   1  28
TORSDOF 7
ENDMDL
MODEL 3
REMARK VINA RESULT:    -7.892      5.940     13.570
REMARK INTER + INTRA:         -12.170
REMARK INTER:                 -11.176
REMARK INTRA:                  -0.994
REMARK UNBOUND:                -1.049
REMARK  Name = /home/qwerty/github/datacon2025hack/step_04_hit_selection/docking/ligands/lig_172.pdb
REMARK  9 active torsions:
REMARK  status: ('A' for Active; 'I' for Inactive)
REMARK    1  A    between atoms: C1_1  and  N1_2
REMARK    2  A    between atoms: N1_2  and  C2_3
REMARK    3  A    between atoms: N1_2  and  C3_4
REMARK    4  A    between atoms: C3_4  and  C4_5
REMARK    5  A    between atoms: C8_9  and  C9_10
REMARK    6  A    between atoms: C9_10  and  N2_11
REMARK    7  A    between atoms: C10_12  and  C11_14
REMARK    8  A    between atoms: C15_19  and  C16_20
REMARK    9  A    between atoms: C19_23  and  C20_24
REMARK                            x       y       z     vdW  Elec       q    Type
REMARK                         _______ _______ _______ _____ _____    ______ ____
ROOT
ATOM      1  C11 UNL     1      16.089   0.405  22.222  0.00  0.00    +0.037 A 
ATOM      2  C12 UNL     1      16.056   0.253  20.809  0.00  0.00    +0.015 A 
ATOM      3  C13 UNL     1      15.102   0.934  20.032  0.00  0.00    +0.027 A 
ATOM      4  C14 UNL     1      14.199   1.765  20.689  0.00  0.00    +0.047 A 
ATOM      5  N3  UNL     1      13.221   2.502  20.138  0.00  0.00    -0.353 N 
ATOM      6  C15 UNL     1      12.620   3.144  21.170  0.00  0.00    +0.064 A 
ATOM      7  C28 UNL     1      13.224   2.810  22.382  0.00  0.00    +0.037 A 
ATOM      8  C29 UNL     1      14.228   1.926  22.047  0.00  0.00    +0.001 A 
ATOM      9  C30 UNL     1      15.158   1.269  22.849  0.00  0.00    +0.023 A 
ATOM     10  H17 UNL     1      12.981   2.561  19.123  0.00  0.00    +0.166 HD
ENDROOT
BRANCH   6  11
ATOM     11  C16 UNL     1      11.480   4.068  21.016  0.00  0.00    +0.064 A 
ATOM     12  C17 UNL     1      11.560   5.459  21.047  0.00  0.00    +0.038 A 
ATOM     13  C18 UNL     1      10.264   5.905  20.869  0.00  0.00    +0.011 A 
ATOM     14  C19 UNL     1       9.718   7.197  20.843  0.00  0.00    +0.011 A 
ATOM     15  C25 UNL     1       8.314   7.286  20.703  0.00  0.00    +0.120 A 
ATOM     16  N5  UNL     1       7.551   6.154  20.590  0.00  0.00    -0.261 NA
ATOM     17  C26 UNL     1       8.097   4.905  20.612  0.00  0.00    +0.137 A 
ATOM     18  C27 UNL     1       9.474   4.793  20.756  0.00  0.00    +0.066 A 
ATOM     19  N6  UNL     1      10.199   3.666  20.837  0.00  0.00    -0.352 N 
ATOM     20  H25 UNL     1       9.839   2.687  20.786  0.00  0.00    +0.166 HD
BRANCH  14  21
ATOM     21  C20 UNL     1      10.549   8.418  20.954  0.00  0.00    +0.002 A 
ATOM     22  C21 UNL     1      11.006   9.089  19.810  0.00  0.00    +0.011 A 
ATOM     23  C22 UNL     1      11.779  10.245  19.937  0.00  0.00    +0.020 A 
ATOM     24  C23 UNL     1      12.082  10.728  21.210  0.00  0.00    +0.111 A 
ATOM     25  N4  UNL     1      11.625  10.077  22.312  0.00  0.00    -0.263 NA
ATOM     26  C24 UNL     1      10.871   8.949  22.215  0.00  0.00    +0.119 A 
ENDBRANCH  14  21
ENDBRANCH   6  11
BRANCH   1  28
ATOM     27  N2  UNL     1      17.817   0.327  24.087  0.00  0.00    -0.307 N 
ATOM     28  C10 UNL     1      17.107  -0.321  23.018  0.00  0.00    +0.244 C 
ATOM     29  O1  UNL     1      17.346  -1.532  22.760  0.00  0.00    -0.270 OA
ATOM     30  H14 UNL     1      17.486   1.250  24.447  0.00  0.00    +0.149 HD
BRANCH  27  31
ATOM     31  C9  UNL     1      18.956  -0.294  24.757  0.00  0.00    +0.139 C 
BRANCH  31  36
ATOM     32  C4  UNL     1      21.442   1.639  26.920  0.00  0.00    -0.033 A 
ATOM     33  C5  UNL     1      21.756   2.710  26.065  0.00  0.00    +0.005 A 
ATOM     34  C6  UNL     1      21.158   2.808  24.808  0.00  0.00    +0.001 A 
ATOM     35  C7  UNL     1      20.245   1.837  24.387  0.00  0.00    +0.005 A 
ATOM     36  C8  UNL     1      19.925   0.758  25.225  0.00  0.00    -0.030 A 
ATOM     37  C31 UNL     1      20.532   0.660  26.487  0.00  0.00    +0.010 A 
BRANCH  32  38
ATOM     38  C3  UNL     1      22.085   1.537  28.288  0.00  0.00    +0.119 C 
BRANCH  38  40
ATOM     39  C1  UNL     1      21.470   1.417  30.664  0.00  0.00    +0.104 C 
ATOM     40  N1  UNL     1      21.266   2.107  29.381  0.00  0.00    -0.304 NA
ATOM     41  C2  UNL     1      21.449   3.559  29.530  0.00  0.00    +0.104 C 
ENDBRANCH  38  40
ENDBRANCH  32  38
ENDBRANCH  31  36
ENDBRANCH  27  31
ENDBRANCH   1  28
TORSDOF 7
ENDMDL
MODEL 4
REMARK VINA RESULT:    -7.808      4.126      7.585
REMARK INTER + INTRA:         -12.051
REMARK INTER:                 -10.896
REMARK INTRA:                  -1.155
REMARK UNBOUND:                -1.049
REMARK  Name = /home/qwerty/github/datacon2025hack/step_04_hit_selection/docking/ligands/lig_172.pdb
REMARK  9 active torsions:
REMARK  status: ('A' for Active; 'I' for Inactive)
REMARK    1  A    between atoms: C1_1  and  N1_2
REMARK    2  A    between atoms: N1_2  and  C2_3
REMARK    3  A    between atoms: N1_2  and  C3_4
REMARK    4  A    between atoms: C3_4  and  C4_5
REMARK    5  A    between atoms: C8_9  and  C9_10
REMARK    6  A    between atoms: C9_10  and  N2_11
REMARK    7  A    between atoms: C10_12  and  C11_14
REMARK    8  A    between atoms: C15_19  and  C16_20
REMARK    9  A    between atoms: C19_23  and  C20_24
REMARK                            x       y       z     vdW  Elec       q    Type
REMARK                         _______ _______ _______ _____ _____    ______ ____
ROOT
ATOM      1  C11 UNL     1      19.303   5.927  21.848  0.00  0.00    +0.037 A 
ATOM      2  C12 UNL     1      20.456   6.757  21.920  0.00  0.00    +0.015 A 
ATOM      3  C13 UNL     1      21.255   6.781  23.077  0.00  0.00    +0.027 A 
ATOM      4  C14 UNL     1      20.887   5.964  24.141  0.00  0.00    +0.047 A 
ATOM      5  N3  UNL     1      21.511   5.836  25.324  0.00  0.00    -0.353 N 
ATOM      6  C15 UNL     1      20.790   4.926  26.023  0.00  0.00    +0.064 A 
ATOM      7  C28 UNL     1      19.702   4.475  25.275  0.00  0.00    +0.037 A 
ATOM      8  C29 UNL     1      19.786   5.155  24.079  0.00  0.00    +0.001 A 
ATOM      9  C30 UNL     1      18.971   5.103  22.950  0.00  0.00    +0.023 A 
ATOM     10  H17 UNL     1      22.373   6.340  25.631  0.00  0.00    +0.166 HD
ENDROOT
BRANCH   6  11
ATOM     11  C16 UNL     1      21.123   4.482  27.390  0.00  0.00    +0.064 A 
ATOM     12  C17 UNL     1      21.693   3.255  27.723  0.00  0.00    +0.038 A 
ATOM     13  C18 UNL     1      21.819   3.271  29.099  0.00  0.00    +0.011 A 
ATOM     14  C19 UNL     1      22.294   2.308  30.003  0.00  0.00    +0.011 A 
ATOM     15  C25 UNL     1      22.217   2.640  31.375  0.00  0.00    +0.120 A 
ATOM     16  N5  UNL     1      21.714   3.850  31.774  0.00  0.00    -0.261 NA
ATOM     17  C26 UNL     1      21.262   4.777  30.883  0.00  0.00    +0.137 A 
ATOM     18  C27 UNL     1      21.320   4.470  29.529  0.00  0.00    +0.066 A 
ATOM     19  N6  UNL     1      20.897   5.223  28.501  0.00  0.00    -0.352 N 
ATOM     20  H25 UNL     1      20.470   6.174  28.558  0.00  0.00    +0.166 HD
BRANCH  14  21
ATOM     21  C20 UNL     1      22.847   1.006  29.565  0.00  0.00    +0.002 A 
ATOM     22  C21 UNL     1      22.003  -0.056  29.209  0.00  0.00    +0.011 A 
ATOM     23  C22 UNL     1      22.545  -1.272  28.789  0.00  0.00    +0.020 A 
ATOM     24  C23 UNL     1      23.931  -1.415  28.719  0.00  0.00    +0.111 A 
ATOM     25  N4  UNL     1      24.740  -0.376  29.055  0.00  0.00    -0.263 NA
ATOM     26  C24 UNL     1      24.237   0.818  29.469  0.00  0.00    +0.119 A 
ENDBRANCH  14  21
ENDBRANCH   6  11
BRANCH   1  28
ATOM     27  N2  UNL     1      17.075   5.614  20.662  0.00  0.00    -0.307 N 
ATOM     28  C10 UNL     1      18.479   5.916  20.615  0.00  0.00    +0.244 C 
ATOM     29  O1  UNL     1      19.018   6.191  19.508  0.00  0.00    -0.270 OA
ATOM     30  H14 UNL     1      16.577   5.594  21.579  0.00  0.00    +0.149 HD
BRANCH  27  31
ATOM     31  C9  UNL     1      16.281   5.403  19.454  0.00  0.00    +0.139 C 
BRANCH  31  36
ATOM     32  C4  UNL     1      14.368   2.229  20.383  0.00  0.00    -0.033 A 
ATOM     33  C5  UNL     1      13.042   2.682  20.274  0.00  0.00    +0.005 A 
ATOM     34  C6  UNL     1      12.774   3.997  19.893  0.00  0.00    +0.001 A 
ATOM     35  C7  UNL     1      13.825   4.877  19.620  0.00  0.00    +0.005 A 
ATOM     36  C8  UNL     1      15.155   4.445  19.729  0.00  0.00    -0.030 A 
ATOM     37  C31 UNL     1      15.420   3.121  20.118  0.00  0.00    +0.010 A 
BRANCH  32  38
ATOM     38  C3  UNL     1      14.659   0.799  20.789  0.00  0.00    +0.119 C 
BRANCH  38  40
ATOM     39  C1  UNL     1      16.161   0.788  22.734  0.00  0.00    +0.104 C 
ATOM     40  N1  UNL     1      16.038   0.584  21.282  0.00  0.00    -0.304 NA
ATOM     41  C2  UNL     1      16.584  -0.724  20.887  0.00  0.00    +0.104 C 
ENDBRANCH  38  40
ENDBRANCH  32  38
ENDBRANCH  31  36
ENDBRANCH  27  31
ENDBRANCH   1  28
TORSDOF 7
ENDMDL
MODEL 5
REMARK VINA RESULT:    -7.759      8.780     12.548
REMARK INTER + INTRA:         -11.983
REMARK INTER:                 -11.022
REMARK INTRA:                  -0.961
REMARK UNBOUND:                -1.049
REMARK  Name = /home/qwerty/github/datacon2025hack/step_04_hit_selection/docking/ligands/lig_172.pdb
REMARK  9 active torsions:
REMARK  status: ('A' for Active; 'I' for Inactive)
REMARK    1  A    between atoms: C1_1  and  N1_2
REMARK    2  A    between atoms: N1_2  and  C2_3
REMARK    3  A    between atoms: N1_2  and  C3_4
REMARK    4  A    between atoms: C3_4  and  C4_5
REMARK    5  A    between atoms: C8_9  and  C9_10
REMARK    6  A    between atoms: C9_10  and  N2_11
REMARK    7  A    between atoms: C10_12  and  C11_14
REMARK    8  A    between atoms: C15_19  and  C16_20
REMARK    9  A    between atoms: C19_23  and  C20_24
REMARK                            x       y       z     vdW  Elec       q    Type
REMARK                         _______ _______ _______ _____ _____    ______ ____
ROOT
ATOM      1  C11 UNL     1      14.746  12.976  35.505  0.00  0.00    +0.037 A 
ATOM      2  C12 UNL     1      14.243  12.170  36.562  0.00  0.00    +0.015 A 
ATOM      3  C13 UNL     1      15.021  11.136  37.115  0.00  0.00    +0.027 A 
ATOM      4  C14 UNL     1      16.298  10.935  36.599  0.00  0.00    +0.047 A 
ATOM      5  N3  UNL     1      17.195  10.014  36.986  0.00  0.00    -0.353 N 
ATOM      6  C15 UNL     1      18.285  10.213  36.203  0.00  0.00    +0.064 A 
ATOM      7  C28 UNL     1      18.073  11.269  35.317  0.00  0.00    +0.037 A 
ATOM      8  C29 UNL     1      16.795  11.711  35.589  0.00  0.00    +0.001 A 
ATOM      9  C30 UNL     1      16.056  12.743  35.018  0.00  0.00    +0.023 A 
ATOM     10  H17 UNL     1      17.070   9.297  37.735  0.00  0.00    +0.166 HD
ENDROOT
BRANCH   6  11
ATOM     11  C16 UNL     1      19.521   9.412  36.289  0.00  0.00    +0.064 A 
ATOM     12  C17 UNL     1      20.391   9.156  35.231  0.00  0.00    +0.038 A 
ATOM     13  C18 UNL     1      21.395   8.370  35.764  0.00  0.00    +0.011 A 
ATOM     14  C19 UNL     1      22.525   7.778  35.179  0.00  0.00    +0.011 A 
ATOM     15  C25 UNL     1      23.319   6.967  36.022  0.00  0.00    +0.120 A 
ATOM     16  N5  UNL     1      22.988   6.795  37.340  0.00  0.00    -0.261 NA
ATOM     17  C26 UNL     1      21.889   7.382  37.895  0.00  0.00    +0.137 A 
ATOM     18  C27 UNL     1      21.089   8.177  37.084  0.00  0.00    +0.066 A 
ATOM     19  N6  UNL     1      19.954   8.809  37.422  0.00  0.00    -0.352 N 
ATOM     20  H25 UNL     1      19.500   8.816  38.362  0.00  0.00    +0.166 HD
BRANCH  14  21
ATOM     21  C20 UNL     1      22.885   7.977  33.757  0.00  0.00    +0.002 A 
ATOM     22  C21 UNL     1      23.302   9.231  33.284  0.00  0.00    +0.011 A 
ATOM     23  C22 UNL     1      23.649   9.394  31.942  0.00  0.00    +0.020 A 
ATOM     24  C23 UNL     1      23.583   8.299  31.080  0.00  0.00    +0.111 A 
ATOM     25  N4  UNL     1      23.188   7.086  31.550  0.00  0.00    -0.263 NA
ATOM     26  C24 UNL     1      22.845   6.901  32.853  0.00  0.00    +0.119 A 
ENDBRANCH  14  21
ENDBRANCH   6  11
BRANCH   1  28
ATOM     27  N2  UNL     1      13.117  13.854  33.760  0.00  0.00    -0.307 N 
ATOM     28  C10 UNL     1      13.908  14.062  34.942  0.00  0.00    +0.244 C 
ATOM     29  O1  UNL     1      13.878  15.182  35.520  0.00  0.00    -0.270 OA
ATOM     30  H14 UNL     1      12.967  12.886  33.398  0.00  0.00    +0.149 HD
BRANCH  27  31
ATOM     31  C9  UNL     1      12.439  14.950  33.072  0.00  0.00    +0.139 C 
BRANCH  31  36
ATOM     32  C4  UNL     1      10.700  13.583  29.957  0.00  0.00    -0.033 A 
ATOM     33  C5  UNL     1      11.637  13.919  28.965  0.00  0.00    +0.005 A 
ATOM     34  C6  UNL     1      12.824  14.570  29.307  0.00  0.00    +0.001 A 
ATOM     35  C7  UNL     1      13.086  14.898  30.640  0.00  0.00    +0.005 A 
ATOM     36  C8  UNL     1      12.159  14.576  31.642  0.00  0.00    -0.030 A 
ATOM     37  C31 UNL     1      10.964  13.925  31.294  0.00  0.00    +0.010 A 
BRANCH  32  38
ATOM     38  C3  UNL     1       9.415  12.870  29.587  0.00  0.00    +0.119 C 
BRANCH  38  40
ATOM     39  C1  UNL     1       8.770  11.561  27.610  0.00  0.00    +0.104 C 
ATOM     40  N1  UNL     1       9.113  12.891  28.139  0.00  0.00    -0.304 NA
ATOM     41  C2  UNL     1       8.080  13.877  27.789  0.00  0.00    +0.104 C 
ENDBRANCH  38  40
ENDBRANCH  32  38
ENDBRANCH  31  36
ENDBRANCH  27  31
ENDBRANCH   1  28
TORSDOF 7
ENDMDL
MODEL 6
REMARK VINA RESULT:    -7.658      9.899     12.769
REMARK INTER + INTRA:         -11.840
REMARK INTER:                 -10.827
REMARK INTRA:                  -1.013
REMARK UNBOUND:                -1.049
REMARK  Name = /home/qwerty/github/datacon2025hack/step_04_hit_selection/docking/ligands/lig_172.pdb
REMARK  9 active torsions:
REMARK  status: ('A' for Active; 'I' for Inactive)
REMARK    1  A    between atoms: C1_1  and  N1_2
REMARK    2  A    between atoms: N1_2  and  C2_3
REMARK    3  A    between atoms: N1_2  and  C3_4
REMARK    4  A    between atoms: C3_4  and  C4_5
REMARK    5  A    between atoms: C8_9  and  C9_10
REMARK    6  A    between atoms: C9_10  and  N2_11
REMARK    7  A    between atoms: C10_12  and  C11_14
REMARK    8  A    between atoms: C15_19  and  C16_20
REMARK    9  A    between atoms: C19_23  and  C20_24
REMARK                            x       y       z     vdW  Elec       q    Type
REMARK                         _______ _______ _______ _____ _____    ______ ____
ROOT
ATOM      1  C11 UNL     1       9.005  11.518  28.850  0.00  0.00    +0.037 A 
ATOM      2  C12 UNL     1       8.963  12.912  28.572  0.00  0.00    +0.015 A 
ATOM      3  C13 UNL     1       9.673  13.828  29.370  0.00  0.00    +0.027 A 
ATOM      4  C14 UNL     1      10.420  13.326  30.431  0.00  0.00    +0.047 A 
ATOM      5  N3  UNL     1      11.166  14.024  31.303  0.00  0.00    -0.353 N 
ATOM      6  C15 UNL     1      11.706  13.105  32.141  0.00  0.00    +0.064 A 
ATOM      7  C28 UNL     1      11.297  11.817  31.795  0.00  0.00    +0.037 A 
ATOM      8  C29 UNL     1      10.475  11.987  30.701  0.00  0.00    +0.001 A 
ATOM      9  C30 UNL     1       9.787  11.050  29.934  0.00  0.00    +0.023 A 
ATOM     10  H17 UNL     1      11.297  15.060  31.323  0.00  0.00    +0.166 HD
ENDROOT
BRANCH   6  11
ATOM     11  C16 UNL     1      12.603  13.438  33.265  0.00  0.00    +0.064 A 
ATOM     12  C17 UNL     1      13.513  12.563  33.856  0.00  0.00    +0.038 A 
ATOM     13  C18 UNL     1      14.123  13.293  34.858  0.00  0.00    +0.011 A 
ATOM     14  C19 UNL     1      15.096  12.942  35.807  0.00  0.00    +0.011 A 
ATOM     15  C25 UNL     1      15.451  13.939  36.744  0.00  0.00    +0.120 A 
ATOM     16  N5  UNL     1      14.870  15.178  36.699  0.00  0.00    -0.261 NA
ATOM     17  C26 UNL     1      13.931  15.506  35.768  0.00  0.00    +0.137 A 
ATOM     18  C27 UNL     1      13.560  14.540  34.840  0.00  0.00    +0.066 A 
ATOM     19  N6  UNL     1      12.636  14.648  33.873  0.00  0.00    -0.352 N 
ATOM     20  H25 UNL     1      12.058  15.489  33.652  0.00  0.00    +0.166 HD
BRANCH  14  21
ATOM     21  C20 UNL     1      15.728  11.604  35.844  0.00  0.00    +0.002 A 
ATOM     22  C21 UNL     1      15.176  10.563  36.606  0.00  0.00    +0.011 A 
ATOM     23  C22 UNL     1      15.782   9.305  36.618  0.00  0.00    +0.020 A 
ATOM     24  C23 UNL     1      16.934   9.094  35.861  0.00  0.00    +0.111 A 
ATOM     25  N4  UNL     1      17.455  10.105  35.118  0.00  0.00    -0.263 NA
ATOM     26  C24 UNL     1      16.884  11.339  35.089  0.00  0.00    +0.119 A 
ENDBRANCH  14  21
ENDBRANCH   6  11
BRANCH   1  28
ATOM     27  N2  UNL     1       8.565  10.423  26.597  0.00  0.00    -0.307 N 
ATOM     28  C10 UNL     1       8.251  10.573  27.992  0.00  0.00    +0.244 C 
ATOM     29  O1  UNL     1       7.327   9.880  28.498  0.00  0.00    -0.270 OA
ATOM     30  H14 UNL     1       9.451  10.825  26.217  0.00  0.00    +0.149 HD
BRANCH  27  31
ATOM     31  C9  UNL     1       7.722   9.653  25.686  0.00  0.00    +0.139 C 
BRANCH  31  36
ATOM     32  C4  UNL     1       9.472  10.046  22.313  0.00  0.00    -0.033 A 
ATOM     33  C5  UNL     1       8.492  10.746  21.589  0.00  0.00    +0.005 A 
ATOM     34  C6  UNL     1       7.283  11.096  22.194  0.00  0.00    +0.001 A 
ATOM     35  C7  UNL     1       7.038  10.747  23.525  0.00  0.00    +0.005 A 
ATOM     36  C8  UNL     1       8.002  10.043  24.260  0.00  0.00    -0.030 A 
ATOM     37  C31 UNL     1       9.215   9.688  23.646  0.00  0.00    +0.010 A 
BRANCH  32  38
ATOM     38  C3  UNL     1      10.787   9.672  21.658  0.00  0.00    +0.119 C 
BRANCH  38  40
ATOM     39  C1  UNL     1      11.238   9.890  19.253  0.00  0.00    +0.104 C 
ATOM     40  N1  UNL     1      10.638   9.068  20.315  0.00  0.00    -0.304 NA
ATOM     41  C2  UNL     1      11.139   7.686  20.256  0.00  0.00    +0.104 C 
ENDBRANCH  38  40
ENDBRANCH  32  38
ENDBRANCH  31  36
ENDBRANCH  27  31
ENDBRANCH   1  28
TORSDOF 7
ENDMDL
MODEL 7
REMARK VINA RESULT:    -7.612     10.378     17.665
REMARK INTER + INTRA:         -11.775
REMARK INTER:                 -10.775
REMARK INTRA:                  -1.000
REMARK UNBOUND:                -1.049
REMARK  Name = /home/qwerty/github/datacon2025hack/step_04_hit_selection/docking/ligands/lig_172.pdb
REMARK  9 active torsions:
REMARK  status: ('A' for Active; 'I' for Inactive)
REMARK    1  A    between atoms: C1_1  and  N1_2
REMARK    2  A    between atoms: N1_2  and  C2_3
REMARK    3  A    between atoms: N1_2  and  C3_4
REMARK    4  A    between atoms: C3_4  and  C4_5
REMARK    5  A    between atoms: C8_9  and  C9_10
REMARK    6  A    between atoms: C9_10  and  N2_11
REMARK    7  A    between atoms: C10_12  and  C11_14
REMARK    8  A    between atoms: C15_19  and  C16_20
REMARK    9  A    between atoms: C19_23  and  C20_24
REMARK                            x       y       z     vdW  Elec       q    Type
REMARK                         _______ _______ _______ _____ _____    ______ ____
ROOT
ATOM      1  C11 UNL     1      10.501  13.286  29.048  0.00  0.00    +0.037 A 
ATOM      2  C12 UNL     1       9.091  13.380  29.207  0.00  0.00    +0.015 A 
ATOM      3  C13 UNL     1       8.222  12.630  28.394  0.00  0.00    +0.027 A 
ATOM      4  C14 UNL     1       8.785  11.789  27.439  0.00  0.00    +0.047 A 
ATOM      5  N3  UNL     1       8.139  10.991  26.574  0.00  0.00    -0.353 N 
ATOM      6  C15 UNL     1       9.106  10.366  25.858  0.00  0.00    +0.064 A 
ATOM      7  C28 UNL     1      10.374  10.773  26.276  0.00  0.00    +0.037 A 
ATOM      8  C29 UNL     1      10.140  11.683  27.285  0.00  0.00    +0.001 A 
ATOM      9  C30 UNL     1      11.032  12.409  28.071  0.00  0.00    +0.023 A 
ATOM     10  H17 UNL     1       7.104  10.882  26.479  0.00  0.00    +0.166 HD
ENDROOT
BRANCH   6  11
ATOM     11  C16 UNL     1       8.839   9.391  24.784  0.00  0.00    +0.064 A 
ATOM     12  C17 UNL     1       8.981   8.009  24.897  0.00  0.00    +0.038 A 
ATOM     13  C18 UNL     1       8.632   7.503  23.659  0.00  0.00    +0.011 A 
ATOM     14  C19 UNL     1       8.610   6.191  23.161  0.00  0.00    +0.011 A 
ATOM     15  C25 UNL     1       8.256   6.039  21.801  0.00  0.00    +0.120 A 
ATOM     16  N5  UNL     1       7.943   7.131  21.034  0.00  0.00    -0.261 NA
ATOM     17  C26 UNL     1       7.963   8.399  21.535  0.00  0.00    +0.137 A 
ATOM     18  C27 UNL     1       8.316   8.573  22.868  0.00  0.00    +0.066 A 
ATOM     19  N6  UNL     1       8.431   9.730  23.538  0.00  0.00    -0.352 N 
ATOM     20  H25 UNL     1       8.254  10.689  23.164  0.00  0.00    +0.166 HD
BRANCH  14  21
ATOM     21  C20 UNL     1       8.938   5.013  23.997  0.00  0.00    +0.002 A 
ATOM     22  C21 UNL     1       7.943   4.342  24.723  0.00  0.00    +0.011 A 
ATOM     23  C22 UNL     1       8.272   3.226  25.495  0.00  0.00    +0.020 A 
ATOM     24  C23 UNL     1       9.594   2.784  25.530  0.00  0.00    +0.111 A 
ATOM     25  N4  UNL     1      10.549   3.435  24.814  0.00  0.00    -0.263 NA
ATOM     26  C24 UNL     1      10.255   4.524  24.054  0.00  0.00    +0.119 A 
ENDBRANCH  14  21
ENDBRANCH   6  11
BRANCH   1  28
ATOM     27  N2  UNL     1      11.314  13.992  31.352  0.00  0.00    -0.307 N 
ATOM     28  C10 UNL     1      11.395  14.084  29.920  0.00  0.00    +0.244 C 
ATOM     29  O1  UNL     1      12.251  14.848  29.395  0.00  0.00    -0.270 OA
ATOM     30  H14 UNL     1      10.767  13.220  31.794  0.00  0.00    +0.149 HD
BRANCH  27  31
ATOM     31  C9  UNL     1      12.039  14.902  32.235  0.00  0.00    +0.139 C 
BRANCH  31  36
ATOM     32  C4  UNL     1      13.267  13.946  35.724  0.00  0.00    -0.033 A 
ATOM     33  C5  UNL     1      12.106  13.362  36.260  0.00  0.00    +0.005 A 
ATOM     34  C6  UNL     1      10.944  13.269  35.492  0.00  0.00    +0.001 A 
ATOM     35  C7  UNL     1      10.925  13.763  34.185  0.00  0.00    +0.005 A 
ATOM     36  C8  UNL     1      12.073  14.355  33.636  0.00  0.00    -0.030 A 
ATOM     37  C31 UNL     1      13.239  14.451  34.414  0.00  0.00    +0.010 A 
BRANCH  32  38
ATOM     38  C3  UNL     1      14.531  14.039  36.555  0.00  0.00    +0.119 C 
BRANCH  38  40
ATOM     39  C1  UNL     1      16.692  13.693  35.437  0.00  0.00    +0.104 C 
ATOM     40  N1  UNL     1      15.577  13.067  36.167  0.00  0.00    -0.304 NA
ATOM     41  C2  UNL     1      16.072  12.280  37.307  0.00  0.00    +0.104 C 
ENDBRANCH  38  40
ENDBRANCH  32  38
ENDBRANCH  31  36
ENDBRANCH  27  31
ENDBRANCH   1  28
TORSDOF 7
ENDMDL
MODEL 8
REMARK VINA RESULT:    -7.594      9.282     15.405
REMARK INTER + INTRA:         -11.750
REMARK INTER:                 -10.748
REMARK INTRA:                  -1.003
REMARK UNBOUND:                -1.049
REMARK  Name = /home/qwerty/github/datacon2025hack/step_04_hit_selection/docking/ligands/lig_172.pdb
REMARK  9 active torsions:
REMARK  status: ('A' for Active; 'I' for Inactive)
REMARK    1  A    between atoms: C1_1  and  N1_2
REMARK    2  A    between atoms: N1_2  and  C2_3
REMARK    3  A    between atoms: N1_2  and  C3_4
REMARK    4  A    between atoms: C3_4  and  C4_5
REMARK    5  A    between atoms: C8_9  and  C9_10
REMARK    6  A    between atoms: C9_10  and  N2_11
REMARK    7  A    between atoms: C10_12  and  C11_14
REMARK    8  A    between atoms: C15_19  and  C16_20
REMARK    9  A    between atoms: C19_23  and  C20_24
REMARK                            x       y       z     vdW  Elec       q    Type
REMARK                         _______ _______ _______ _____ _____    ______ ____
ROOT
ATOM      1  C11 UNL     1       9.127   6.725  21.862  0.00  0.00    +0.037 A 
ATOM      2  C12 UNL     1       8.348   5.824  21.085  0.00  0.00    +0.015 A 
ATOM      3  C13 UNL     1       8.869   4.580  20.685  0.00  0.00    +0.027 A 
ATOM      4  C14 UNL     1      10.164   4.258  21.080  0.00  0.00    +0.047 A 
ATOM      5  N3  UNL     1      10.841   3.130  20.810  0.00  0.00    -0.353 N 
ATOM      6  C15 UNL     1      12.048   3.274  21.409  0.00  0.00    +0.064 A 
ATOM      7  C28 UNL     1      12.134   4.504  22.063  0.00  0.00    +0.037 A 
ATOM      8  C29 UNL     1      10.918   5.113  21.835  0.00  0.00    +0.001 A 
ATOM      9  C30 UNL     1      10.437   6.352  22.251  0.00  0.00    +0.023 A 
ATOM     10  H17 UNL     1      10.498   2.316  20.252  0.00  0.00    +0.166 HD
ENDROOT
BRANCH   6  11
ATOM     11  C16 UNL     1      13.118   2.259  21.366  0.00  0.00    +0.064 A 
ATOM     12  C17 UNL     1      13.601   1.550  22.464  0.00  0.00    +0.038 A 
ATOM     13  C18 UNL     1      14.589   0.725  21.961  0.00  0.00    +0.011 A 
ATOM     14  C19 UNL     1      15.448  -0.190  22.588  0.00  0.00    +0.011 A 
ATOM     15  C25 UNL     1      16.403  -0.827  21.762  0.00  0.00    +0.120 A 
ATOM     16  N5  UNL     1      16.456  -0.557  20.420  0.00  0.00    -0.261 NA
ATOM     17  C26 UNL     1      15.611   0.331  19.824  0.00  0.00    +0.137 A 
ATOM     18  C27 UNL     1      14.670   0.975  20.618  0.00  0.00    +0.066 A 
ATOM     19  N6  UNL     1      13.777   1.903  20.237  0.00  0.00    -0.352 N 
ATOM     20  H25 UNL     1      13.638   2.276  19.272  0.00  0.00    +0.166 HD
BRANCH  14  21
ATOM     21  C20 UNL     1      15.378  -0.488  24.037  0.00  0.00    +0.002 A 
ATOM     22  C21 UNL     1      14.587  -1.540  24.522  0.00  0.00    +0.011 A 
ATOM     23  C22 UNL     1      14.544  -1.811  25.891  0.00  0.00    +0.020 A 
ATOM     24  C23 UNL     1      15.301  -1.032  26.766  0.00  0.00    +0.111 A 
ATOM     25  N4  UNL     1      16.072  -0.023  26.285  0.00  0.00    -0.263 NA
ATOM     26  C24 UNL     1      16.132   0.262  24.957  0.00  0.00    +0.119 A 
ENDBRANCH  14  21
ENDBRANCH   6  11
BRANCH   1  28
ATOM     27  N2  UNL     1       8.338   8.340  23.661  0.00  0.00    -0.307 N 
ATOM     28  C10 UNL     1       8.553   8.028  22.275  0.00  0.00    +0.244 C 
ATOM     29  O1  UNL     1       8.262   8.882  21.394  0.00  0.00    -0.270 OA
ATOM     30  H14 UNL     1       8.764   7.740  24.402  0.00  0.00    +0.149 HD
BRANCH  27  31
ATOM     31  C9  UNL     1       7.599   9.526  24.089  0.00  0.00    +0.139 C 
BRANCH  31  36
ATOM     32  C4  UNL     1       8.551  11.178  27.399  0.00  0.00    -0.033 A 
ATOM     33  C5  UNL     1       8.123  10.200  28.313  0.00  0.00    +0.005 A 
ATOM     34  C6  UNL     1       7.544   9.014  27.858  0.00  0.00    +0.001 A 
ATOM     35  C7  UNL     1       7.381   8.794  26.488  0.00  0.00    +0.005 A 
ATOM     36  C8  UNL     1       7.797   9.762  25.561  0.00  0.00    -0.030 A 
ATOM     37  C31 UNL     1       8.375  10.955  26.024  0.00  0.00    +0.010 A 
BRANCH  32  38
ATOM     38  C3  UNL     1       9.187  12.462  27.893  0.00  0.00    +0.119 C 
BRANCH  38  40
ATOM     39  C1  UNL     1       9.856  13.443  30.044  0.00  0.00    +0.104 C 
ATOM     40  N1  UNL     1       8.761  12.857  29.254  0.00  0.00    -0.304 NA
ATOM     41  C2  UNL     1       7.587  13.743  29.246  0.00  0.00    +0.104 C 
ENDBRANCH  38  40
ENDBRANCH  32  38
ENDBRANCH  31  36
ENDBRANCH  27  31
ENDBRANCH   1  28
TORSDOF 7
ENDMDL
MODEL 9
REMARK VINA RESULT:    -7.541      4.494      7.976
REMARK INTER + INTRA:         -11.676
REMARK INTER:                 -10.475
REMARK INTRA:                  -1.200
REMARK UNBOUND:                -1.049
REMARK  Name = /home/qwerty/github/datacon2025hack/step_04_hit_selection/docking/ligands/lig_172.pdb
REMARK  9 active torsions:
REMARK  status: ('A' for Active; 'I' for Inactive)
REMARK    1  A    between atoms: C1_1  and  N1_2
REMARK    2  A    between atoms: N1_2  and  C2_3
REMARK    3  A    between atoms: N1_2  and  C3_4
REMARK    4  A    between atoms: C3_4  and  C4_5
REMARK    5  A    between atoms: C8_9  and  C9_10
REMARK    6  A    between atoms: C9_10  and  N2_11
REMARK    7  A    between atoms: C10_12  and  C11_14
REMARK    8  A    between atoms: C15_19  and  C16_20
REMARK    9  A    between atoms: C19_23  and  C20_24
REMARK                            x       y       z     vdW  Elec       q    Type
REMARK                         _______ _______ _______ _____ _____    ______ ____
ROOT
ATOM      1  C11 UNL     1      16.220   0.981  21.783  0.00  0.00    +0.037 A 
ATOM      2  C12 UNL     1      16.505  -0.411  21.832  0.00  0.00    +0.015 A 
ATOM      3  C13 UNL     1      17.350  -0.939  22.825  0.00  0.00    +0.027 A 
ATOM      4  C14 UNL     1      17.888  -0.059  23.759  0.00  0.00    +0.047 A 
ATOM      5  N3  UNL     1      18.707  -0.358  24.781  0.00  0.00    -0.353 N 
ATOM      6  C15 UNL     1      18.952   0.818  25.410  0.00  0.00    +0.064 A 
ATOM      7  C28 UNL     1      18.282   1.867  24.779  0.00  0.00    +0.037 A 
ATOM      8  C29 UNL     1      17.612   1.280  23.727  0.00  0.00    +0.001 A 
ATOM      9  C30 UNL     1      16.780   1.840  22.760  0.00  0.00    +0.023 A 
ATOM     10  H17 UNL     1      19.073  -1.303  25.031  0.00  0.00    +0.166 HD
ENDROOT
BRANCH   6  11
ATOM     11  C16 UNL     1      19.814   0.955  26.599  0.00  0.00    +0.064 A 
ATOM     12  C17 UNL     1      19.363   1.077  27.912  0.00  0.00    +0.038 A 
ATOM     13  C18 UNL     1      20.505   1.183  28.684  0.00  0.00    +0.011 A 
ATOM     14  C19 UNL     1      20.684   1.360  30.064  0.00  0.00    +0.011 A 
ATOM     15  C25 UNL     1      22.018   1.497  30.514  0.00  0.00    +0.120 A 
ATOM     16  N5  UNL     1      23.062   1.444  29.630  0.00  0.00    -0.261 NA
ATOM     17  C26 UNL     1      22.872   1.266  28.291  0.00  0.00    +0.137 A 
ATOM     18  C27 UNL     1      21.569   1.137  27.825  0.00  0.00    +0.066 A 
ATOM     19  N6  UNL     1      21.167   0.992  26.552  0.00  0.00    -0.352 N 
ATOM     20  H25 UNL     1      21.778   0.936  25.707  0.00  0.00    +0.166 HD
BRANCH  14  21
ATOM     21  C20 UNL     1      19.552   1.405  31.017  0.00  0.00    +0.002 A 
ATOM     22  C21 UNL     1      19.195   0.275  31.770  0.00  0.00    +0.011 A 
ATOM     23  C22 UNL     1      18.131   0.342  32.672  0.00  0.00    +0.020 A 
ATOM     24  C23 UNL     1      17.437   1.543  32.822  0.00  0.00    +0.111 A 
ATOM     25  N4  UNL     1      17.798   2.634  32.097  0.00  0.00    -0.263 NA
ATOM     26  C24 UNL     1      18.829   2.595  31.211  0.00  0.00    +0.119 A 
ENDBRANCH  14  21
ENDBRANCH   6  11
BRANCH   1  28
ATOM     27  N2  UNL     1      14.782   2.842  20.814  0.00  0.00    -0.307 N 
ATOM     28  C10 UNL     1      15.323   1.513  20.729  0.00  0.00    +0.244 C 
ATOM     29  O1  UNL     1      15.041   0.790  19.735  0.00  0.00    -0.270 OA
ATOM     30  H14 UNL     1      15.168   3.518  21.510  0.00  0.00    +0.149 HD
BRANCH  27  31
ATOM     31  C9  UNL     1      13.747   3.323  19.901  0.00  0.00    +0.139 C 
BRANCH  31  36
ATOM     32  C4  UNL     1      11.011   3.186  22.563  0.00  0.00    -0.033 A 
ATOM     33  C5  UNL     1      10.106   4.135  22.058  0.00  0.00    +0.005 A 
ATOM     34  C6  UNL     1      10.377   4.802  20.863  0.00  0.00    +0.001 A 
ATOM     35  C7  UNL     1      11.555   4.533  20.160  0.00  0.00    +0.005 A 
ATOM     36  C8  UNL     1      12.472   3.593  20.652  0.00  0.00    -0.030 A 
ATOM     37  C31 UNL     1      12.198   2.927  21.859  0.00  0.00    +0.010 A 
BRANCH  32  38
ATOM     38  C3  UNL     1      10.713   2.456  23.858  0.00  0.00    +0.119 C 
BRANCH  38  40
ATOM     39  C1  UNL     1       9.763   0.401  22.902  0.00  0.00    +0.104 C 
ATOM     40  N1  UNL     1       9.539   1.558  23.784  0.00  0.00    -0.304 NA
ATOM     41  C2  UNL     1       9.071   1.124  25.109  0.00  0.00    +0.104 C 
ENDBRANCH  38  40
ENDBRANCH  32  38
ENDBRANCH  31  36
ENDBRANCH  27  31
ENDBRANCH   1  28
TORSDOF 7
ENDMDL
