REMARK  Name = /home/qwerty/github/datacon2025hack/step_04_hit_selection/docking/ligands/lig_276.pdb
REMARK  4 active torsions:
REMARK  status: ('A' for Active; 'I' for Inactive)
REMARK    1  A    between atoms: C1_2  and  C13_20
REMARK    2  A    between atoms: N1_3  and  C2_4
REMARK    3  A    between atoms: C2_4  and  C3_5
REMARK    4  A    between atoms: C6_9  and  C7_11
REMARK                            x       y       z     vdW  Elec       q    Type
REMARK                         _______ _______ _______ _____ _____    ______ ____
ROOT
ATOM      1  C3  UNL     1      -0.917  -0.716  -0.105  0.00  0.00    +0.095 C 
ATOM      2  C4  UNL     1      -1.028   0.061  -1.382  0.00  0.00    +0.043 C 
ATOM      3  C5  UNL     1       0.455   0.162  -1.241  0.00  0.00    +0.110 C 
ATOM      4  N2  UNL     1       0.550  -0.607   0.017  0.00  0.00    -0.293 N 
ATOM      5  C6  UNL     1       1.559  -1.187   0.851  0.00  0.00    +0.248 C 
ATOM      6  O2  UNL     1       1.216  -2.018   1.734  0.00  0.00    -0.270 OA
ENDROOT
BRANCH   5   7
ATOM      7  C7  UNL     1       2.990  -0.868   0.670  0.00  0.00    +0.056 A 
ATOM      8  C8  UNL     1       3.977  -1.860   0.932  0.00  0.00    +0.126 A 
ATOM      9  N3  UNL     1       5.308  -1.585   0.778  0.00  0.00    -0.235 NA
ATOM     10  C9  UNL     1       5.672  -0.344   0.376  0.00  0.00    +0.156 A 
ATOM     11  N4  UNL     1       6.917   0.113   0.187  0.00  0.00    -0.260 N 
ATOM     12  N5  UNL     1       6.832   1.388  -0.182  0.00  0.00    -0.180 NA
ATOM     13  C10 UNL     1       5.521   1.739  -0.225  0.00  0.00    +0.144 A 
ATOM     14  C11 UNL     1       4.770   0.639   0.129  0.00  0.00    +0.039 A 
ATOM     15  C12 UNL     1       3.406   0.423   0.269  0.00  0.00    +0.027 A 
ATOM     16  H10 UNL     1       7.809  -0.417   0.306  0.00  0.00    +0.191 HD
ENDBRANCH   5   7
BRANCH   1  17
ATOM     17  C2  UNL     1      -1.620  -0.061   1.094  0.00  0.00    +0.127 C 
BRANCH  17  20
ATOM     18  O1  UNL     1      -3.362   2.146   0.523  0.00  0.00    -0.268 OA
ATOM     19  C1  UNL     1      -3.883   1.001   0.602  0.00  0.00    +0.266 C 
ATOM     20  N1  UNL     1      -3.071  -0.139   0.932  0.00  0.00    -0.308 N 
ATOM     21  H1  UNL     1      -3.507  -1.086   0.987  0.00  0.00    +0.149 HD
BRANCH  19  22
ATOM     22  C13 UNL     1      -5.329   0.861   0.354  0.00  0.00    +0.168 A 
ATOM     23  C14 UNL     1      -6.076  -0.301   0.389  0.00  0.00    +0.077 A 
ATOM     24  C15 UNL     1      -7.352   0.117   0.085  0.00  0.00    +0.231 A 
ATOM     25  O3  UNL     1      -7.331   1.416  -0.107  0.00  0.00    -0.362 OA
ATOM     26  N6  UNL     1      -6.132   1.898   0.045  0.00  0.00    -0.074 NA
ENDBRANCH  19  22
ENDBRANCH  17  20
ENDBRANCH   1  17
TORSDOF 4
