REMARK  Name = /home/qwerty/github/datacon2025hack/step_04_hit_selection/docking/ligands/lig_706.pdb
REMARK  6 active torsions:
REMARK  status: ('A' for Active; 'I' for Inactive)
REMARK    1  A    between atoms: C1_1  and  C2_2
REMARK    2  A    between atoms: C2_2  and  C3_3
REMARK    3  A    between atoms: C3_3  and  N1_4
REMARK    4  A    between atoms: C3_3  and  C14_18
REMARK    5  A    between atoms: N2_7  and  C5_8
REMARK    6  A    between atoms: N3_16  and  C13_17
REMARK                            x       y       z     vdW  Elec       q    Type
REMARK                         _______ _______ _______ _____ _____    ______ ____
ROOT
ATOM      1  N1  UNL     1      -1.149  -0.381   0.090  0.00  0.00    -0.296 N 
ATOM      2  C4  UNL     1       0.236  -0.718   0.251  0.00  0.00    +0.304 C 
ATOM      3  O1  UNL     1       0.800  -0.563   1.369  0.00  0.00    -0.253 OA
ATOM      4  N2  UNL     1       0.969  -1.258  -0.857  0.00  0.00    -0.269 N 
ATOM      5  H7  UNL     1      -1.602  -0.630  -0.817  0.00  0.00    +0.151 HD
ATOM      6  H8  UNL     1       0.430  -1.672  -1.651  0.00  0.00    +0.156 HD
ENDROOT
BRANCH   4   7
ATOM      7  C5  UNL     1       2.394  -1.421  -0.846  0.00  0.00    +0.044 A 
ATOM      8  C6  UNL     1       2.970  -2.634  -1.273  0.00  0.00    +0.024 A 
ATOM      9  C7  UNL     1       4.371  -2.803  -1.280  0.00  0.00    +0.004 A 
ATOM     10  C8  UNL     1       5.217  -1.757  -0.878  0.00  0.00    +0.026 A 
ATOM     11  C9  UNL     1       4.629  -0.554  -0.480  0.00  0.00    +0.051 A 
ATOM     12  C10 UNL     1       3.265  -0.387  -0.470  0.00  0.00    +0.021 A 
ATOM     13  C11 UNL     1       3.020   0.925  -0.104  0.00  0.00    +0.029 A 
ATOM     14  C12 UNL     1       4.269   1.494   0.110  0.00  0.00    +0.086 A 
ATOM     15  N3  UNL     1       5.247   0.586  -0.113  0.00  0.00    -0.350 N 
ATOM     16  C13 UNL     1       6.685   0.829  -0.045  0.00  0.00    +0.149 C 
ENDBRANCH   4   7
BRANCH   1  17
ATOM     17  C3  UNL     1      -1.936   0.245   1.163  0.00  0.00    +0.079 C 
BRANCH  17  18
ATOM     18  C14 UNL     1      -3.472   0.127   0.922  0.00  0.00    +0.035 C 
ATOM     19  C15 UNL     1      -3.985   0.860  -0.342  0.00  0.00    +0.010 C 
ATOM     20  C16 UNL     1      -5.209   0.164  -0.950  0.00  0.00    +0.028 C 
ATOM     21  C17 UNL     1      -6.038  -0.519   0.148  0.00  0.00    +0.160 C 
ATOM     22  O2  UNL     1      -5.337  -1.518   0.882  0.00  0.00    -0.379 OA
ATOM     23  C18 UNL     1      -3.924  -1.354   0.898  0.00  0.00    +0.165 C 
ENDBRANCH  17  18
BRANCH  17  25
ATOM     24  C1  UNL     1      -1.184   2.560   0.223  0.00  0.00    +0.006 C 
ATOM     25  C2  UNL     1      -1.462   1.694   1.457  0.00  0.00    +0.019 C 
ENDBRANCH  17  25
ENDBRANCH   1  17
TORSDOF 4
