REMARK  Name = /home/qwerty/github/datacon2025hack/step_04_hit_selection/docking/ligands/lig_363.pdb
REMARK  9 active torsions:
REMARK  status: ('A' for Active; 'I' for Inactive)
REMARK    1  A    between atoms: C1_1  and  C2_2
REMARK    2  A    between atoms: C2_2  and  N1_3
REMARK    3  A    between atoms: N1_3  and  C3_4
REMARK    4  A    between atoms: N1_3  and  C5_6
REMARK    5  A    between atoms: C3_4  and  C4_5
REMARK    6  A    between atoms: C5_6  and  C6_7
REMARK    7  A    between atoms: C9_10  and  N2_11
REMARK    8  A    between atoms: C10_12  and  C11_14
REMARK    9  A    between atoms: C16_19  and  N3_20
REMARK                            x       y       z     vdW  Elec       q    Type
REMARK                         _______ _______ _______ _____ _____    ______ ____
ROOT
ATOM      1  N2  UNL     1       0.474   0.628   0.399  0.00  0.00    -0.281 N 
ATOM      2  C10 UNL     1       1.531   0.855  -0.550  0.00  0.00    +0.251 C 
ATOM      3  O1  UNL     1       1.265   1.093  -1.759  0.00  0.00    -0.270 OA
ATOM      4  H15 UNL     1       0.726   0.535   1.409  0.00  0.00    +0.155 HD
ENDROOT
BRANCH   2   5
ATOM      5  C11 UNL     1       2.945   0.799  -0.123  0.00  0.00    +0.071 A 
ATOM      6  C12 UNL     1       3.836   0.019  -0.878  0.00  0.00    +0.064 A 
ATOM      7  C13 UNL     1       5.170  -0.128  -0.490  0.00  0.00    +0.163 A 
ATOM      8  C14 UNL     1       5.610   0.451   0.717  0.00  0.00    +0.164 A 
ATOM      9  C15 UNL     1       4.747   1.279   1.440  0.00  0.00    +0.083 A 
ATOM     10  C16 UNL     1       3.420   1.480   1.026  0.00  0.00    +0.142 A 
ATOM     11  O4  UNL     1       6.885   0.197   1.239  0.00  0.00    -0.488 OA
ATOM     12  C17 UNL     1       7.565  -1.041   1.044  0.00  0.00    +0.232 C 
ATOM     13  C18 UNL     1       8.253  -1.111  -0.322  0.00  0.00    +0.082 C 
ATOM     14  C19 UNL     1       7.425  -0.502  -1.455  0.00  0.00    +0.232 C 
ATOM     15  O5  UNL     1       6.040  -0.823  -1.339  0.00  0.00    -0.488 OA
BRANCH  10  16
ATOM     16  N3  UNL     1       2.592   2.401   1.761  0.00  0.00    +0.057 N 
ATOM     17  O2  UNL     1       1.770   3.128   1.166  0.00  0.00    -0.126 OA
ATOM     18  O3  UNL     1       2.826   2.623   3.098  0.00  0.00    -0.126 OA
ENDBRANCH  10  16
ENDBRANCH   2   5
BRANCH   1  22
ATOM     19  C6  UNL     1      -3.684   0.584  -0.516  0.00  0.00    -0.033 A 
ATOM     20  C7  UNL     1      -2.759   0.028  -1.415  0.00  0.00    +0.007 A 
ATOM     21  C8  UNL     1      -1.392   0.036  -1.123  0.00  0.00    +0.023 A 
ATOM     22  C9  UNL     1      -0.923   0.626   0.063  0.00  0.00    +0.034 A 
ATOM     23  C20 UNL     1      -1.846   1.179   0.962  0.00  0.00    +0.023 A 
ATOM     24  C21 UNL     1      -3.212   1.172   0.669  0.00  0.00    +0.007 A 
BRANCH  19  25
ATOM     25  C5  UNL     1      -5.166   0.591  -0.841  0.00  0.00    +0.119 C 
BRANCH  25  26
ATOM     26  N1  UNL     1      -5.914  -0.599  -0.350  0.00  0.00    -0.299 NA
BRANCH  26  28
ATOM     27  C1  UNL     1      -6.809   0.371   1.763  0.00  0.00    +0.020 C 
ATOM     28  C2  UNL     1      -5.941  -0.715   1.127  0.00  0.00    +0.081 C 
ENDBRANCH  26  28
BRANCH  26  29
ATOM     29  C3  UNL     1      -5.484  -1.871  -0.977  0.00  0.00    +0.081 C 
ATOM     30  C4  UNL     1      -5.894  -1.942  -2.448  0.00  0.00    +0.020 C 
ENDBRANCH  26  29
ENDBRANCH  25  26
ENDBRANCH  19  25
ENDBRANCH   1  22
TORSDOF 7
