REMARK  Name = /home/qwerty/github/datacon2025hack/step_04_hit_selection/docking/ligands/lig_443.pdb
REMARK  5 active torsions:
REMARK  status: ('A' for Active; 'I' for Inactive)
REMARK    1  A    between atoms: N1_3  and  C2_4
REMARK    2  A    between atoms: C4_6  and  C5_7
REMARK    3  A    between atoms: C13_17  and  C14_18
REMARK    4  A    between atoms: C17_22  and  C18_23
REMARK    5  A    between atoms: C18_23  and  N5_24
REMARK                            x       y       z     vdW  Elec       q    Type
REMARK                         _______ _______ _______ _____ _____    ______ ____
ROOT
ATOM      1  O1  UNL     1       2.509   0.929   2.487  0.00  0.00    -0.253 OA
ATOM      2  C1  UNL     1       1.459   1.548   2.161  0.00  0.00    +0.303 C 
ATOM      3  N1  UNL     1       1.502   2.490   1.077  0.00  0.00    -0.296 N 
ATOM      4  N3  UNL     1       0.225   1.264   2.849  0.00  0.00    -0.279 N 
ATOM      5  C10 UNL     1       0.154   0.319   3.949  0.00  0.00    +0.110 C 
ATOM      6  C11 UNL     1      -1.223   0.507   4.568  0.00  0.00    +0.021 C 
ATOM      7  C12 UNL     1      -2.059   1.263   3.537  0.00  0.00    +0.029 C 
ATOM      8  C13 UNL     1      -1.067   1.867   2.534  0.00  0.00    +0.109 C 
ATOM      9  H1  UNL     1       0.714   3.159   0.925  0.00  0.00    +0.151 HD
ENDROOT
BRANCH   8  10
ATOM     10  C14 UNL     1      -1.482   1.571   1.104  0.00  0.00    -0.009 A 
ATOM     11  C15 UNL     1      -1.922   2.603   0.262  0.00  0.00    +0.116 A 
ATOM     12  N4  UNL     1      -2.305   2.334  -1.013  0.00  0.00    -0.263 NA
ATOM     13  C16 UNL     1      -2.301   1.073  -1.512  0.00  0.00    +0.115 A 
ATOM     14  C17 UNL     1      -1.909  -0.004  -0.704  0.00  0.00    -0.015 A 
ATOM     15  C24 UNL     1      -1.486   0.256   0.606  0.00  0.00    +0.013 A 
BRANCH  14  16
ATOM     16  C18 UNL     1      -2.010  -1.419  -1.217  0.00  0.00    +0.121 C 
BRANCH  16  17
ATOM     17  N5  UNL     1      -3.420  -1.782  -1.485  0.00  0.00    -0.298 NA
ATOM     18  C19 UNL     1      -3.480  -3.039  -2.262  0.00  0.00    +0.085 C 
ATOM     19  C20 UNL     1      -4.934  -3.470  -2.558  0.00  0.00    +0.015 C 
ATOM     20  C21 UNL     1      -5.959  -2.496  -1.975  0.00  0.00    +0.002 C 
ATOM     21  C22 UNL     1      -5.673  -2.232  -0.493  0.00  0.00    +0.015 C 
ATOM     22  C23 UNL     1      -4.184  -1.928  -0.224  0.00  0.00    +0.085 C 
ENDBRANCH  16  17
ENDBRANCH  14  16
ENDBRANCH   8  10
BRANCH   3  23
ATOM     23  C2  UNL     1       2.666   2.584   0.200  0.00  0.00    +0.078 C 
ATOM     24  C3  UNL     1       2.308   2.661  -1.280  0.00  0.00    +0.028 C 
ATOM     25  C4  UNL     1       2.840   1.359  -0.692  0.00  0.00    +0.014 C 
BRANCH  25  26
ATOM     26  C5  UNL     1       4.299   1.016  -1.050  0.00  0.00    -0.004 C 
ATOM     27  C6  UNL     1       4.953   0.232   0.101  0.00  0.00    +0.019 C 
ATOM     28  C7  UNL     1       6.353  -0.245  -0.301  0.00  0.00    +0.081 C 
ATOM     29  N2  UNL     1       6.281  -1.075  -1.509  0.00  0.00    -0.316 NA
ATOM     30  C8  UNL     1       5.757  -0.298  -2.641  0.00  0.00    +0.081 C 
ATOM     31  C9  UNL     1       4.334   0.187  -2.345  0.00  0.00    +0.019 C 
ATOM     32  H11 UNL     1       7.255  -1.371  -1.752  0.00  0.00    +0.122 HD
ENDBRANCH  25  26
ENDBRANCH   3  23
TORSDOF 5
