REMARK  Name = /home/qwerty/github/datacon2025hack/step_04_hit_selection/docking/ligands/lig_203.pdb
REMARK  5 active torsions:
REMARK  status: ('A' for Active; 'I' for Inactive)
REMARK    1  A    between atoms: C1_1  and  C2_2
REMARK    2  A    between atoms: C2_2  and  N1_3
REMARK    3  A    between atoms: C2_2  and  C3_4
REMARK    4  A    between atoms: N2_11  and  C10_12
REMARK    5  A    between atoms: C13_15  and  N3_16
REMARK                            x       y       z     vdW  Elec       q    Type
REMARK                         _______ _______ _______ _____ _____    ______ ____
ROOT
ATOM      1  C3  UNL     1       4.748  -0.519   0.491  0.00  0.00    -0.030 A 
ATOM      2  C4  UNL     1       3.587  -1.332   0.414  0.00  0.00    +0.007 A 
ATOM      3  C5  UNL     1       2.313  -0.760   0.251  0.00  0.00    +0.027 A 
ATOM      4  C6  UNL     1       2.224   0.631   0.151  0.00  0.00    +0.054 A 
ATOM      5  C7  UNL     1       3.340   1.422   0.245  0.00  0.00    +0.000 A 
ATOM      6  C8  UNL     1       2.930   2.735   0.174  0.00  0.00    +0.028 A 
ATOM      7  C9  UNL     1       1.548   2.682   0.040  0.00  0.00    +0.092 A 
ATOM      8  N2  UNL     1       1.119   1.396   0.017  0.00  0.00    -0.316 N 
ATOM      9  C20 UNL     1       4.615   0.888   0.409  0.00  0.00    +0.015 A 
ENDROOT
BRANCH   8  10
ATOM     10  C10 UNL     1      -0.247   0.972  -0.129  0.00  0.00    +0.047 A 
ATOM     11  C11 UNL     1      -1.260   1.588   0.620  0.00  0.00    +0.028 A 
ATOM     12  C12 UNL     1      -2.592   1.192   0.471  0.00  0.00    +0.025 A 
ATOM     13  C13 UNL     1      -2.937   0.180  -0.441  0.00  0.00    +0.030 A 
ATOM     14  C18 UNL     1      -1.921  -0.423  -1.204  0.00  0.00    +0.025 A 
ATOM     15  C19 UNL     1      -0.590  -0.027  -1.052  0.00  0.00    +0.028 A 
BRANCH  13  16
ATOM     16  N3  UNL     1      -4.313  -0.231  -0.592  0.00  0.00    -0.327 N 
ATOM     17  C14 UNL     1      -4.834  -0.583  -1.922  0.00  0.00    +0.120 C 
ATOM     18  C15 UNL     1      -6.337  -0.250  -2.063  0.00  0.00    +0.100 C 
ATOM     19  N4  UNL     1      -7.058  -0.172  -0.779  0.00  0.00    -0.313 NA
ATOM     20  C16 UNL     1      -6.487  -1.064   0.230  0.00  0.00    +0.100 C 
ATOM     21  C17 UNL     1      -5.099  -0.552   0.608  0.00  0.00    +0.120 C 
ATOM     22  H17 UNL     1      -8.053  -0.457  -0.942  0.00  0.00    +0.122 HD
ENDBRANCH  13  16
ENDBRANCH   8  10
BRANCH   1  24
ATOM     23  C1  UNL     1       7.009  -0.888  -0.550  0.00  0.00    +0.029 C 
ATOM     24  C2  UNL     1       6.109  -1.159   0.665  0.00  0.00    +0.078 C 
BRANCH  24  25
ATOM     25  N1  UNL     1       6.735  -0.693   1.905  0.00  0.00    -0.324 NA
ATOM     26  H5  UNL     1       7.054   0.297   1.792  0.00  0.00    +0.119 HD
ATOM     27  H6  UNL     1       7.590  -1.269   2.083  0.00  0.00    +0.119 HD
ENDBRANCH  24  25
ENDBRANCH   1  24
TORSDOF 4
