MODEL 1
REMARK VINA RESULT:    -7.458      0.000      0.000
REMARK INTER + INTRA:         -10.561
REMARK INTER:                  -9.638
REMARK INTRA:                  -0.924
REMARK UNBOUND:                -0.924
REMARK  Name = /home/qwerty/github/datacon2025hack/step_04_hit_selection/docking/ligands/lig_139.pdb
REMARK  6 active torsions:
REMARK  status: ('A' for Active; 'I' for Inactive)
REMARK    1  A    between atoms: C1_1  and  C2_2
REMARK    2  A    between atoms: C2_2  and  N1_3
REMARK    3  A    between atoms: C2_2  and  C20_27
REMARK    4  A    between atoms: C6_9  and  N3_10
REMARK    5  A    between atoms: C10_15  and  C11_16
REMARK    6  A    between atoms: N4_18  and  C12_19
REMARK                            x       y       z     vdW  Elec       q    Type
REMARK                         _______ _______ _______ _____ _____    ______ ____
ROOT
ATOM      1  N1  UNL     1      21.008   2.392  27.897  0.00  0.00    -0.293 N 
ATOM      2  C3  UNL     1      20.749   3.494  27.012  0.00  0.00    +0.303 C 
ATOM      3  O1  UNL     1      21.349   4.591  27.190  0.00  0.00    -0.253 OA
ATOM      4  N2  UNL     1      19.817   3.358  25.917  0.00  0.00    -0.286 N 
ATOM      5  C4  UNL     1      19.393   4.545  25.158  0.00  0.00    +0.111 C 
ATOM      6  C5  UNL     1      17.933   4.405  24.709  0.00  0.00    +0.041 C 
ATOM      7  C6  UNL     1      17.630   3.054  24.005  0.00  0.00    +0.080 C 
ATOM      8  C18 UNL     1      18.806   2.060  24.053  0.00  0.00    +0.041 C 
ATOM      9  C19 UNL     1      19.429   2.015  25.451  0.00  0.00    +0.111 C 
ATOM     10  H5  UNL     1      20.331   1.597  27.921  0.00  0.00    +0.151 HD
ENDROOT
BRANCH   7  11
ATOM     11  N3  UNL     1      17.193   3.266  22.617  0.00  0.00    -0.287 N 
ATOM     12  C7  UNL     1      17.893   3.986  21.615  0.00  0.00    +0.216 C 
ATOM     13  O2  UNL     1      19.036   4.483  21.789  0.00  0.00    -0.276 OA
ATOM     14  C8  UNL     1      17.142   4.096  20.350  0.00  0.00    +0.098 C 
ATOM     15  C9  UNL     1      15.774   3.492  20.696  0.00  0.00    +0.041 C 
ATOM     16  C10 UNL     1      15.904   2.836  22.092  0.00  0.00    +0.163 C 
BRANCH  16  17
ATOM     17  C11 UNL     1      15.846   1.334  21.987  0.00  0.00    +0.234 C 
ATOM     18  O3  UNL     1      16.045   0.775  20.873  0.00  0.00    -0.274 OA
ATOM     19  N4  UNL     1      15.507   0.547  23.138  0.00  0.00    -0.311 N 
ATOM     20  H16 UNL     1      15.426   1.036  24.059  0.00  0.00    +0.149 HD
BRANCH  19  21
ATOM     21  C12 UNL     1      15.331  -0.910  23.070  0.00  0.00    +0.073 C 
ATOM     22  C13 UNL     1      14.715  -1.452  24.376  0.00  0.00    +0.022 C 
ATOM     23  C14 UNL     1      15.700  -1.367  25.547  0.00  0.00    +0.002 C 
ATOM     24  C15 UNL     1      16.991  -2.126  25.225  0.00  0.00    +0.000 C 
ATOM     25  C16 UNL     1      17.643  -1.578  23.952  0.00  0.00    +0.002 C 
ATOM     26  C17 UNL     1      16.669  -1.618  22.763  0.00  0.00    +0.022 C 
ENDBRANCH  19  21
ENDBRANCH  16  17
ENDBRANCH   7  11
BRANCH   1  28
ATOM     27  C1  UNL     1      21.546   2.818  30.257  0.00  0.00    +0.033 C 
ATOM     28  C2  UNL     1      22.091   2.414  28.883  0.00  0.00    +0.102 C 
BRANCH  28  29
ATOM     29  C20 UNL     1      22.781   1.064  28.925  0.00  0.00    -0.027 A 
ATOM     30  C21 UNL     1      22.062  -0.130  28.708  0.00  0.00    +0.008 A 
ATOM     31  C22 UNL     1      22.719  -1.364  28.726  0.00  0.00    +0.038 A 
ATOM     32  C23 UNL     1      24.095  -1.424  28.949  0.00  0.00    +0.123 A 
ATOM     33  F1  UNL     1      24.731  -2.621  28.952  0.00  0.00    -0.205 F 
ATOM     34  C24 UNL     1      24.822  -0.247  29.148  0.00  0.00    +0.038 A 
ATOM     35  C25 UNL     1      24.171   0.990  29.138  0.00  0.00    +0.008 A 
ENDBRANCH  28  29
ENDBRANCH   1  28
TORSDOF 5
ENDMDL
MODEL 2
REMARK VINA RESULT:    -7.205      6.711     12.000
REMARK INTER + INTRA:         -10.235
REMARK INTER:                  -9.893
REMARK INTRA:                  -0.342
REMARK UNBOUND:                -0.924
REMARK  Name = /home/qwerty/github/datacon2025hack/step_04_hit_selection/docking/ligands/lig_139.pdb
REMARK  6 active torsions:
REMARK  status: ('A' for Active; 'I' for Inactive)
REMARK    1  A    between atoms: C1_1  and  C2_2
REMARK    2  A    between atoms: C2_2  and  N1_3
REMARK    3  A    between atoms: C2_2  and  C20_27
REMARK    4  A    between atoms: C6_9  and  N3_10
REMARK    5  A    between atoms: C10_15  and  C11_16
REMARK    6  A    between atoms: N4_18  and  C12_19
REMARK                            x       y       z     vdW  Elec       q    Type
REMARK                         _______ _______ _______ _____ _____    ______ ____
ROOT
ATOM      1  N1  UNL     1      21.093   3.113  29.834  0.00  0.00    -0.293 N 
ATOM      2  C3  UNL     1      20.672   2.934  31.197  0.00  0.00    +0.303 C 
ATOM      3  O1  UNL     1      19.981   1.924  31.508  0.00  0.00    -0.253 OA
ATOM      4  N2  UNL     1      21.038   3.891  32.214  0.00  0.00    -0.286 N 
ATOM      5  C4  UNL     1      20.423   3.819  33.549  0.00  0.00    +0.111 C 
ATOM      6  C5  UNL     1      20.235   5.225  34.133  0.00  0.00    +0.041 C 
ATOM      7  C6  UNL     1      21.518   6.098  34.066  0.00  0.00    +0.080 C 
ATOM      8  C18 UNL     1      22.665   5.443  33.275  0.00  0.00    +0.041 C 
ATOM      9  C19 UNL     1      22.150   4.826  31.971  0.00  0.00    +0.111 C 
ATOM     10  H5  UNL     1      21.418   4.058  29.530  0.00  0.00    +0.151 HD
ENDROOT
BRANCH   7  11
ATOM     11  N3  UNL     1      21.973   6.476  35.413  0.00  0.00    -0.287 N 
ATOM     12  C7  UNL     1      23.293   6.360  35.918  0.00  0.00    +0.216 C 
ATOM     13  O2  UNL     1      24.269   5.971  35.226  0.00  0.00    -0.276 OA
ATOM     14  C8  UNL     1      23.404   6.739  37.341  0.00  0.00    +0.098 C 
ATOM     15  C9  UNL     1      21.945   6.967  37.761  0.00  0.00    +0.041 C 
ATOM     16  C10 UNL     1      21.089   6.946  36.472  0.00  0.00    +0.163 C 
BRANCH  16  17
ATOM     17  C11 UNL     1      20.561   8.320  36.155  0.00  0.00    +0.234 C 
ATOM     18  O3  UNL     1      21.360   9.234  35.806  0.00  0.00    -0.274 OA
ATOM     19  N4  UNL     1      19.163   8.605  36.306  0.00  0.00    -0.311 N 
ATOM     20  H16 UNL     1      18.521   7.807  36.520  0.00  0.00    +0.149 HD
BRANCH  19  21
ATOM     21  C12 UNL     1      18.610   9.952  36.115  0.00  0.00    +0.073 C 
ATOM     22  C13 UNL     1      18.191  10.572  37.465  0.00  0.00    +0.022 C 
ATOM     23  C14 UNL     1      16.963   9.872  38.055  0.00  0.00    +0.002 C 
ATOM     24  C15 UNL     1      15.788   9.920  37.073  0.00  0.00    +0.000 C 
ATOM     25  C16 UNL     1      16.167   9.273  35.738  0.00  0.00    +0.002 C 
ATOM     26  C17 UNL     1      17.418   9.931  35.132  0.00  0.00    +0.022 C 
ENDBRANCH  19  21
ENDBRANCH  16  17
ENDBRANCH   7  11
BRANCH   1  28
ATOM     27  C1  UNL     1      20.796   2.707  27.429  0.00  0.00    +0.033 C 
ATOM     28  C2  UNL     1      20.929   2.072  28.817  0.00  0.00    +0.102 C 
BRANCH  28  29
ATOM     29  C20 UNL     1      22.088   1.097  28.883  0.00  0.00    -0.027 A 
ATOM     30  C21 UNL     1      23.405   1.544  29.113  0.00  0.00    +0.008 A 
ATOM     31  C22 UNL     1      24.458   0.628  29.195  0.00  0.00    +0.038 A 
ATOM     32  C23 UNL     1      24.213  -0.740  29.060  0.00  0.00    +0.123 A 
ATOM     33  F1  UNL     1      25.234  -1.626  29.154  0.00  0.00    -0.205 F 
ATOM     34  C24 UNL     1      22.909  -1.196  28.848  0.00  0.00    +0.038 A 
ATOM     35  C25 UNL     1      21.852  -0.286  28.759  0.00  0.00    +0.008 A 
ENDBRANCH  28  29
ENDBRANCH   1  28
TORSDOF 5
ENDMDL
MODEL 3
REMARK VINA RESULT:    -7.166     11.199     13.431
REMARK INTER + INTRA:         -10.184
REMARK INTER:                  -8.537
REMARK INTRA:                  -1.647
REMARK UNBOUND:                -0.924
REMARK  Name = /home/qwerty/github/datacon2025hack/step_04_hit_selection/docking/ligands/lig_139.pdb
REMARK  6 active torsions:
REMARK  status: ('A' for Active; 'I' for Inactive)
REMARK    1  A    between atoms: C1_1  and  C2_2
REMARK    2  A    between atoms: C2_2  and  N1_3
REMARK    3  A    between atoms: C2_2  and  C20_27
REMARK    4  A    between atoms: C6_9  and  N3_10
REMARK    5  A    between atoms: C10_15  and  C11_16
REMARK    6  A    between atoms: N4_18  and  C12_19
REMARK                            x       y       z     vdW  Elec       q    Type
REMARK                         _______ _______ _______ _____ _____    ______ ____
ROOT
ATOM      1  N1  UNL     1      23.204   6.212  34.158  0.00  0.00    -0.293 N 
ATOM      2  C3  UNL     1      22.495   6.902  35.201  0.00  0.00    +0.303 C 
ATOM      3  O1  UNL     1      23.079   7.810  35.857  0.00  0.00    -0.253 OA
ATOM      4  N2  UNL     1      21.121   6.575  35.500  0.00  0.00    -0.286 N 
ATOM      5  C4  UNL     1      20.478   7.124  36.704  0.00  0.00    +0.111 C 
ATOM      6  C5  UNL     1      19.485   6.114  37.294  0.00  0.00    +0.041 C 
ATOM      7  C6  UNL     1      18.494   5.538  36.246  0.00  0.00    +0.080 C 
ATOM      8  C18 UNL     1      18.815   5.961  34.801  0.00  0.00    +0.041 C 
ATOM      9  C19 UNL     1      20.314   5.837  34.513  0.00  0.00    +0.111 C 
ATOM     10  H5  UNL     1      22.826   5.302  33.811  0.00  0.00    +0.151 HD
ENDROOT
BRANCH   7  11
ATOM     11  N3  UNL     1      17.104   5.882  36.586  0.00  0.00    -0.287 N 
ATOM     12  C7  UNL     1      16.223   5.119  37.394  0.00  0.00    +0.216 C 
ATOM     13  O2  UNL     1      16.564   4.062  37.986  0.00  0.00    -0.276 OA
ATOM     14  C8  UNL     1      14.864   5.690  37.467  0.00  0.00    +0.098 C 
ATOM     15  C9  UNL     1      14.914   6.850  36.463  0.00  0.00    +0.041 C 
ATOM     16  C10 UNL     1      16.393   7.034  36.048  0.00  0.00    +0.163 C 
BRANCH  16  17
ATOM     17  C11 UNL     1      16.953   8.315  36.610  0.00  0.00    +0.234 C 
ATOM     18  O3  UNL     1      16.811   8.577  37.836  0.00  0.00    -0.274 OA
ATOM     19  N4  UNL     1      17.594   9.259  35.740  0.00  0.00    -0.311 N 
ATOM     20  H16 UNL     1      17.764   8.975  34.748  0.00  0.00    +0.149 HD
BRANCH  19  21
ATOM     21  C12 UNL     1      18.063  10.569  36.212  0.00  0.00    +0.073 C 
ATOM     22  C13 UNL     1      17.656  11.686  35.229  0.00  0.00    +0.022 C 
ATOM     23  C14 UNL     1      18.433  11.595  33.911  0.00  0.00    +0.002 C 
ATOM     24  C15 UNL     1      19.942  11.651  34.168  0.00  0.00    +0.000 C 
ATOM     25  C16 UNL     1      20.377  10.525  35.111  0.00  0.00    +0.002 C 
ATOM     26  C17 UNL     1      19.592  10.567  36.432  0.00  0.00    +0.022 C 
ENDBRANCH  19  21
ENDBRANCH  16  17
ENDBRANCH   7  11
BRANCH   1  28
ATOM     27  C1  UNL     1      25.283   5.462  33.084  0.00  0.00    +0.033 C 
ATOM     28  C2  UNL     1      24.518   6.649  33.679  0.00  0.00    +0.102 C 
BRANCH  28  29
ATOM     29  C20 UNL     1      24.355   7.775  32.677  0.00  0.00    -0.027 A 
ATOM     30  C21 UNL     1      23.373   7.718  31.668  0.00  0.00    +0.008 A 
ATOM     31  C22 UNL     1      23.221   8.778  30.768  0.00  0.00    +0.038 A 
ATOM     32  C23 UNL     1      24.036   9.906  30.867  0.00  0.00    +0.123 A 
ATOM     33  F1  UNL     1      23.878  10.937  30.002  0.00  0.00    -0.205 F 
ATOM     34  C24 UNL     1      25.003   9.982  31.874  0.00  0.00    +0.038 A 
ATOM     35  C25 UNL     1      25.165   8.924  32.774  0.00  0.00    +0.008 A 
ENDBRANCH  28  29
ENDBRANCH   1  28
TORSDOF 5
ENDMDL
MODEL 4
REMARK VINA RESULT:    -7.098      5.396     10.899
REMARK INTER + INTRA:         -10.096
REMARK INTER:                  -8.739
REMARK INTRA:                  -1.357
REMARK UNBOUND:                -0.924
REMARK  Name = /home/qwerty/github/datacon2025hack/step_04_hit_selection/docking/ligands/lig_139.pdb
REMARK  6 active torsions:
REMARK  status: ('A' for Active; 'I' for Inactive)
REMARK    1  A    between atoms: C1_1  and  C2_2
REMARK    2  A    between atoms: C2_2  and  N1_3
REMARK    3  A    between atoms: C2_2  and  C20_27
REMARK    4  A    between atoms: C6_9  and  N3_10
REMARK    5  A    between atoms: C10_15  and  C11_16
REMARK    6  A    between atoms: N4_18  and  C12_19
REMARK                            x       y       z     vdW  Elec       q    Type
REMARK                         _______ _______ _______ _____ _____    ______ ____
ROOT
ATOM      1  N1  UNL     1      21.513   1.296  29.770  0.00  0.00    -0.293 N 
ATOM      2  C3  UNL     1      22.068   2.013  30.885  0.00  0.00    +0.303 C 
ATOM      3  O1  UNL     1      23.322   2.121  30.995  0.00  0.00    -0.253 OA
ATOM      4  N2  UNL     1      21.208   2.617  31.875  0.00  0.00    -0.286 N 
ATOM      5  C4  UNL     1      21.782   3.152  33.120  0.00  0.00    +0.111 C 
ATOM      6  C5  UNL     1      20.811   2.950  34.291  0.00  0.00    +0.041 C 
ATOM      7  C6  UNL     1      19.368   3.439  33.989  0.00  0.00    +0.080 C 
ATOM      8  C18 UNL     1      19.159   3.866  32.525  0.00  0.00    +0.041 C 
ATOM      9  C19 UNL     1      19.789   2.855  31.563  0.00  0.00    +0.111 C 
ATOM     10  H5  UNL     1      20.519   0.978  29.822  0.00  0.00    +0.151 HD
ENDROOT
BRANCH   7  11
ATOM     11  N3  UNL     1      18.974   4.523  34.903  0.00  0.00    -0.287 N 
ATOM     12  C7  UNL     1      18.234   4.382  36.105  0.00  0.00    +0.216 C 
ATOM     13  O2  UNL     1      17.880   3.269  36.575  0.00  0.00    -0.276 OA
ATOM     14  C8  UNL     1      17.921   5.674  36.746  0.00  0.00    +0.098 C 
ATOM     15  C9  UNL     1      18.410   6.706  35.720  0.00  0.00    +0.041 C 
ATOM     16  C10 UNL     1      19.212   5.936  34.644  0.00  0.00    +0.163 C 
BRANCH  16  17
ATOM     17  C11 UNL     1      20.682   6.254  34.739  0.00  0.00    +0.234 C 
ATOM     18  O3  UNL     1      21.245   6.285  35.869  0.00  0.00    -0.274 OA
ATOM     19  N4  UNL     1      21.423   6.580  33.554  0.00  0.00    -0.311 N 
ATOM     20  H16 UNL     1      20.945   6.467  32.631  0.00  0.00    +0.149 HD
BRANCH  19  21
ATOM     21  C12 UNL     1      22.830   7.002  33.599  0.00  0.00    +0.073 C 
ATOM     22  C13 UNL     1      22.940   8.535  33.727  0.00  0.00    +0.022 C 
ATOM     23  C14 UNL     1      22.500   9.246  32.443  0.00  0.00    +0.002 C 
ATOM     24  C15 UNL     1      23.325   8.762  31.246  0.00  0.00    +0.000 C 
ATOM     25  C16 UNL     1      23.198   7.245  31.074  0.00  0.00    +0.002 C 
ATOM     26  C17 UNL     1      23.601   6.501  32.358  0.00  0.00    +0.022 C 
ENDBRANCH  19  21
ENDBRANCH  16  17
ENDBRANCH   7  11
BRANCH   1  28
ATOM     27  C1  UNL     1      22.304  -0.678  28.538  0.00  0.00    +0.033 C 
ATOM     28  C2  UNL     1      22.328   0.851  28.637  0.00  0.00    +0.102 C 
BRANCH  28  29
ATOM     29  C20 UNL     1      21.841   1.507  27.359  0.00  0.00    -0.027 A 
ATOM     30  C21 UNL     1      22.492   2.637  26.825  0.00  0.00    +0.008 A 
ATOM     31  C22 UNL     1      22.044   3.213  25.633  0.00  0.00    +0.038 A 
ATOM     32  C23 UNL     1      20.952   2.668  24.955  0.00  0.00    +0.123 A 
ATOM     33  F1  UNL     1      20.528   3.222  23.793  0.00  0.00    -0.205 F 
ATOM     34  C24 UNL     1      20.308   1.538  25.467  0.00  0.00    +0.038 A 
ATOM     35  C25 UNL     1      20.747   0.960  26.661  0.00  0.00    +0.008 A 
ENDBRANCH  28  29
ENDBRANCH   1  28
TORSDOF 5
ENDMDL
MODEL 5
REMARK VINA RESULT:    -7.053      5.972     10.889
REMARK INTER + INTRA:         -10.038
REMARK INTER:                  -8.679
REMARK INTRA:                  -1.359
REMARK UNBOUND:                -0.924
REMARK  Name = /home/qwerty/github/datacon2025hack/step_04_hit_selection/docking/ligands/lig_139.pdb
REMARK  6 active torsions:
REMARK  status: ('A' for Active; 'I' for Inactive)
REMARK    1  A    between atoms: C1_1  and  C2_2
REMARK    2  A    between atoms: C2_2  and  N1_3
REMARK    3  A    between atoms: C2_2  and  C20_27
REMARK    4  A    between atoms: C6_9  and  N3_10
REMARK    5  A    between atoms: C10_15  and  C11_16
REMARK    6  A    between atoms: N4_18  and  C12_19
REMARK                            x       y       z     vdW  Elec       q    Type
REMARK                         _______ _______ _______ _____ _____    ______ ____
ROOT
ATOM      1  N1  UNL     1      21.512   0.673  30.224  0.00  0.00    -0.293 N 
ATOM      2  C3  UNL     1      21.561   1.751  31.174  0.00  0.00    +0.303 C 
ATOM      3  O1  UNL     1      22.573   2.506  31.208  0.00  0.00    -0.253 OA
ATOM      4  N2  UNL     1      20.464   1.984  32.083  0.00  0.00    -0.286 N 
ATOM      5  C4  UNL     1      20.615   2.940  33.191  0.00  0.00    +0.111 C 
ATOM      6  C5  UNL     1      19.828   2.468  34.421  0.00  0.00    +0.041 C 
ATOM      7  C6  UNL     1      18.358   2.084  34.104  0.00  0.00    +0.080 C 
ATOM      8  C18 UNL     1      18.034   2.088  32.599  0.00  0.00    +0.041 C 
ATOM      9  C19 UNL     1      19.142   1.399  31.797  0.00  0.00    +0.111 C 
ATOM     10  H5  UNL     1      20.822  -0.097  30.373  0.00  0.00    +0.151 HD
ENDROOT
BRANCH   7  11
ATOM     11  N3  UNL     1      17.416   2.946  34.835  0.00  0.00    -0.287 N 
ATOM     12  C7  UNL     1      16.917   2.726  36.144  0.00  0.00    +0.216 C 
ATOM     13  O2  UNL     1      17.289   1.773  36.878  0.00  0.00    -0.276 OA
ATOM     14  C8  UNL     1      15.914   3.728  36.557  0.00  0.00    +0.098 C 
ATOM     15  C9  UNL     1      15.691   4.552  35.281  0.00  0.00    +0.041 C 
ATOM     16  C10 UNL     1      16.776   4.125  34.264  0.00  0.00    +0.163 C 
BRANCH  16  17
ATOM     17  C11 UNL     1      17.781   5.227  34.056  0.00  0.00    +0.234 C 
ATOM     18  O3  UNL     1      18.062   5.607  32.886  0.00  0.00    -0.274 OA
ATOM     19  N4  UNL     1      18.459   5.801  35.183  0.00  0.00    -0.311 N 
ATOM     20  H16 UNL     1      18.146   5.519  36.140  0.00  0.00    +0.149 HD
BRANCH  19  21
ATOM     21  C12 UNL     1      19.524   6.803  35.033  0.00  0.00    +0.073 C 
ATOM     22  C13 UNL     1      20.599   6.630  36.126  0.00  0.00    +0.022 C 
ATOM     23  C14 UNL     1      20.071   7.024  37.510  0.00  0.00    +0.002 C 
ATOM     24  C15 UNL     1      19.560   8.468  37.504  0.00  0.00    +0.000 C 
ATOM     25  C16 UNL     1      18.462   8.653  36.453  0.00  0.00    +0.002 C 
ATOM     26  C17 UNL     1      18.948   8.236  35.055  0.00  0.00    +0.022 C 
ENDBRANCH  19  21
ENDBRANCH  16  17
ENDBRANCH   7  11
BRANCH   1  28
ATOM     27  C1  UNL     1      22.730  -0.956  28.846  0.00  0.00    +0.033 C 
ATOM     28  C2  UNL     1      22.496   0.527  29.149  0.00  0.00    +0.102 C 
BRANCH  28  29
ATOM     29  C20 UNL     1      22.037   1.289  27.920  0.00  0.00    -0.027 A 
ATOM     30  C21 UNL     1      22.691   2.466  27.505  0.00  0.00    +0.008 A 
ATOM     31  C22 UNL     1      22.271   3.141  26.355  0.00  0.00    +0.038 A 
ATOM     32  C23 UNL     1      21.203   2.649  25.602  0.00  0.00    +0.123 A 
ATOM     33  F1  UNL     1      20.806   3.298  24.480  0.00  0.00    -0.205 F 
ATOM     34  C24 UNL     1      20.558   1.473  25.994  0.00  0.00    +0.038 A 
ATOM     35  C25 UNL     1      20.969   0.796  27.146  0.00  0.00    +0.008 A 
ENDBRANCH  28  29
ENDBRANCH   1  28
TORSDOF 5
ENDMDL
MODEL 6
REMARK VINA RESULT:    -7.032      5.933     11.018
REMARK INTER + INTRA:         -10.011
REMARK INTER:                  -8.368
REMARK INTRA:                  -1.643
REMARK UNBOUND:                -0.924
REMARK  Name = /home/qwerty/github/datacon2025hack/step_04_hit_selection/docking/ligands/lig_139.pdb
REMARK  6 active torsions:
REMARK  status: ('A' for Active; 'I' for Inactive)
REMARK    1  A    between atoms: C1_1  and  C2_2
REMARK    2  A    between atoms: C2_2  and  N1_3
REMARK    3  A    between atoms: C2_2  and  C20_27
REMARK    4  A    between atoms: C6_9  and  N3_10
REMARK    5  A    between atoms: C10_15  and  C11_16
REMARK    6  A    between atoms: N4_18  and  C12_19
REMARK                            x       y       z     vdW  Elec       q    Type
REMARK                         _______ _______ _______ _____ _____    ______ ____
ROOT
ATOM      1  N1  UNL     1       9.688   3.453  23.250  0.00  0.00    -0.293 N 
ATOM      2  C3  UNL     1      10.527   2.382  22.787  0.00  0.00    +0.303 C 
ATOM      3  O1  UNL     1      10.188   1.722  21.765  0.00  0.00    -0.253 OA
ATOM      4  N2  UNL     1      11.755   2.057  23.474  0.00  0.00    -0.286 N 
ATOM      5  C4  UNL     1      12.488   0.828  23.130  0.00  0.00    +0.111 C 
ATOM      6  C5  UNL     1      13.159   0.235  24.376  0.00  0.00    +0.041 C 
ATOM      7  C6  UNL     1      13.989   1.270  25.184  0.00  0.00    +0.080 C 
ATOM      8  C18 UNL     1      13.832   2.714  24.673  0.00  0.00    +0.041 C 
ATOM      9  C19 UNL     1      12.362   3.039  24.388  0.00  0.00    +0.111 C 
ATOM     10  H5  UNL     1       9.819   3.808  24.224  0.00  0.00    +0.151 HD
ENDROOT
BRANCH   7  11
ATOM     11  N3  UNL     1      15.410   0.892  25.228  0.00  0.00    -0.287 N 
ATOM     12  C7  UNL     1      15.990  -0.102  26.057  0.00  0.00    +0.216 C 
ATOM     13  O2  UNL     1      15.321  -0.842  26.825  0.00  0.00    -0.276 OA
ATOM     14  C8  UNL     1      17.458  -0.176  25.931  0.00  0.00    +0.098 C 
ATOM     15  C9  UNL     1      17.796   1.016  25.024  0.00  0.00    +0.041 C 
ATOM     16  C10 UNL     1      16.458   1.567  24.475  0.00  0.00    +0.163 C 
BRANCH  16  17
ATOM     17  C11 UNL     1      16.324   1.282  23.002  0.00  0.00    +0.234 C 
ATOM     18  O3  UNL     1      16.575   0.126  22.562  0.00  0.00    -0.274 OA
ATOM     19  N4  UNL     1      15.971   2.338  22.096  0.00  0.00    -0.311 N 
ATOM     20  H16 UNL     1      15.694   3.260  22.504  0.00  0.00    +0.149 HD
BRANCH  19  21
ATOM     21  C12 UNL     1      15.930   2.143  20.641  0.00  0.00    +0.073 C 
ATOM     22  C13 UNL     1      16.420   3.407  19.903  0.00  0.00    +0.022 C 
ATOM     23  C14 UNL     1      15.423   4.564  20.035  0.00  0.00    +0.002 C 
ATOM     24  C15 UNL     1      14.044   4.154  19.509  0.00  0.00    +0.000 C 
ATOM     25  C16 UNL     1      13.519   2.924  20.255  0.00  0.00    +0.002 C 
ATOM     26  C17 UNL     1      14.512   1.752  20.171  0.00  0.00    +0.022 C 
ENDBRANCH  19  21
ENDBRANCH  16  17
ENDBRANCH   7  11
BRANCH   1  28
ATOM     27  C1  UNL     1       7.304   4.039  23.358  0.00  0.00    +0.033 C 
ATOM     28  C2  UNL     1       8.552   3.954  22.473  0.00  0.00    +0.102 C 
BRANCH  28  29
ATOM     29  C20 UNL     1       8.898   5.295  21.856  0.00  0.00    -0.027 A 
ATOM     30  C21 UNL     1       9.860   5.400  20.830  0.00  0.00    +0.008 A 
ATOM     31  C22 UNL     1      10.148   6.641  20.256  0.00  0.00    +0.038 A 
ATOM     32  C23 UNL     1       9.479   7.788  20.686  0.00  0.00    +0.123 A 
ATOM     33  F1  UNL     1       9.751   8.988  20.117  0.00  0.00    -0.205 F 
ATOM     34  C24 UNL     1       8.511   7.694  21.691  0.00  0.00    +0.038 A 
ATOM     35  C25 UNL     1       8.222   6.457  22.274  0.00  0.00    +0.008 A 
ENDBRANCH  28  29
ENDBRANCH   1  28
TORSDOF 5
ENDMDL
MODEL 7
REMARK VINA RESULT:    -7.027      3.054      4.336
REMARK INTER + INTRA:         -10.004
REMARK INTER:                  -8.645
REMARK INTRA:                  -1.359
REMARK UNBOUND:                -0.924
REMARK  Name = /home/qwerty/github/datacon2025hack/step_04_hit_selection/docking/ligands/lig_139.pdb
REMARK  6 active torsions:
REMARK  status: ('A' for Active; 'I' for Inactive)
REMARK    1  A    between atoms: C1_1  and  C2_2
REMARK    2  A    between atoms: C2_2  and  N1_3
REMARK    3  A    between atoms: C2_2  and  C20_27
REMARK    4  A    between atoms: C6_9  and  N3_10
REMARK    5  A    between atoms: C10_15  and  C11_16
REMARK    6  A    between atoms: N4_18  and  C12_19
REMARK                            x       y       z     vdW  Elec       q    Type
REMARK                         _______ _______ _______ _____ _____    ______ ____
ROOT
ATOM      1  N1  UNL     1      22.492   1.751  27.838  0.00  0.00    -0.293 N 
ATOM      2  C3  UNL     1      21.425   1.596  26.887  0.00  0.00    +0.303 C 
ATOM      3  O1  UNL     1      20.800   0.500  26.825  0.00  0.00    -0.253 OA
ATOM      4  N2  UNL     1      21.056   2.681  26.009  0.00  0.00    -0.286 N 
ATOM      5  C4  UNL     1      20.122   2.444  24.898  0.00  0.00    +0.111 C 
ATOM      6  C5  UNL     1      20.489   3.316  23.690  0.00  0.00    +0.041 C 
ATOM      7  C6  UNL     1      20.690   4.814  24.047  0.00  0.00    +0.080 C 
ATOM      8  C18 UNL     1      20.653   5.093  25.561  0.00  0.00    +0.041 C 
ATOM      9  C19 UNL     1      21.476   4.056  26.331  0.00  0.00    +0.111 C 
ATOM     10  H5  UNL     1      23.171   2.534  27.708  0.00  0.00    +0.151 HD
ENDROOT
BRANCH   7  11
ATOM     11  N3  UNL     1      19.716   5.662  23.344  0.00  0.00    -0.287 N 
ATOM     12  C7  UNL     1      19.902   6.290  22.085  0.00  0.00    +0.216 C 
ATOM     13  O2  UNL     1      20.929   6.130  21.375  0.00  0.00    -0.276 OA
ATOM     14  C8  UNL     1      18.769   7.151  21.695  0.00  0.00    +0.098 C 
ATOM     15  C9  UNL     1      17.873   7.143  22.942  0.00  0.00    +0.041 C 
ATOM     16  C10 UNL     1      18.430   6.063  23.899  0.00  0.00    +0.163 C 
BRANCH  16  17
ATOM     17  C11 UNL     1      17.496   4.884  23.981  0.00  0.00    +0.234 C 
ATOM     18  O3  UNL     1      17.178   4.414  25.108  0.00  0.00    -0.274 OA
ATOM     19  N4  UNL     1      17.017   4.264  22.779  0.00  0.00    -0.311 N 
ATOM     20  H16 UNL     1      17.237   4.727  21.868  0.00  0.00    +0.149 HD
BRANCH  19  21
ATOM     21  C12 UNL     1      16.191   3.049  22.797  0.00  0.00    +0.073 C 
ATOM     22  C13 UNL     1      16.707   2.018  21.772  0.00  0.00    +0.022 C 
ATOM     23  C14 UNL     1      16.457   2.476  20.331  0.00  0.00    +0.002 C 
ATOM     24  C15 UNL     1      14.967   2.742  20.098  0.00  0.00    +0.000 C 
ATOM     25  C16 UNL     1      14.441   3.794  21.080  0.00  0.00    +0.002 C 
ATOM     26  C17 UNL     1      14.706   3.381  22.537  0.00  0.00    +0.022 C 
ENDBRANCH  19  21
ENDBRANCH  16  17
ENDBRANCH   7  11
BRANCH   1  28
ATOM     27  C1  UNL     1      24.266   0.696  29.172  0.00  0.00    +0.033 C 
ATOM     28  C2  UNL     1      22.762   0.763  28.885  0.00  0.00    +0.102 C 
BRANCH  28  29
ATOM     29  C20 UNL     1      21.964   1.097  30.131  0.00  0.00    -0.027 A 
ATOM     30  C21 UNL     1      20.884   0.290  30.544  0.00  0.00    +0.008 A 
ATOM     31  C22 UNL     1      20.176   0.600  31.709  0.00  0.00    +0.038 A 
ATOM     32  C23 UNL     1      20.537   1.707  32.479  0.00  0.00    +0.123 A 
ATOM     33  F1  UNL     1      19.857   1.996  33.614  0.00  0.00    -0.205 F 
ATOM     34  C24 UNL     1      21.617   2.504  32.088  0.00  0.00    +0.038 A 
ATOM     35  C25 UNL     1      22.326   2.204  30.921  0.00  0.00    +0.008 A 
ENDBRANCH  28  29
ENDBRANCH   1  28
TORSDOF 5
ENDMDL
MODEL 8
REMARK VINA RESULT:    -6.974      4.791     10.400
REMARK INTER + INTRA:          -9.935
REMARK INTER:                  -8.840
REMARK INTRA:                  -1.095
REMARK UNBOUND:                -0.924
REMARK  Name = /home/qwerty/github/datacon2025hack/step_04_hit_selection/docking/ligands/lig_139.pdb
REMARK  6 active torsions:
REMARK  status: ('A' for Active; 'I' for Inactive)
REMARK    1  A    between atoms: C1_1  and  C2_2
REMARK    2  A    between atoms: C2_2  and  N1_3
REMARK    3  A    between atoms: C2_2  and  C20_27
REMARK    4  A    between atoms: C6_9  and  N3_10
REMARK    5  A    between atoms: C10_15  and  C11_16
REMARK    6  A    between atoms: N4_18  and  C12_19
REMARK                            x       y       z     vdW  Elec       q    Type
REMARK                         _______ _______ _______ _____ _____    ______ ____
ROOT
ATOM      1  N1  UNL     1      20.014   1.248  27.376  0.00  0.00    -0.293 N 
ATOM      2  C3  UNL     1      20.704   1.044  28.620  0.00  0.00    +0.303 C 
ATOM      3  O1  UNL     1      21.860   0.537  28.616  0.00  0.00    -0.253 OA
ATOM      4  N2  UNL     1      20.092   1.421  29.873  0.00  0.00    -0.286 N 
ATOM      5  C4  UNL     1      20.706   1.008  31.145  0.00  0.00    +0.111 C 
ATOM      6  C5  UNL     1      19.625   0.724  32.197  0.00  0.00    +0.041 C 
ATOM      7  C6  UNL     1      18.579   1.864  32.332  0.00  0.00    +0.080 C 
ATOM      8  C18 UNL     1      18.733   2.966  31.267  0.00  0.00    +0.041 C 
ATOM      9  C19 UNL     1      18.958   2.361  29.879  0.00  0.00    +0.111 C 
ATOM     10  H5  UNL     1      18.981   1.405  27.394  0.00  0.00    +0.151 HD
ENDROOT
BRANCH   7  11
ATOM     11  N3  UNL     1      18.600   2.446  33.682  0.00  0.00    -0.287 N 
ATOM     12  C7  UNL     1      18.093   1.848  34.864  0.00  0.00    +0.216 C 
ATOM     13  O2  UNL     1      17.614   0.684  34.902  0.00  0.00    -0.276 OA
ATOM     14  C8  UNL     1      18.182   2.730  36.044  0.00  0.00    +0.098 C 
ATOM     15  C9  UNL     1      18.667   4.062  35.453  0.00  0.00    +0.041 C 
ATOM     16  C10 UNL     1      19.071   3.792  33.984  0.00  0.00    +0.163 C 
BRANCH  16  17
ATOM     17  C11 UNL     1      20.564   3.884  33.811  0.00  0.00    +0.234 C 
ATOM     18  O3  UNL     1      21.295   2.907  34.135  0.00  0.00    -0.274 OA
ATOM     19  N4  UNL     1      21.157   5.102  33.337  0.00  0.00    -0.311 N 
ATOM     20  H16 UNL     1      20.518   5.861  33.005  0.00  0.00    +0.149 HD
BRANCH  19  21
ATOM     21  C12 UNL     1      22.612   5.286  33.250  0.00  0.00    +0.073 C 
ATOM     22  C13 UNL     1      23.167   5.899  34.553  0.00  0.00    +0.022 C 
ATOM     23  C14 UNL     1      22.733   7.359  34.725  0.00  0.00    +0.002 C 
ATOM     24  C15 UNL     1      23.176   8.200  33.523  0.00  0.00    +0.000 C 
ATOM     25  C16 UNL     1      22.603   7.634  32.220  0.00  0.00    +0.002 C 
ATOM     26  C17 UNL     1      22.992   6.158  32.033  0.00  0.00    +0.022 C 
ENDBRANCH  19  21
ENDBRANCH  16  17
ENDBRANCH   7  11
BRANCH   1  28
ATOM     27  C1  UNL     1      19.702   0.439  25.076  0.00  0.00    +0.033 C 
ATOM     28  C2  UNL     1      20.670   1.081  26.077  0.00  0.00    +0.102 C 
BRANCH  28  29
ATOM     29  C20 UNL     1      21.188   2.417  25.582  0.00  0.00    -0.027 A 
ATOM     30  C21 UNL     1      22.420   2.934  26.033  0.00  0.00    +0.008 A 
ATOM     31  C22 UNL     1      22.894   4.156  25.547  0.00  0.00    +0.038 A 
ATOM     32  C23 UNL     1      22.156   4.872  24.604  0.00  0.00    +0.123 A 
ATOM     33  F1  UNL     1      22.625   6.051  24.126  0.00  0.00    -0.205 F 
ATOM     34  C24 UNL     1      20.941   4.363  24.138  0.00  0.00    +0.038 A 
ATOM     35  C25 UNL     1      20.457   3.144  24.623  0.00  0.00    +0.008 A 
ENDBRANCH  28  29
ENDBRANCH   1  28
TORSDOF 5
ENDMDL
MODEL 9
REMARK VINA RESULT:    -6.928      7.104     11.512
REMARK INTER + INTRA:          -9.876
REMARK INTER:                  -8.349
REMARK INTRA:                  -1.528
REMARK UNBOUND:                -0.924
REMARK  Name = /home/qwerty/github/datacon2025hack/step_04_hit_selection/docking/ligands/lig_139.pdb
REMARK  6 active torsions:
REMARK  status: ('A' for Active; 'I' for Inactive)
REMARK    1  A    between atoms: C1_1  and  C2_2
REMARK    2  A    between atoms: C2_2  and  N1_3
REMARK    3  A    between atoms: C2_2  and  C20_27
REMARK    4  A    between atoms: C6_9  and  N3_10
REMARK    5  A    between atoms: C10_15  and  C11_16
REMARK    6  A    between atoms: N4_18  and  C12_19
REMARK                            x       y       z     vdW  Elec       q    Type
REMARK                         _______ _______ _______ _____ _____    ______ ____
ROOT
ATOM      1  N1  UNL     1      19.967   2.602  32.281  0.00  0.00    -0.293 N 
ATOM      2  C3  UNL     1      20.487   3.389  33.365  0.00  0.00    +0.303 C 
ATOM      3  O1  UNL     1      21.512   2.992  33.988  0.00  0.00    -0.253 OA
ATOM      4  N2  UNL     1      19.856   4.631  33.745  0.00  0.00    -0.286 N 
ATOM      5  C4  UNL     1      20.257   5.312  34.986  0.00  0.00    +0.111 C 
ATOM      6  C5  UNL     1      19.052   6.009  35.631  0.00  0.00    +0.041 C 
ATOM      7  C6  UNL     1      18.252   6.901  34.643  0.00  0.00    +0.080 C 
ATOM      8  C18 UNL     1      18.721   6.770  33.182  0.00  0.00    +0.041 C 
ATOM      9  C19 UNL     1      18.942   5.303  32.805  0.00  0.00    +0.111 C 
ATOM     10  H5  UNL     1      18.991   2.780  31.954  0.00  0.00    +0.151 HD
ENDROOT
BRANCH   7  11
ATOM     11  N3  UNL     1      18.271   8.310  35.065  0.00  0.00    -0.287 N 
ATOM     12  C7  UNL     1      17.414   8.912  36.022  0.00  0.00    +0.216 C 
ATOM     13  O2  UNL     1      16.558   8.273  36.687  0.00  0.00    -0.276 OA
ATOM     14  C8  UNL     1      17.626  10.367  36.154  0.00  0.00    +0.098 C 
ATOM     15  C9  UNL     1      18.631  10.681  35.036  0.00  0.00    +0.041 C 
ATOM     16  C10 UNL     1      19.132   9.327  34.477  0.00  0.00    +0.163 C 
BRANCH  16  17
ATOM     17  C11 UNL     1      20.571   9.090  34.854  0.00  0.00    +0.234 C 
ATOM     18  O3  UNL     1      20.945   9.269  36.046  0.00  0.00    -0.274 OA
ATOM     19  N4  UNL     1      21.524   8.720  33.846  0.00  0.00    -0.311 N 
ATOM     20  H16 UNL     1      21.165   8.504  32.888  0.00  0.00    +0.149 HD
BRANCH  19  21
ATOM     21  C12 UNL     1      22.958   8.580  34.135  0.00  0.00    +0.073 C 
ATOM     22  C13 UNL     1      23.807   9.000  32.917  0.00  0.00    +0.022 C 
ATOM     23  C14 UNL     1      23.679   7.999  31.763  0.00  0.00    +0.002 C 
ATOM     24  C15 UNL     1      24.080   6.593  32.220  0.00  0.00    +0.000 C 
ATOM     25  C16 UNL     1      23.221   6.138  33.403  0.00  0.00    +0.002 C 
ATOM     26  C17 UNL     1      23.300   7.138  34.569  0.00  0.00    +0.022 C 
ENDBRANCH  19  21
ENDBRANCH  16  17
ENDBRANCH   7  11
BRANCH   1  28
ATOM     27  C1  UNL     1      19.762   0.236  31.651  0.00  0.00    +0.033 C 
ATOM     28  C2  UNL     1      20.688   1.454  31.725  0.00  0.00    +0.102 C 
BRANCH  28  29
ATOM     29  C20 UNL     1      21.262   1.811  30.367  0.00  0.00    -0.027 A 
ATOM     30  C21 UNL     1      20.871   2.987  29.696  0.00  0.00    +0.008 A 
ATOM     31  C22 UNL     1      21.429   3.312  28.456  0.00  0.00    +0.038 A 
ATOM     32  C23 UNL     1      22.386   2.479  27.876  0.00  0.00    +0.123 A 
ATOM     33  F1  UNL     1      22.935   2.804  26.680  0.00  0.00    -0.205 F 
ATOM     34  C24 UNL     1      22.794   1.318  28.540  0.00  0.00    +0.038 A 
ATOM     35  C25 UNL     1      22.236   0.983  29.777  0.00  0.00    +0.008 A 
ENDBRANCH  28  29
ENDBRANCH   1  28
TORSDOF 5
ENDMDL
