REMARK  Name = /home/qwerty/github/datacon2025hack/step_04_hit_selection/docking/ligands/lig_691.pdb
REMARK  6 active torsions:
REMARK  status: ('A' for Active; 'I' for Inactive)
REMARK    1  A    between atoms: C1_1  and  C2_2
REMARK    2  A    between atoms: C6_6  and  C7_7
REMARK    3  A    between atoms: C8_9  and  C9_11
REMARK    4  A    between atoms: C9_11  and  O2_12
REMARK    5  A    between atoms: O2_12  and  C10_13
REMARK    6  A    between atoms: C13_16  and  C14_17
REMARK                            x       y       z     vdW  Elec       q    Type
REMARK                         _______ _______ _______ _____ _____    ______ ____
ROOT
ATOM      1  C10 UNL     1       0.000   0.683  -0.958  0.00  0.00    +0.121 A 
ATOM      2  C11 UNL     1       0.567  -0.508  -0.470  0.00  0.00    +0.046 A 
ATOM      3  C12 UNL     1       1.881  -0.519   0.009  0.00  0.00    +0.012 A 
ATOM      4  C13 UNL     1       2.652   0.657   0.011  0.00  0.00    -0.018 A 
ATOM      5  C22 UNL     1       2.079   1.844  -0.479  0.00  0.00    +0.012 A 
ATOM      6  C23 UNL     1       0.766   1.853  -0.958  0.00  0.00    +0.046 A 
ENDROOT
BRANCH   4   7
ATOM      7  C14 UNL     1       4.047   0.645   0.521  0.00  0.00    -0.016 A 
ATOM      8  C15 UNL     1       4.538   1.724   1.298  0.00  0.00    +0.009 A 
ATOM      9  C16 UNL     1       5.856   1.716   1.783  0.00  0.00    +0.006 A 
ATOM     10  C17 UNL     1       6.669   0.624   1.484  0.00  0.00    -0.025 A 
ATOM     11  C18 UNL     1       6.204  -0.419   0.738  0.00  0.00    +0.031 A 
ATOM     12  C19 UNL     1       4.902  -0.445   0.239  0.00  0.00    +0.031 A 
ATOM     13  N2  UNL     1       7.192  -1.410   0.556  0.00  0.00    -0.343 N 
ATOM     14  C20 UNL     1       8.409  -0.987   1.244  0.00  0.00    +0.106 C 
ATOM     15  C21 UNL     1       8.085   0.388   1.881  0.00  0.00    +0.055 C 
ATOM     16  H22 UNL     1       7.073  -2.299   0.022  0.00  0.00    +0.146 HD
ENDBRANCH   4   7
BRANCH   1  17
ATOM     17  O2  UNL     1      -1.312   0.746  -1.448  0.00  0.00    -0.483 OA
BRANCH  17  18
ATOM     18  C9  UNL     1      -2.207  -0.361  -1.498  0.00  0.00    +0.324 C 
BRANCH  18  27
ATOM     19  C1  UNL     1      -4.371   2.336  -0.465  0.00  0.00    +0.028 C 
ATOM     20  C2  UNL     1      -5.079   0.988  -0.252  0.00  0.00    +0.073 C 
ATOM     21  C3  UNL     1      -4.785   0.424   1.149  0.00  0.00    +0.022 C 
ATOM     22  C4  UNL     1      -5.502  -0.920   1.353  0.00  0.00    +0.004 C 
ATOM     23  C5  UNL     1      -5.161  -1.923   0.239  0.00  0.00    +0.022 C 
ATOM     24  C6  UNL     1      -5.438  -1.315  -1.148  0.00  0.00    +0.073 C 
ATOM     25  C7  UNL     1      -5.086  -2.309  -2.266  0.00  0.00    +0.028 C 
ATOM     26  N1  UNL     1      -4.728  -0.026  -1.266  0.00  0.00    -0.293 N 
ATOM     27  C8  UNL     1      -3.523   0.090  -2.047  0.00  0.00    +0.254 C 
ATOM     28  O1  UNL     1      -3.581   0.572  -3.209  0.00  0.00    -0.272 OA
ENDBRANCH  18  27
ENDBRANCH  17  18
ENDBRANCH   1  17
TORSDOF 4
