MODEL 1
REMARK VINA RESULT:    -6.940      0.000      0.000
REMARK INTER + INTRA:         -10.692
REMARK INTER:                  -9.375
REMARK INTRA:                  -1.318
REMARK UNBOUND:                -1.318
REMARK  Name = /home/qwerty/github/datacon2025hack/step_04_hit_selection/docking/ligands/lig_772.pdb
REMARK  7 active torsions:
REMARK  status: ('A' for Active; 'I' for Inactive)
REMARK    1  A    between atoms: C1_1  and  C2_2
REMARK    2  A    between atoms: C2_2  and  C3_3
REMARK    3  A    between atoms: C2_2  and  N4_22
REMARK    4  A    between atoms: C3_3  and  C4_4
REMARK    5  A    between atoms: N1_6  and  C5_7
REMARK    6  A    between atoms: C9_11  and  C10_12
REMARK    7  A    between atoms: N2_14  and  C11_15
REMARK                            x       y       z     vdW  Elec       q    Type
REMARK                         _______ _______ _______ _____ _____    ______ ____
ROOT
ATOM      1  C4  UNL     1      12.805   0.585  24.695  0.00  0.00    +0.219 C 
ATOM      2  O1  UNL     1      12.840   0.258  25.912  0.00  0.00    -0.275 OA
ATOM      3  N1  UNL     1      13.883   0.234  23.811  0.00  0.00    -0.285 N 
ATOM      4  H7  UNL     1      13.728   0.358  22.784  0.00  0.00    +0.155 HD
ENDROOT
BRANCH   3   5
ATOM      5  C5  UNL     1      15.083  -0.435  24.232  0.00  0.00    +0.034 A 
ATOM      6  C6  UNL     1      15.265  -1.812  24.022  0.00  0.00    +0.023 A 
ATOM      7  C7  UNL     1      16.429  -2.442  24.463  0.00  0.00    +0.003 A 
ATOM      8  C8  UNL     1      17.419  -1.710  25.124  0.00  0.00    +0.013 A 
ATOM      9  C9  UNL     1      17.251  -0.334  25.356  0.00  0.00    +0.039 A 
ATOM     10  C16 UNL     1      16.068   0.291  24.919  0.00  0.00    +0.036 A 
BRANCH   9  11
ATOM     11  C10 UNL     1      18.296   0.435  26.075  0.00  0.00    +0.249 C 
ATOM     12  O2  UNL     1      17.966   1.189  27.031  0.00  0.00    -0.270 OA
ATOM     13  N2  UNL     1      19.684   0.291  25.729  0.00  0.00    -0.266 N 
ATOM     14  H11 UNL     1      20.004  -0.625  25.344  0.00  0.00    +0.157 HD
BRANCH  13  15
ATOM     15  C11 UNL     1      20.692   1.270  26.031  0.00  0.00    +0.125 A 
ATOM     16  C12 UNL     1      21.357   1.285  27.271  0.00  0.00    +0.044 A 
ATOM     17  C13 UNL     1      22.310   2.273  27.526  0.00  0.00    +0.005 A 
ATOM     18  C14 UNL     1      22.584   3.243  26.560  0.00  0.00    +0.020 A 
ATOM     19  C15 UNL     1      21.890   3.213  25.349  0.00  0.00    +0.113 A 
ATOM     20  N3  UNL     1      20.967   2.242  25.116  0.00  0.00    -0.240 NA
ENDBRANCH  13  15
ENDBRANCH   9  11
ENDBRANCH   3   5
BRANCH   1  21
ATOM     21  C3  UNL     1      11.593   1.295  24.160  0.00  0.00    +0.121 C 
BRANCH  21  23
ATOM     22  C1  UNL     1       9.867   0.294  22.552  0.00  0.00    +0.031 C 
ATOM     23  C2  UNL     1      11.263   0.917  22.701  0.00  0.00    +0.094 C 
BRANCH  23  24
ATOM     24  N4  UNL     1      11.446   2.068  21.802  0.00  0.00    -0.327 N 
ATOM     25  C17 UNL     1      10.583   3.092  21.564  0.00  0.00    +0.108 A 
ATOM     26  C18 UNL     1      11.171   4.035  20.728  0.00  0.00    +0.068 A 
ATOM     27 CL1  UNL     1      10.449   5.533  20.173  0.00  0.00    -0.081 Cl
ATOM     28  C19 UNL     1      12.439   3.569  20.462  0.00  0.00    +0.037 A 
ATOM     29  C20 UNL     1      13.487   4.097  19.715  0.00  0.00    +0.014 A 
ATOM     30  C21 UNL     1      14.684   3.362  19.675  0.00  0.00    +0.020 A 
ATOM     31  C22 UNL     1      14.785   2.142  20.384  0.00  0.00    +0.113 A 
ATOM     32  N5  UNL     1      13.725   1.669  21.106  0.00  0.00    -0.237 NA
ATOM     33  C23 UNL     1      12.571   2.385  21.130  0.00  0.00    +0.142 A 
ENDBRANCH  23  24
ENDBRANCH  21  23
ENDBRANCH   1  21
TORSDOF 6
ENDMDL
MODEL 2
REMARK VINA RESULT:    -6.770      6.631     11.063
REMARK INTER + INTRA:         -10.463
REMARK INTER:                  -8.905
REMARK INTRA:                  -1.558
REMARK UNBOUND:                -1.318
REMARK  Name = /home/qwerty/github/datacon2025hack/step_04_hit_selection/docking/ligands/lig_772.pdb
REMARK  7 active torsions:
REMARK  status: ('A' for Active; 'I' for Inactive)
REMARK    1  A    between atoms: C1_1  and  C2_2
REMARK    2  A    between atoms: C2_2  and  C3_3
REMARK    3  A    between atoms: C2_2  and  N4_22
REMARK    4  A    between atoms: C3_3  and  C4_4
REMARK    5  A    between atoms: N1_6  and  C5_7
REMARK    6  A    between atoms: C9_11  and  C10_12
REMARK    7  A    between atoms: N2_14  and  C11_15
REMARK                            x       y       z     vdW  Elec       q    Type
REMARK                         _______ _______ _______ _____ _____    ______ ____
ROOT
ATOM      1  C4  UNL     1      12.321   7.289  21.417  0.00  0.00    +0.219 C 
ATOM      2  O1  UNL     1      12.862   8.224  22.067  0.00  0.00    -0.275 OA
ATOM      3  N1  UNL     1      10.970   7.413  20.942  0.00  0.00    -0.285 N 
ATOM      4  H7  UNL     1      10.630   6.702  20.255  0.00  0.00    +0.155 HD
ENDROOT
BRANCH   3   5
ATOM      5  C5  UNL     1      10.123   8.542  21.212  0.00  0.00    +0.034 A 
ATOM      6  C6  UNL     1       9.984   9.590  20.287  0.00  0.00    +0.023 A 
ATOM      7  C7  UNL     1       9.175  10.688  20.585  0.00  0.00    +0.003 A 
ATOM      8  C8  UNL     1       8.503  10.756  21.807  0.00  0.00    +0.013 A 
ATOM      9  C9  UNL     1       8.639   9.724  22.753  0.00  0.00    +0.039 A 
ATOM     10  C16 UNL     1       9.467   8.627  22.449  0.00  0.00    +0.036 A 
BRANCH   9  11
ATOM     11  C10 UNL     1       7.938   9.810  24.058  0.00  0.00    +0.249 C 
ATOM     12  O2  UNL     1       6.734  10.186  24.092  0.00  0.00    -0.270 OA
ATOM     13  N2  UNL     1       8.597   9.419  25.274  0.00  0.00    -0.266 N 
ATOM     14  H11 UNL     1       9.331   8.679  25.222  0.00  0.00    +0.157 HD
BRANCH  13  15
ATOM     15  C11 UNL     1       8.197   9.862  26.581  0.00  0.00    +0.125 A 
ATOM     16  C12 UNL     1       8.575  11.122  27.080  0.00  0.00    +0.044 A 
ATOM     17  C13 UNL     1       8.184  11.496  28.367  0.00  0.00    +0.005 A 
ATOM     18  C14 UNL     1       7.437  10.615  29.151  0.00  0.00    +0.020 A 
ATOM     19  C15 UNL     1       7.097   9.364  28.635  0.00  0.00    +0.113 A 
ATOM     20  N3  UNL     1       7.485   9.016  27.378  0.00  0.00    -0.240 NA
ENDBRANCH  13  15
ENDBRANCH   9  11
ENDBRANCH   3   5
BRANCH   1  21
ATOM     21  C3  UNL     1      13.124   6.062  21.089  0.00  0.00    +0.121 C 
BRANCH  21  23
ATOM     22  C1  UNL     1      13.167   4.386  19.151  0.00  0.00    +0.031 C 
ATOM     23  C2  UNL     1      12.333   5.016  20.276  0.00  0.00    +0.094 C 
BRANCH  23  24
ATOM     24  N4  UNL     1      11.744   3.995  21.157  0.00  0.00    -0.327 N 
ATOM     25  C17 UNL     1      12.361   2.929  21.734  0.00  0.00    +0.108 A 
ATOM     26  C18 UNL     1      11.482   2.261  22.580  0.00  0.00    +0.068 A 
ATOM     27 CL1  UNL     1      11.840   0.849  23.555  0.00  0.00    -0.081 Cl
ATOM     28  C19 UNL     1      10.296   2.958  22.521  0.00  0.00    +0.037 A 
ATOM     29  C20 UNL     1       9.078   2.778  23.169  0.00  0.00    +0.014 A 
ATOM     30  C21 UNL     1       8.060   3.709  22.898  0.00  0.00    +0.020 A 
ATOM     31  C22 UNL     1       8.304   4.777  22.003  0.00  0.00    +0.113 A 
ATOM     32  N5  UNL     1       9.520   4.910  21.395  0.00  0.00    -0.237 NA
ATOM     33  C23 UNL     1      10.493   3.999  21.659  0.00  0.00    +0.142 A 
ENDBRANCH  23  24
ENDBRANCH  21  23
ENDBRANCH   1  21
TORSDOF 6
ENDMDL
MODEL 3
REMARK VINA RESULT:    -6.721      3.169      5.392
REMARK INTER + INTRA:         -10.396
REMARK INTER:                  -8.838
REMARK INTRA:                  -1.558
REMARK UNBOUND:                -1.318
REMARK  Name = /home/qwerty/github/datacon2025hack/step_04_hit_selection/docking/ligands/lig_772.pdb
REMARK  7 active torsions:
REMARK  status: ('A' for Active; 'I' for Inactive)
REMARK    1  A    between atoms: C1_1  and  C2_2
REMARK    2  A    between atoms: C2_2  and  C3_3
REMARK    3  A    between atoms: C2_2  and  N4_22
REMARK    4  A    between atoms: C3_3  and  C4_4
REMARK    5  A    between atoms: N1_6  and  C5_7
REMARK    6  A    between atoms: C9_11  and  C10_12
REMARK    7  A    between atoms: N2_14  and  C11_15
REMARK                            x       y       z     vdW  Elec       q    Type
REMARK                         _______ _______ _______ _____ _____    ______ ____
ROOT
ATOM      1  C4  UNL     1      16.523   4.099  21.924  0.00  0.00    +0.219 C 
ATOM      2  O1  UNL     1      16.296   4.710  23.003  0.00  0.00    -0.275 OA
ATOM      3  N1  UNL     1      17.825   3.556  21.650  0.00  0.00    -0.285 N 
ATOM      4  H7  UNL     1      17.918   2.901  20.839  0.00  0.00    +0.155 HD
ENDROOT
BRANCH   3   5
ATOM      5  C5  UNL     1      18.961   3.714  22.516  0.00  0.00    +0.034 A 
ATOM      6  C6  UNL     1      19.888   4.752  22.324  0.00  0.00    +0.023 A 
ATOM      7  C7  UNL     1      20.997   4.868  23.164  0.00  0.00    +0.003 A 
ATOM      8  C8  UNL     1      21.196   3.950  24.197  0.00  0.00    +0.013 A 
ATOM      9  C9  UNL     1      20.288   2.896  24.398  0.00  0.00    +0.039 A 
ATOM     10  C16 UNL     1      19.180   2.779  23.539  0.00  0.00    +0.036 A 
BRANCH   9  11
ATOM     11  C10 UNL     1      20.514   1.912  25.486  0.00  0.00    +0.249 C 
ATOM     12  O2  UNL     1      20.064   0.738  25.365  0.00  0.00    -0.270 OA
ATOM     13  N2  UNL     1      21.283   2.263  26.648  0.00  0.00    -0.266 N 
ATOM     14  H11 UNL     1      22.036   2.978  26.544  0.00  0.00    +0.157 HD
BRANCH  13  15
ATOM     15  C11 UNL     1      21.192   1.577  27.908  0.00  0.00    +0.125 A 
ATOM     16  C12 UNL     1      22.117   0.582  28.273  0.00  0.00    +0.044 A 
ATOM     17  C13 UNL     1      21.971  -0.075  29.497  0.00  0.00    +0.005 A 
ATOM     18  C14 UNL     1      20.904   0.249  30.337  0.00  0.00    +0.020 A 
ATOM     19  C15 UNL     1      19.991   1.225  29.935  0.00  0.00    +0.113 A 
ATOM     20  N3  UNL     1      20.150   1.857  28.740  0.00  0.00    -0.240 NA
ENDBRANCH  13  15
ENDBRANCH   9  11
ENDBRANCH   3   5
BRANCH   1  21
ATOM     21  C3  UNL     1      15.399   3.887  20.949  0.00  0.00    +0.121 C 
BRANCH  21  23
ATOM     22  C1  UNL     1      13.173   2.682  20.552  0.00  0.00    +0.031 C 
ATOM     23  C2  UNL     1      14.519   2.667  21.291  0.00  0.00    +0.094 C 
BRANCH  23  24
ATOM     24  N4  UNL     1      15.249   1.409  21.070  0.00  0.00    -0.327 N 
ATOM     25  C17 UNL     1      15.554   0.813  19.886  0.00  0.00    +0.108 A 
ATOM     26  C18 UNL     1      16.344  -0.311  20.099  0.00  0.00    +0.068 A 
ATOM     27 CL1  UNL     1      16.999  -1.376  18.870  0.00  0.00    -0.081 Cl
ATOM     28  C19 UNL     1      16.533  -0.389  21.460  0.00  0.00    +0.037 A 
ATOM     29  C20 UNL     1      17.254  -1.279  22.250  0.00  0.00    +0.014 A 
ATOM     30  C21 UNL     1      17.263  -1.048  23.637  0.00  0.00    +0.020 A 
ATOM     31  C22 UNL     1      16.563   0.058  24.170  0.00  0.00    +0.113 A 
ATOM     32  N5  UNL     1      15.873   0.905  23.349  0.00  0.00    -0.237 NA
ATOM     33  C23 UNL     1      15.864   0.667  22.012  0.00  0.00    +0.142 A 
ENDBRANCH  23  24
ENDBRANCH  21  23
ENDBRANCH   1  21
TORSDOF 6
ENDMDL
MODEL 4
REMARK VINA RESULT:    -6.662     12.167     15.274
REMARK INTER + INTRA:         -10.317
REMARK INTER:                  -9.187
REMARK INTRA:                  -1.130
REMARK UNBOUND:                -1.318
REMARK  Name = /home/qwerty/github/datacon2025hack/step_04_hit_selection/docking/ligands/lig_772.pdb
REMARK  7 active torsions:
REMARK  status: ('A' for Active; 'I' for Inactive)
REMARK    1  A    between atoms: C1_1  and  C2_2
REMARK    2  A    between atoms: C2_2  and  C3_3
REMARK    3  A    between atoms: C2_2  and  N4_22
REMARK    4  A    between atoms: C3_3  and  C4_4
REMARK    5  A    between atoms: N1_6  and  C5_7
REMARK    6  A    between atoms: C9_11  and  C10_12
REMARK    7  A    between atoms: N2_14  and  C11_15
REMARK                            x       y       z     vdW  Elec       q    Type
REMARK                         _______ _______ _______ _____ _____    ______ ____
ROOT
ATOM      1  C4  UNL     1      10.289  12.521  29.813  0.00  0.00    +0.219 C 
ATOM      2  O1  UNL     1      11.071  11.540  29.694  0.00  0.00    -0.275 OA
ATOM      3  N1  UNL     1       8.891  12.385  29.510  0.00  0.00    -0.285 N 
ATOM      4  H7  UNL     1       8.253  13.162  29.800  0.00  0.00    +0.155 HD
ENDROOT
BRANCH   3   5
ATOM      5  C5  UNL     1       8.292  11.182  29.000  0.00  0.00    +0.034 A 
ATOM      6  C6  UNL     1       7.563  10.318  29.832  0.00  0.00    +0.023 A 
ATOM      7  C7  UNL     1       7.013   9.143  29.316  0.00  0.00    +0.003 A 
ATOM      8  C8  UNL     1       7.190   8.815  27.970  0.00  0.00    +0.013 A 
ATOM      9  C9  UNL     1       7.928   9.660  27.122  0.00  0.00    +0.039 A 
ATOM     10  C16 UNL     1       8.489  10.836  27.654  0.00  0.00    +0.036 A 
BRANCH   9  11
ATOM     11  C10 UNL     1       8.128   9.299  25.697  0.00  0.00    +0.249 C 
ATOM     12  O2  UNL     1       8.239   8.084  25.375  0.00  0.00    -0.270 OA
ATOM     13  N2  UNL     1       8.145  10.310  24.677  0.00  0.00    -0.266 N 
ATOM     14  H11 UNL     1       7.583  11.177  24.831  0.00  0.00    +0.157 HD
BRANCH  13  15
ATOM     15  C11 UNL     1       8.752  10.138  23.386  0.00  0.00    +0.125 A 
ATOM     16  C12 UNL     1      10.149  10.076  23.230  0.00  0.00    +0.044 A 
ATOM     17  C13 UNL     1      10.691   9.934  21.951  0.00  0.00    +0.005 A 
ATOM     18  C14 UNL     1       9.847   9.871  20.840  0.00  0.00    +0.020 A 
ATOM     19  C15 UNL     1       8.467   9.958  21.027  0.00  0.00    +0.113 A 
ATOM     20  N3  UNL     1       7.955  10.093  22.281  0.00  0.00    -0.240 NA
ENDBRANCH  13  15
ENDBRANCH   9  11
ENDBRANCH   3   5
BRANCH   1  21
ATOM     21  C3  UNL     1      10.823  13.826  30.335  0.00  0.00    +0.121 C 
BRANCH  21  23
ATOM     22  C1  UNL     1      13.077  14.807  31.058  0.00  0.00    +0.031 C 
ATOM     23  C2  UNL     1      12.069  13.660  31.228  0.00  0.00    +0.094 C 
BRANCH  23  24
ATOM     24  N4  UNL     1      11.690  13.471  32.637  0.00  0.00    -0.327 N 
ATOM     25  C17 UNL     1      11.033  14.339  33.452  0.00  0.00    +0.108 A 
ATOM     26  C18 UNL     1      10.773  13.745  34.682  0.00  0.00    +0.068 A 
ATOM     27 CL1  UNL     1       9.927  14.471  36.035  0.00  0.00    -0.081 Cl
ATOM     28  C19 UNL     1      11.280  12.468  34.602  0.00  0.00    +0.037 A 
ATOM     29  C20 UNL     1      11.289  11.410  35.506  0.00  0.00    +0.014 A 
ATOM     30  C21 UNL     1      11.876  10.206  35.083  0.00  0.00    +0.020 A 
ATOM     31  C22 UNL     1      12.420  10.106  33.782  0.00  0.00    +0.113 A 
ATOM     32  N5  UNL     1      12.382  11.175  32.930  0.00  0.00    -0.237 NA
ATOM     33  C23 UNL     1      11.820  12.336  33.353  0.00  0.00    +0.142 A 
ENDBRANCH  23  24
ENDBRANCH  21  23
ENDBRANCH   1  21
TORSDOF 6
ENDMDL
MODEL 5
REMARK VINA RESULT:    -6.636      8.773     13.641
REMARK INTER + INTRA:         -10.281
REMARK INTER:                  -9.316
REMARK INTRA:                  -0.965
REMARK UNBOUND:                -1.318
REMARK  Name = /home/qwerty/github/datacon2025hack/step_04_hit_selection/docking/ligands/lig_772.pdb
REMARK  7 active torsions:
REMARK  status: ('A' for Active; 'I' for Inactive)
REMARK    1  A    between atoms: C1_1  and  C2_2
REMARK    2  A    between atoms: C2_2  and  C3_3
REMARK    3  A    between atoms: C2_2  and  N4_22
REMARK    4  A    between atoms: C3_3  and  C4_4
REMARK    5  A    between atoms: N1_6  and  C5_7
REMARK    6  A    between atoms: C9_11  and  C10_12
REMARK    7  A    between atoms: N2_14  and  C11_15
REMARK                            x       y       z     vdW  Elec       q    Type
REMARK                         _______ _______ _______ _____ _____    ______ ____
ROOT
ATOM      1  C4  UNL     1      21.995   5.405  33.988  0.00  0.00    +0.219 C 
ATOM      2  O1  UNL     1      20.920   5.779  33.446  0.00  0.00    -0.275 OA
ATOM      3  N1  UNL     1      22.472   4.059  33.817  0.00  0.00    -0.285 N 
ATOM      4  H7  UNL     1      23.449   3.848  34.123  0.00  0.00    +0.155 HD
ENDROOT
BRANCH   3   5
ATOM      5  C5  UNL     1      21.760   3.039  33.098  0.00  0.00    +0.034 A 
ATOM      6  C6  UNL     1      20.863   2.176  33.749  0.00  0.00    +0.023 A 
ATOM      7  C7  UNL     1      20.203   1.176  33.032  0.00  0.00    +0.003 A 
ATOM      8  C8  UNL     1      20.435   1.023  31.663  0.00  0.00    +0.013 A 
ATOM      9  C9  UNL     1      21.338   1.868  30.995  0.00  0.00    +0.039 A 
ATOM     10  C16 UNL     1      22.009   2.865  31.728  0.00  0.00    +0.036 A 
BRANCH   9  11
ATOM     11  C10 UNL     1      21.595   1.690  29.544  0.00  0.00    +0.249 C 
ATOM     12  O2  UNL     1      22.501   0.896  29.167  0.00  0.00    -0.270 OA
ATOM     13  N2  UNL     1      20.790   2.367  28.566  0.00  0.00    -0.266 N 
ATOM     14  H11 UNL     1      19.799   2.588  28.809  0.00  0.00    +0.157 HD
BRANCH  13  15
ATOM     15  C11 UNL     1      21.210   2.616  27.214  0.00  0.00    +0.125 A 
ATOM     16  C12 UNL     1      22.288   3.471  26.922  0.00  0.00    +0.044 A 
ATOM     17  C13 UNL     1      22.640   3.702  25.590  0.00  0.00    +0.005 A 
ATOM     18  C14 UNL     1      21.914   3.096  24.564  0.00  0.00    +0.020 A 
ATOM     19  C15 UNL     1      20.836   2.270  24.886  0.00  0.00    +0.113 A 
ATOM     20  N3  UNL     1      20.508   2.055  26.189  0.00  0.00    -0.240 NA
ENDBRANCH  13  15
ENDBRANCH   9  11
ENDBRANCH   3   5
BRANCH   1  21
ATOM     21  C3  UNL     1      22.810   6.399  34.768  0.00  0.00    +0.121 C 
BRANCH  21  23
ATOM     22  C1  UNL     1      23.336   6.604  37.267  0.00  0.00    +0.031 C 
ATOM     23  C2  UNL     1      22.252   6.667  36.181  0.00  0.00    +0.094 C 
BRANCH  23  24
ATOM     24  N4  UNL     1      21.508   7.936  36.224  0.00  0.00    -0.327 N 
ATOM     25  C17 UNL     1      21.815   9.109  35.607  0.00  0.00    +0.108 A 
ATOM     26  C18 UNL     1      20.805  10.043  35.813  0.00  0.00    +0.068 A 
ATOM     27 CL1  UNL     1      20.750  11.679  35.188  0.00  0.00    -0.081 Cl
ATOM     28  C19 UNL     1      19.848   9.405  36.571  0.00  0.00    +0.037 A 
ATOM     29  C20 UNL     1      18.614   9.825  37.057  0.00  0.00    +0.014 A 
ATOM     30  C21 UNL     1      17.858   8.892  37.787  0.00  0.00    +0.020 A 
ATOM     31  C22 UNL     1      18.360   7.586  37.993  0.00  0.00    +0.113 A 
ATOM     32  N5  UNL     1      19.578   7.223  37.491  0.00  0.00    -0.237 NA
ATOM     33  C23 UNL     1      20.303   8.136  36.794  0.00  0.00    +0.142 A 
ENDBRANCH  23  24
ENDBRANCH  21  23
ENDBRANCH   1  21
TORSDOF 6
ENDMDL
MODEL 6
REMARK VINA RESULT:    -6.603     11.065     14.611
REMARK INTER + INTRA:         -10.237
REMARK INTER:                  -9.003
REMARK INTRA:                  -1.234
REMARK UNBOUND:                -1.318
REMARK  Name = /home/qwerty/github/datacon2025hack/step_04_hit_selection/docking/ligands/lig_772.pdb
REMARK  7 active torsions:
REMARK  status: ('A' for Active; 'I' for Inactive)
REMARK    1  A    between atoms: C1_1  and  C2_2
REMARK    2  A    between atoms: C2_2  and  C3_3
REMARK    3  A    between atoms: C2_2  and  N4_22
REMARK    4  A    between atoms: C3_3  and  C4_4
REMARK    5  A    between atoms: N1_6  and  C5_7
REMARK    6  A    between atoms: C9_11  and  C10_12
REMARK    7  A    between atoms: N2_14  and  C11_15
REMARK                            x       y       z     vdW  Elec       q    Type
REMARK                         _______ _______ _______ _____ _____    ______ ____
ROOT
ATOM      1  C4  UNL     1      19.470   8.614  37.251  0.00  0.00    +0.219 C 
ATOM      2  O1  UNL     1      19.393   7.550  37.923  0.00  0.00    -0.275 OA
ATOM      3  N1  UNL     1      20.426   8.739  36.185  0.00  0.00    -0.285 N 
ATOM      4  H7  UNL     1      20.329   9.557  35.540  0.00  0.00    +0.155 HD
ENDROOT
BRANCH   3   5
ATOM      5  C5  UNL     1      21.390   7.729  35.846  0.00  0.00    +0.034 A 
ATOM      6  C6  UNL     1      22.604   7.613  36.542  0.00  0.00    +0.023 A 
ATOM      7  C7  UNL     1      23.534   6.639  36.176  0.00  0.00    +0.003 A 
ATOM      8  C8  UNL     1      23.267   5.776  35.111  0.00  0.00    +0.013 A 
ATOM      9  C9  UNL     1      22.064   5.883  34.392  0.00  0.00    +0.039 A 
ATOM     10  C16 UNL     1      21.137   6.877  34.760  0.00  0.00    +0.036 A 
BRANCH   9  11
ATOM     11  C10 UNL     1      21.793   4.977  33.249  0.00  0.00    +0.249 C 
ATOM     12  O2  UNL     1      21.188   5.421  32.234  0.00  0.00    -0.270 OA
ATOM     13  N2  UNL     1      22.257   3.617  33.263  0.00  0.00    -0.266 N 
ATOM     14  H11 UNL     1      23.127   3.397  33.796  0.00  0.00    +0.157 HD
BRANCH  13  15
ATOM     15  C11 UNL     1      21.694   2.569  32.457  0.00  0.00    +0.125 A 
ATOM     16  C12 UNL     1      20.671   1.733  32.942  0.00  0.00    +0.044 A 
ATOM     17  C13 UNL     1      20.176   0.711  32.130  0.00  0.00    +0.005 A 
ATOM     18  C14 UNL     1      20.707   0.518  30.853  0.00  0.00    +0.020 A 
ATOM     19  C15 UNL     1      21.736   1.350  30.410  0.00  0.00    +0.113 A 
ATOM     20  N3  UNL     1      22.205   2.342  31.214  0.00  0.00    -0.240 NA
ENDBRANCH  13  15
ENDBRANCH   9  11
ENDBRANCH   3   5
BRANCH   1  21
ATOM     21  C3  UNL     1      18.507   9.733  37.535  0.00  0.00    +0.121 C 
BRANCH  21  23
ATOM     22  C1  UNL     1      16.023   9.285  37.097  0.00  0.00    +0.031 C 
ATOM     23  C2  UNL     1      17.347   9.809  36.521  0.00  0.00    +0.094 C 
BRANCH  23  24
ATOM     24  N4  UNL     1      17.207  11.169  35.977  0.00  0.00    -0.327 N 
ATOM     25  C17 UNL     1      16.393  12.167  36.416  0.00  0.00    +0.108 A 
ATOM     26  C18 UNL     1      16.631  13.335  35.698  0.00  0.00    +0.068 A 
ATOM     27 CL1  UNL     1      15.842  14.882  35.930  0.00  0.00    -0.081 Cl
ATOM     28  C19 UNL     1      17.633  13.033  34.804  0.00  0.00    +0.037 A 
ATOM     29  C20 UNL     1      18.298  13.804  33.855  0.00  0.00    +0.014 A 
ATOM     30  C21 UNL     1      19.314  13.178  33.113  0.00  0.00    +0.020 A 
ATOM     31  C22 UNL     1      19.626  11.820  33.353  0.00  0.00    +0.113 A 
ATOM     32  N5  UNL     1      18.945  11.108  34.300  0.00  0.00    -0.237 NA
ATOM     33  C23 UNL     1      17.959  11.721  35.005  0.00  0.00    +0.142 A 
ENDBRANCH  23  24
ENDBRANCH  21  23
ENDBRANCH   1  21
TORSDOF 6
ENDMDL
MODEL 7
REMARK VINA RESULT:    -6.566      9.127     11.937
REMARK INTER + INTRA:         -10.188
REMARK INTER:                  -8.636
REMARK INTRA:                  -1.551
REMARK UNBOUND:                -1.318
REMARK  Name = /home/qwerty/github/datacon2025hack/step_04_hit_selection/docking/ligands/lig_772.pdb
REMARK  7 active torsions:
REMARK  status: ('A' for Active; 'I' for Inactive)
REMARK    1  A    between atoms: C1_1  and  C2_2
REMARK    2  A    between atoms: C2_2  and  C3_3
REMARK    3  A    between atoms: C2_2  and  N4_22
REMARK    4  A    between atoms: C3_3  and  C4_4
REMARK    5  A    between atoms: N1_6  and  C5_7
REMARK    6  A    between atoms: C9_11  and  C10_12
REMARK    7  A    between atoms: N2_14  and  C11_15
REMARK                            x       y       z     vdW  Elec       q    Type
REMARK                         _______ _______ _______ _____ _____    ______ ____
ROOT
ATOM      1  C4  UNL     1       9.983  10.228  25.052  0.00  0.00    +0.219 C 
ATOM      2  O1  UNL     1      10.953  10.310  25.853  0.00  0.00    -0.275 OA
ATOM      3  N1  UNL     1       8.630  10.326  25.528  0.00  0.00    -0.285 N 
ATOM      4  H7  UNL     1       7.872  10.441  24.816  0.00  0.00    +0.155 HD
ENDROOT
BRANCH   3   5
ATOM      5  C5  UNL     1       8.272  10.452  26.914  0.00  0.00    +0.034 A 
ATOM      6  C6  UNL     1       8.357  11.685  27.582  0.00  0.00    +0.023 A 
ATOM      7  C7  UNL     1       8.027  11.775  28.936  0.00  0.00    +0.003 A 
ATOM      8  C8  UNL     1       7.617  10.639  29.637  0.00  0.00    +0.013 A 
ATOM      9  C9  UNL     1       7.537   9.393  28.990  0.00  0.00    +0.039 A 
ATOM     10  C16 UNL     1       7.883   9.309  27.629  0.00  0.00    +0.036 A 
BRANCH   9  11
ATOM     11  C10 UNL     1       7.118   8.186  29.744  0.00  0.00    +0.249 C 
ATOM     12  O2  UNL     1       7.070   8.226  31.005  0.00  0.00    -0.270 OA
ATOM     13  N2  UNL     1       6.717   6.990  29.055  0.00  0.00    -0.266 N 
ATOM     14  H11 UNL     1       6.281   7.087  28.111  0.00  0.00    +0.157 HD
BRANCH  13  15
ATOM     15  C11 UNL     1       6.725   5.681  29.647  0.00  0.00    +0.125 A 
ATOM     16  C12 UNL     1       7.889   4.892  29.676  0.00  0.00    +0.044 A 
ATOM     17  C13 UNL     1       7.839   3.615  30.240  0.00  0.00    +0.005 A 
ATOM     18  C14 UNL     1       6.636   3.128  30.754  0.00  0.00    +0.020 A 
ATOM     19  C15 UNL     1       5.494   3.928  30.690  0.00  0.00    +0.113 A 
ATOM     20  N3  UNL     1       5.561   5.170  30.140  0.00  0.00    -0.240 NA
ENDBRANCH  13  15
ENDBRANCH   9  11
ENDBRANCH   3   5
BRANCH   1  21
ATOM     21  C3  UNL     1      10.255  10.089  23.580  0.00  0.00    +0.121 C 
BRANCH  21  23
ATOM     22  C1  UNL     1       8.768  10.450  21.526  0.00  0.00    +0.031 C 
ATOM     23  C2  UNL     1       9.030   9.602  22.779  0.00  0.00    +0.094 C 
BRANCH  23  24
ATOM     24  N4  UNL     1       9.142   8.171  22.457  0.00  0.00    -0.327 N 
ATOM     25  C17 UNL     1       9.616   7.604  21.315  0.00  0.00    +0.108 A 
ATOM     26  C18 UNL     1       9.652   6.219  21.442  0.00  0.00    +0.068 A 
ATOM     27 CL1  UNL     1      10.214   5.073  20.241  0.00  0.00    -0.081 Cl
ATOM     28  C19 UNL     1       9.196   5.943  22.712  0.00  0.00    +0.037 A 
ATOM     29  C20 UNL     1       9.040   4.747  23.405  0.00  0.00    +0.014 A 
ATOM     30  C21 UNL     1       8.568   4.825  24.727  0.00  0.00    +0.020 A 
ATOM     31  C22 UNL     1       8.281   6.086  25.298  0.00  0.00    +0.113 A 
ATOM     32  N5  UNL     1       8.455   7.232  24.574  0.00  0.00    -0.237 NA
ATOM     33  C23 UNL     1       8.904   7.143  23.296  0.00  0.00    +0.142 A 
ENDBRANCH  23  24
ENDBRANCH  21  23
ENDBRANCH   1  21
TORSDOF 6
ENDMDL
MODEL 8
REMARK VINA RESULT:    -6.533     14.471     15.981
REMARK INTER + INTRA:         -10.143
REMARK INTER:                  -9.117
REMARK INTRA:                  -1.025
REMARK UNBOUND:                -1.318
REMARK  Name = /home/qwerty/github/datacon2025hack/step_04_hit_selection/docking/ligands/lig_772.pdb
REMARK  7 active torsions:
REMARK  status: ('A' for Active; 'I' for Inactive)
REMARK    1  A    between atoms: C1_1  and  C2_2
REMARK    2  A    between atoms: C2_2  and  C3_3
REMARK    3  A    between atoms: C2_2  and  N4_22
REMARK    4  A    between atoms: C3_3  and  C4_4
REMARK    5  A    between atoms: N1_6  and  C5_7
REMARK    6  A    between atoms: C9_11  and  C10_12
REMARK    7  A    between atoms: N2_14  and  C11_15
REMARK                            x       y       z     vdW  Elec       q    Type
REMARK                         _______ _______ _______ _____ _____    ______ ____
ROOT
ATOM      1  C4  UNL     1      16.512  12.927  35.679  0.00  0.00    +0.219 C 
ATOM      2  O1  UNL     1      16.252  12.168  34.706  0.00  0.00    -0.275 OA
ATOM      3  N1  UNL     1      17.172  12.417  36.849  0.00  0.00    -0.285 N 
ATOM      4  H7  UNL     1      17.533  13.110  37.544  0.00  0.00    +0.155 HD
ENDROOT
BRANCH   3   5
ATOM      5  C5  UNL     1      17.520  11.036  37.039  0.00  0.00    +0.034 A 
ATOM      6  C6  UNL     1      16.668  10.154  37.722  0.00  0.00    +0.023 A 
ATOM      7  C7  UNL     1      17.041   8.822  37.914  0.00  0.00    +0.003 A 
ATOM      8  C8  UNL     1      18.269   8.360  37.435  0.00  0.00    +0.013 A 
ATOM      9  C9  UNL     1      19.143   9.229  36.760  0.00  0.00    +0.039 A 
ATOM     10  C16 UNL     1      18.764  10.573  36.581  0.00  0.00    +0.036 A 
BRANCH   9  11
ATOM     11  C10 UNL     1      20.454   8.738  36.268  0.00  0.00    +0.249 C 
ATOM     12  O2  UNL     1      21.384   8.521  37.093  0.00  0.00    -0.270 OA
ATOM     13  N2  UNL     1      20.658   8.456  34.874  0.00  0.00    -0.266 N 
ATOM     14  H11 UNL     1      19.837   8.149  34.307  0.00  0.00    +0.157 HD
BRANCH  13  15
ATOM     15  C11 UNL     1      21.950   8.411  34.245  0.00  0.00    +0.125 A 
ATOM     16  C12 UNL     1      22.353   9.389  33.318  0.00  0.00    +0.044 A 
ATOM     17  C13 UNL     1      23.608   9.287  32.714  0.00  0.00    +0.005 A 
ATOM     18  C14 UNL     1      24.442   8.211  33.022  0.00  0.00    +0.020 A 
ATOM     19  C15 UNL     1      24.004   7.246  33.929  0.00  0.00    +0.113 A 
ATOM     20  N3  UNL     1      22.779   7.362  34.510  0.00  0.00    -0.240 NA
ENDBRANCH  13  15
ENDBRANCH   9  11
ENDBRANCH   3   5
BRANCH   1  21
ATOM     21  C3  UNL     1      16.180  14.390  35.579  0.00  0.00    +0.121 C 
BRANCH  21  23
ATOM     22  C1  UNL     1      14.707  16.271  36.503  0.00  0.00    +0.031 C 
ATOM     23  C2  UNL     1      14.851  14.760  36.270  0.00  0.00    +0.094 C 
BRANCH  23  24
ATOM     24  N4  UNL     1      13.701  14.208  35.536  0.00  0.00    -0.327 N 
ATOM     25  C17 UNL     1      13.202  14.609  34.336  0.00  0.00    +0.108 A 
ATOM     26  C18 UNL     1      12.172  13.765  33.935  0.00  0.00    +0.068 A 
ATOM     27 CL1  UNL     1      11.251  13.873  32.448  0.00  0.00    -0.081 Cl
ATOM     28  C19 UNL     1      12.055  12.813  34.923  0.00  0.00    +0.037 A 
ATOM     29  C20 UNL     1      11.223  11.706  35.055  0.00  0.00    +0.014 A 
ATOM     30  C21 UNL     1      11.389  10.907  36.200  0.00  0.00    +0.020 A 
ATOM     31  C22 UNL     1      12.377  11.243  37.154  0.00  0.00    +0.113 A 
ATOM     32  N5  UNL     1      13.172  12.340  36.975  0.00  0.00    -0.237 NA
ATOM     33  C23 UNL     1      12.996  13.108  35.869  0.00  0.00    +0.142 A 
ENDBRANCH  23  24
ENDBRANCH  21  23
ENDBRANCH   1  21
TORSDOF 6
ENDMDL
MODEL 9
REMARK VINA RESULT:    -6.530      4.435      6.946
REMARK INTER + INTRA:         -10.138
REMARK INTER:                  -8.950
REMARK INTRA:                  -1.188
REMARK UNBOUND:                -1.318
REMARK  Name = /home/qwerty/github/datacon2025hack/step_04_hit_selection/docking/ligands/lig_772.pdb
REMARK  7 active torsions:
REMARK  status: ('A' for Active; 'I' for Inactive)
REMARK    1  A    between atoms: C1_1  and  C2_2
REMARK    2  A    between atoms: C2_2  and  C3_3
REMARK    3  A    between atoms: C2_2  and  N4_22
REMARK    4  A    between atoms: C3_3  and  C4_4
REMARK    5  A    between atoms: N1_6  and  C5_7
REMARK    6  A    between atoms: C9_11  and  C10_12
REMARK    7  A    between atoms: N2_14  and  C11_15
REMARK                            x       y       z     vdW  Elec       q    Type
REMARK                         _______ _______ _______ _____ _____    ______ ____
ROOT
ATOM      1  C4  UNL     1      12.422   6.494  20.934  0.00  0.00    +0.219 C 
ATOM      2  O1  UNL     1      12.945   6.492  22.081  0.00  0.00    -0.275 OA
ATOM      3  N1  UNL     1      12.796   5.508  19.957  0.00  0.00    -0.285 N 
ATOM      4  H7  UNL     1      12.208   5.430  19.095  0.00  0.00    +0.155 HD
ENDROOT
BRANCH   3   5
ATOM      5  C5  UNL     1      13.810   4.512  20.167  0.00  0.00    +0.034 A 
ATOM      6  C6  UNL     1      15.090   4.641  19.602  0.00  0.00    +0.023 A 
ATOM      7  C7  UNL     1      16.049   3.646  19.801  0.00  0.00    +0.003 A 
ATOM      8  C8  UNL     1      15.742   2.513  20.557  0.00  0.00    +0.013 A 
ATOM      9  C9  UNL     1      14.463   2.358  21.120  0.00  0.00    +0.039 A 
ATOM     10  C16 UNL     1      13.498   3.359  20.905  0.00  0.00    +0.036 A 
BRANCH   9  11
ATOM     11  C10 UNL     1      14.136   1.144  21.907  0.00  0.00    +0.249 C 
ATOM     12  O2  UNL     1      13.040   0.550  21.707  0.00  0.00    -0.270 OA
ATOM     13  N2  UNL     1      15.073   0.606  22.855  0.00  0.00    -0.266 N 
ATOM     14  H11 UNL     1      16.092   0.748  22.677  0.00  0.00    +0.157 HD
BRANCH  13  15
ATOM     15  C11 UNL     1      14.707  -0.255  23.946  0.00  0.00    +0.125 A 
ATOM     16  C12 UNL     1      15.064  -1.616  23.963  0.00  0.00    +0.044 A 
ATOM     17  C13 UNL     1      14.662  -2.418  25.033  0.00  0.00    +0.005 A 
ATOM     18  C14 UNL     1      13.898  -1.869  26.065  0.00  0.00    +0.020 A 
ATOM     19  C15 UNL     1      13.542  -0.521  26.007  0.00  0.00    +0.113 A 
ATOM     20  N3  UNL     1      13.945   0.246  24.958  0.00  0.00    -0.240 NA
ENDBRANCH  13  15
ENDBRANCH   9  11
ENDBRANCH   3   5
BRANCH   1  21
ATOM     21  C3  UNL     1      11.353   7.502  20.615  0.00  0.00    +0.121 C 
BRANCH  21  23
ATOM     22  C1  UNL     1      10.269   9.388  21.967  0.00  0.00    +0.031 C 
ATOM     23  C2  UNL     1      10.485   7.874  21.835  0.00  0.00    +0.094 C 
BRANCH  23  24
ATOM     24  N4  UNL     1       9.210   7.139  21.821  0.00  0.00    -0.327 N 
ATOM     25  C17 UNL     1       8.119   7.367  21.041  0.00  0.00    +0.108 A 
ATOM     26  C18 UNL     1       7.156   6.388  21.258  0.00  0.00    +0.068 A 
ATOM     27 CL1  UNL     1       5.600   6.257  20.461  0.00  0.00    -0.081 Cl
ATOM     28  C19 UNL     1       7.690   5.531  22.193  0.00  0.00    +0.037 A 
ATOM     29  C20 UNL     1       7.203   4.363  22.772  0.00  0.00    +0.014 A 
ATOM     30  C21 UNL     1       8.038   3.702  23.690  0.00  0.00    +0.020 A 
ATOM     31  C22 UNL     1       9.317   4.227  23.982  0.00  0.00    +0.113 A 
ATOM     32  N5  UNL     1       9.750   5.376  23.383  0.00  0.00    -0.237 NA
ATOM     33  C23 UNL     1       8.931   6.011  22.505  0.00  0.00    +0.142 A 
ENDBRANCH  23  24
ENDBRANCH  21  23
ENDBRANCH   1  21
TORSDOF 6
ENDMDL
