MODEL 1
REMARK VINA RESULT:    -5.333      0.000      0.000
REMARK INTER + INTRA:          -7.076
REMARK INTER:                  -6.580
REMARK INTRA:                  -0.497
REMARK UNBOUND:                -0.497
REMARK  Name = /home/qwerty/github/datacon2025hack/step_04_hit_selection/docking/ligands/lig_104.pdb
REMARK  6 active torsions:
REMARK  status: ('A' for Active; 'I' for Inactive)
REMARK    1  A    between atoms: C2_2  and  C3_3
REMARK    2  A    between atoms: C3_3  and  N1_4
REMARK    3  A    between atoms: C6_7  and  N2_8
REMARK    4  A    between atoms: C7_9  and  C8_11
REMARK    5  A    between atoms: C9_12  and  C10_13
REMARK    6  A    between atoms: C14_18  and  C15_19
REMARK                            x       y       z     vdW  Elec       q    Type
REMARK                         _______ _______ _______ _____ _____    ______ ____
ROOT
ATOM      1  N2  UNL     1      22.006   4.557  31.544  0.00  0.00    -0.307 N 
ATOM      2  C7  UNL     1      21.000   3.893  30.767  0.00  0.00    +0.245 C 
ATOM      3  O1  UNL     1      19.836   4.371  30.694  0.00  0.00    -0.270 OA
ATOM      4  H11 UNL     1      22.991   4.214  31.472  0.00  0.00    +0.149 HD
ENDROOT
BRANCH   2   5
ATOM      5  C8  UNL     1      21.326   2.648  30.035  0.00  0.00    +0.043 A 
ATOM      6  C9  UNL     1      21.710   2.701  28.671  0.00  0.00    -0.035 A 
ATOM      7  C10 UNL     1      21.793   4.009  27.926  0.00  0.00    +0.044 C 
ATOM      8  C11 UNL     1      22.014   1.513  27.989  0.00  0.00    +0.042 A 
ATOM      9  C12 UNL     1      21.967   0.285  28.647  0.00  0.00    +0.124 A 
ATOM     10  F1  UNL     1      22.278  -0.853  27.979  0.00  0.00    -0.205 F 
ATOM     11  C13 UNL     1      21.597   0.225  29.989  0.00  0.00    +0.042 A 
ATOM     12  C14 UNL     1      21.256   1.391  30.691  0.00  0.00    -0.035 A 
ATOM     13  C15 UNL     1      20.832   1.268  32.133  0.00  0.00    +0.044 C 
ENDBRANCH   2   5
BRANCH   1  17
ATOM     14  N1  UNL     1      23.721   6.981  32.750  0.00  0.00    -0.297 NA
ATOM     15  C4  UNL     1      23.615   5.961  33.806  0.00  0.00    +0.086 C 
ATOM     16  C5  UNL     1      22.182   5.463  33.815  0.00  0.00    +0.039 C 
ATOM     17  C6  UNL     1      21.694   5.709  32.400  0.00  0.00    +0.088 C 
ATOM     18  C16 UNL     1      22.475   6.948  31.965  0.00  0.00    +0.107 C 
BRANCH  14  19
ATOM     19  C3  UNL     1      24.069   8.329  33.253  0.00  0.00    +0.111 C 
BRANCH  19  21
ATOM     20  C1  UNL     1      24.437  10.034  31.470  0.00  0.00    +0.005 C 
ATOM     21  C2  UNL     1      24.945   9.121  32.303  0.00  0.00    -0.019 C 
ENDBRANCH  19  21
ENDBRANCH  14  19
ENDBRANCH   1  17
TORSDOF 4
ENDMDL
MODEL 2
REMARK VINA RESULT:    -5.282      5.284      9.262
REMARK INTER + INTRA:          -7.014
REMARK INTER:                  -6.511
REMARK INTRA:                  -0.503
REMARK UNBOUND:                -0.497
REMARK  Name = /home/qwerty/github/datacon2025hack/step_04_hit_selection/docking/ligands/lig_104.pdb
REMARK  6 active torsions:
REMARK  status: ('A' for Active; 'I' for Inactive)
REMARK    1  A    between atoms: C2_2  and  C3_3
REMARK    2  A    between atoms: C3_3  and  N1_4
REMARK    3  A    between atoms: C6_7  and  N2_8
REMARK    4  A    between atoms: C7_9  and  C8_11
REMARK    5  A    between atoms: C9_12  and  C10_13
REMARK    6  A    between atoms: C14_18  and  C15_19
REMARK                            x       y       z     vdW  Elec       q    Type
REMARK                         _______ _______ _______ _____ _____    ______ ____
ROOT
ATOM      1  N2  UNL     1      18.640   0.765  26.787  0.00  0.00    -0.307 N 
ATOM      2  C7  UNL     1      19.217   1.841  27.540  0.00  0.00    +0.245 C 
ATOM      3  O1  UNL     1      18.604   2.937  27.652  0.00  0.00    -0.270 OA
ATOM      4  H11 UNL     1      19.105  -0.170  26.830  0.00  0.00    +0.149 HD
ENDROOT
BRANCH   2   5
ATOM      5  C8  UNL     1      20.530   1.667  28.201  0.00  0.00    +0.043 A 
ATOM      6  C9  UNL     1      20.599   1.229  29.548  0.00  0.00    -0.035 A 
ATOM      7  C10 UNL     1      19.354   0.933  30.345  0.00  0.00    +0.044 C 
ATOM      8  C11 UNL     1      21.850   1.071  30.162  0.00  0.00    +0.042 A 
ATOM      9  C12 UNL     1      23.025   1.316  29.454  0.00  0.00    +0.124 A 
ATOM     10  F1  UNL     1      24.227   1.144  30.057  0.00  0.00    -0.205 F 
ATOM     11  C13 UNL     1      22.966   1.741  28.128  0.00  0.00    +0.042 A 
ATOM     12  C14 UNL     1      21.730   1.940  27.494  0.00  0.00    -0.035 A 
ATOM     13  C15 UNL     1      21.721   2.431  26.068  0.00  0.00    +0.044 C 
ENDBRANCH   2   5
BRANCH   1  17
ATOM     14  N1  UNL     1      16.857  -1.179  24.967  0.00  0.00    -0.297 NA
ATOM     15  C4  UNL     1      17.741  -0.430  24.059  0.00  0.00    +0.086 C 
ATOM     16  C5  UNL     1      17.745   1.016  24.519  0.00  0.00    +0.039 C 
ATOM     17  C6  UNL     1      17.414   0.937  25.997  0.00  0.00    +0.088 C 
ATOM     18  C16 UNL     1      16.516  -0.295  26.095  0.00  0.00    +0.107 C 
BRANCH  14  19
ATOM     19  C3  UNL     1      15.676  -1.770  24.298  0.00  0.00    +0.111 C 
BRANCH  19  21
ATOM     20  C1  UNL     1      13.937  -2.764  25.785  0.00  0.00    +0.005 C 
ATOM     21  C2  UNL     1      15.055  -2.917  25.070  0.00  0.00    -0.019 C 
ENDBRANCH  19  21
ENDBRANCH  14  19
ENDBRANCH   1  17
TORSDOF 4
ENDMDL
MODEL 3
REMARK VINA RESULT:    -5.276      0.252      1.963
REMARK INTER + INTRA:          -7.006
REMARK INTER:                  -6.485
REMARK INTRA:                  -0.521
REMARK UNBOUND:                -0.497
REMARK  Name = /home/qwerty/github/datacon2025hack/step_04_hit_selection/docking/ligands/lig_104.pdb
REMARK  6 active torsions:
REMARK  status: ('A' for Active; 'I' for Inactive)
REMARK    1  A    between atoms: C2_2  and  C3_3
REMARK    2  A    between atoms: C3_3  and  N1_4
REMARK    3  A    between atoms: C6_7  and  N2_8
REMARK    4  A    between atoms: C7_9  and  C8_11
REMARK    5  A    between atoms: C9_12  and  C10_13
REMARK    6  A    between atoms: C14_18  and  C15_19
REMARK                            x       y       z     vdW  Elec       q    Type
REMARK                         _______ _______ _______ _____ _____    ______ ____
ROOT
ATOM      1  N2  UNL     1      21.852   4.599  31.680  0.00  0.00    -0.307 N 
ATOM      2  C7  UNL     1      20.840   3.925  30.918  0.00  0.00    +0.245 C 
ATOM      3  O1  UNL     1      19.653   4.349  30.925  0.00  0.00    -0.270 OA
ATOM      4  H11 UNL     1      22.846   4.308  31.543  0.00  0.00    +0.149 HD
ENDROOT
BRANCH   2   5
ATOM      5  C8  UNL     1      21.187   2.735  30.109  0.00  0.00    +0.043 A 
ATOM      6  C9  UNL     1      21.141   1.441  30.688  0.00  0.00    -0.035 A 
ATOM      7  C10 UNL     1      20.749   1.236  32.129  0.00  0.00    +0.044 C 
ATOM      8  C11 UNL     1      21.474   0.322  29.910  0.00  0.00    +0.042 A 
ATOM      9  C12 UNL     1      21.823   0.468  28.569  0.00  0.00    +0.124 A 
ATOM     10  F1  UNL     1      22.128  -0.625  27.826  0.00  0.00    -0.205 F 
ATOM     11  C13 UNL     1      21.864   1.735  27.991  0.00  0.00    +0.042 A 
ATOM     12  C14 UNL     1      21.568   2.878  28.749  0.00  0.00    -0.035 A 
ATOM     13  C15 UNL     1      21.657   4.229  28.085  0.00  0.00    +0.044 C 
ENDBRANCH   2   5
BRANCH   1  17
ATOM     14  N1  UNL     1      23.474   7.111  32.832  0.00  0.00    -0.297 NA
ATOM     15  C4  UNL     1      23.544   6.049  33.850  0.00  0.00    +0.086 C 
ATOM     16  C5  UNL     1      22.161   5.436  33.963  0.00  0.00    +0.039 C 
ATOM     17  C6  UNL     1      21.529   5.691  32.608  0.00  0.00    +0.088 C 
ATOM     18  C16 UNL     1      22.168   7.004  32.159  0.00  0.00    +0.107 C 
BRANCH  14  19
ATOM     19  C3  UNL     1      23.760   8.464  33.360  0.00  0.00    +0.111 C 
BRANCH  19  21
ATOM     20  C1  UNL     1      24.487   9.777  31.367  0.00  0.00    +0.005 C 
ATOM     21  C2  UNL     1      24.788   9.226  32.546  0.00  0.00    -0.019 C 
ENDBRANCH  19  21
ENDBRANCH  14  19
ENDBRANCH   1  17
TORSDOF 4
ENDMDL
MODEL 4
REMARK VINA RESULT:    -5.194     14.429     15.564
REMARK INTER + INTRA:          -6.905
REMARK INTER:                  -6.365
REMARK INTRA:                  -0.540
REMARK UNBOUND:                -0.497
REMARK  Name = /home/qwerty/github/datacon2025hack/step_04_hit_selection/docking/ligands/lig_104.pdb
REMARK  6 active torsions:
REMARK  status: ('A' for Active; 'I' for Inactive)
REMARK    1  A    between atoms: C2_2  and  C3_3
REMARK    2  A    between atoms: C3_3  and  N1_4
REMARK    3  A    between atoms: C6_7  and  N2_8
REMARK    4  A    between atoms: C7_9  and  C8_11
REMARK    5  A    between atoms: C9_12  and  C10_13
REMARK    6  A    between atoms: C14_18  and  C15_19
REMARK                            x       y       z     vdW  Elec       q    Type
REMARK                         _______ _______ _______ _____ _____    ______ ____
ROOT
ATOM      1  N2  UNL     1      10.591  10.795  25.170  0.00  0.00    -0.307 N 
ATOM      2  C7  UNL     1      10.298   9.686  24.308  0.00  0.00    +0.245 C 
ATOM      3  O1  UNL     1       9.912   8.589  24.795  0.00  0.00    -0.270 OA
ATOM      4  H11 UNL     1      10.772  11.726  24.730  0.00  0.00    +0.149 HD
ENDROOT
BRANCH   2   5
ATOM      5  C8  UNL     1      10.435   9.827  22.841  0.00  0.00    +0.043 A 
ATOM      6  C9  UNL     1      11.681   9.572  22.213  0.00  0.00    -0.035 A 
ATOM      7  C10 UNL     1      12.894   9.159  23.008  0.00  0.00    +0.044 C 
ATOM      8  C11 UNL     1      11.798   9.710  20.822  0.00  0.00    +0.042 A 
ATOM      9  C12 UNL     1      10.696  10.072  20.050  0.00  0.00    +0.124 A 
ATOM     10  F1  UNL     1      10.820  10.187  18.704  0.00  0.00    -0.205 F 
ATOM     11  C13 UNL     1       9.466  10.318  20.658  0.00  0.00    +0.042 A 
ATOM     12  C14 UNL     1       9.324  10.219  22.050  0.00  0.00    -0.035 A 
ATOM     13  C15 UNL     1       7.980  10.527  22.662  0.00  0.00    +0.044 C 
ENDBRANCH   2   5
BRANCH   1  17
ATOM     14  N1  UNL     1      10.045  12.800  27.610  0.00  0.00    -0.297 NA
ATOM     15  C4  UNL     1      11.504  12.736  27.423  0.00  0.00    +0.086 C 
ATOM     16  C5  UNL     1      11.871  11.280  27.203  0.00  0.00    +0.039 C 
ATOM     17  C6  UNL     1      10.609  10.661  26.632  0.00  0.00    +0.088 C 
ATOM     18  C16 UNL     1       9.490  11.477  27.276  0.00  0.00    +0.107 C 
BRANCH  14  19
ATOM     19  C3  UNL     1       9.634  13.296  28.942  0.00  0.00    +0.111 C 
BRANCH  19  21
ATOM     20  C1  UNL     1       7.348  13.892  29.743  0.00  0.00    +0.005 C 
ATOM     21  C2  UNL     1       8.198  12.964  29.294  0.00  0.00    -0.019 C 
ENDBRANCH  19  21
ENDBRANCH  14  19
ENDBRANCH   1  17
TORSDOF 4
ENDMDL
MODEL 5
REMARK VINA RESULT:    -5.176     14.863     16.680
REMARK INTER + INTRA:          -6.883
REMARK INTER:                  -6.282
REMARK INTRA:                  -0.602
REMARK UNBOUND:                -0.497
REMARK  Name = /home/qwerty/github/datacon2025hack/step_04_hit_selection/docking/ligands/lig_104.pdb
REMARK  6 active torsions:
REMARK  status: ('A' for Active; 'I' for Inactive)
REMARK    1  A    between atoms: C2_2  and  C3_3
REMARK    2  A    between atoms: C3_3  and  N1_4
REMARK    3  A    between atoms: C6_7  and  N2_8
REMARK    4  A    between atoms: C7_9  and  C8_11
REMARK    5  A    between atoms: C9_12  and  C10_13
REMARK    6  A    between atoms: C14_18  and  C15_19
REMARK                            x       y       z     vdW  Elec       q    Type
REMARK                         _______ _______ _______ _____ _____    ______ ____
ROOT
ATOM      1  N2  UNL     1       9.701  10.380  25.364  0.00  0.00    -0.307 N 
ATOM      2  C7  UNL     1      10.082  10.361  26.747  0.00  0.00    +0.245 C 
ATOM      3  O1  UNL     1      10.916   9.513  27.165  0.00  0.00    -0.270 OA
ATOM      4  H11 UNL     1       9.119  11.179  25.025  0.00  0.00    +0.149 HD
ENDROOT
BRANCH   2   5
ATOM      5  C8  UNL     1       9.506  11.345  27.692  0.00  0.00    +0.043 A 
ATOM      6  C9  UNL     1      10.161  12.581  27.922  0.00  0.00    -0.035 A 
ATOM      7  C10 UNL     1      11.453  12.930  27.227  0.00  0.00    +0.044 C 
ATOM      8  C11 UNL     1       9.605  13.504  28.821  0.00  0.00    +0.042 A 
ATOM      9  C12 UNL     1       8.403  13.227  29.469  0.00  0.00    +0.124 A 
ATOM     10  F1  UNL     1       7.870  14.135  30.324  0.00  0.00    -0.205 F 
ATOM     11  C13 UNL     1       7.749  12.017  29.244  0.00  0.00    +0.042 A 
ATOM     12  C14 UNL     1       8.295  11.060  28.375  0.00  0.00    -0.035 A 
ATOM     13  C15 UNL     1       7.565   9.754  28.190  0.00  0.00    +0.044 C 
ENDBRANCH   2   5
BRANCH   1  17
ATOM     14  N1  UNL     1       9.043   9.718  22.299  0.00  0.00    -0.297 NA
ATOM     15  C4  UNL     1       8.185   8.849  23.121  0.00  0.00    +0.086 C 
ATOM     16  C5  UNL     1       9.040   8.300  24.248  0.00  0.00    +0.039 C 
ATOM     17  C6  UNL     1      10.133   9.337  24.424  0.00  0.00    +0.088 C 
ATOM     18  C16 UNL     1      10.316   9.904  23.018  0.00  0.00    +0.107 C 
BRANCH  14  19
ATOM     19  C3  UNL     1       9.212   9.246  20.906  0.00  0.00    +0.111 C 
BRANCH  19  21
ATOM     20  C1  UNL     1      11.052  10.005  19.402  0.00  0.00    +0.005 C 
ATOM     21  C2  UNL     1      10.653   9.257  20.435  0.00  0.00    -0.019 C 
ENDBRANCH  19  21
ENDBRANCH  14  19
ENDBRANCH   1  17
TORSDOF 4
ENDMDL
MODEL 6
REMARK VINA RESULT:    -5.166     14.591     15.758
REMARK INTER + INTRA:          -6.871
REMARK INTER:                  -6.412
REMARK INTRA:                  -0.459
REMARK UNBOUND:                -0.497
REMARK  Name = /home/qwerty/github/datacon2025hack/step_04_hit_selection/docking/ligands/lig_104.pdb
REMARK  6 active torsions:
REMARK  status: ('A' for Active; 'I' for Inactive)
REMARK    1  A    between atoms: C2_2  and  C3_3
REMARK    2  A    between atoms: C3_3  and  N1_4
REMARK    3  A    between atoms: C6_7  and  N2_8
REMARK    4  A    between atoms: C7_9  and  C8_11
REMARK    5  A    between atoms: C9_12  and  C10_13
REMARK    6  A    between atoms: C14_18  and  C15_19
REMARK                            x       y       z     vdW  Elec       q    Type
REMARK                         _______ _______ _______ _____ _____    ______ ____
ROOT
ATOM      1  N2  UNL     1      10.544  10.550  25.024  0.00  0.00    -0.307 N 
ATOM      2  C7  UNL     1      10.237   9.505  24.090  0.00  0.00    +0.245 C 
ATOM      3  O1  UNL     1       9.823   8.388  24.502  0.00  0.00    -0.270 OA
ATOM      4  H11 UNL     1      10.749  11.502  24.647  0.00  0.00    +0.149 HD
ENDROOT
BRANCH   2   5
ATOM      5  C8  UNL     1      10.393   9.737  22.637  0.00  0.00    +0.043 A 
ATOM      6  C9  UNL     1       9.296  10.197  21.865  0.00  0.00    -0.035 A 
ATOM      7  C10 UNL     1       7.949  10.459  22.489  0.00  0.00    +0.044 C 
ATOM      8  C11 UNL     1       9.458  10.410  20.488  0.00  0.00    +0.042 A 
ATOM      9  C12 UNL     1      10.692  10.198  19.877  0.00  0.00    +0.124 A 
ATOM     10  F1  UNL     1      10.838  10.423  18.548  0.00  0.00    -0.205 F 
ATOM     11  C13 UNL     1      11.777   9.752  20.629  0.00  0.00    +0.042 A 
ATOM     12  C14 UNL     1      11.640   9.498  22.003  0.00  0.00    -0.035 A 
ATOM     13  C15 UNL     1      12.836   8.985  22.765  0.00  0.00    +0.044 C 
ENDBRANCH   2   5
BRANCH   1  17
ATOM     14  N1  UNL     1       9.313  12.114  27.537  0.00  0.00    -0.297 NA
ATOM     15  C4  UNL     1      10.728  12.507  27.435  0.00  0.00    +0.086 C 
ATOM     16  C5  UNL     1      11.530  11.250  27.156  0.00  0.00    +0.039 C 
ATOM     17  C6  UNL     1      10.543  10.321  26.476  0.00  0.00    +0.088 C 
ATOM     18  C16 UNL     1       9.203  10.712  27.095  0.00  0.00    +0.107 C 
BRANCH  14  19
ATOM     19  C3  UNL     1       8.716  12.364  28.868  0.00  0.00    +0.111 C 
BRANCH  19  21
ATOM     20  C1  UNL     1       7.174  13.972  29.989  0.00  0.00    +0.005 C 
ATOM     21  C2  UNL     1       7.974  13.683  28.959  0.00  0.00    -0.019 C 
ENDBRANCH  19  21
ENDBRANCH  14  19
ENDBRANCH   1  17
TORSDOF 4
ENDMDL
MODEL 7
REMARK VINA RESULT:    -5.102     11.721     13.334
REMARK INTER + INTRA:          -6.792
REMARK INTER:                  -6.256
REMARK INTRA:                  -0.536
REMARK UNBOUND:                -0.497
REMARK  Name = /home/qwerty/github/datacon2025hack/step_04_hit_selection/docking/ligands/lig_104.pdb
REMARK  6 active torsions:
REMARK  status: ('A' for Active; 'I' for Inactive)
REMARK    1  A    between atoms: C2_2  and  C3_3
REMARK    2  A    between atoms: C3_3  and  N1_4
REMARK    3  A    between atoms: C6_7  and  N2_8
REMARK    4  A    between atoms: C7_9  and  C8_11
REMARK    5  A    between atoms: C9_12  and  C10_13
REMARK    6  A    between atoms: C14_18  and  C15_19
REMARK                            x       y       z     vdW  Elec       q    Type
REMARK                         _______ _______ _______ _____ _____    ______ ____
ROOT
ATOM      1  N2  UNL     1      22.816  13.023  21.092  0.00  0.00    -0.307 N 
ATOM      2  C7  UNL     1      22.446  12.774  19.728  0.00  0.00    +0.245 C 
ATOM      3  O1  UNL     1      22.968  13.444  18.797  0.00  0.00    -0.270 OA
ATOM      4  H11 UNL     1      22.472  12.361  21.823  0.00  0.00    +0.149 HD
ENDROOT
BRANCH   2   5
ATOM      5  C8  UNL     1      21.456  11.721  19.405  0.00  0.00    +0.043 A 
ATOM      6  C9  UNL     1      20.069  12.014  19.432  0.00  0.00    -0.035 A 
ATOM      7  C10 UNL     1      19.560  13.387  19.789  0.00  0.00    +0.044 C 
ATOM      8  C11 UNL     1      19.142  11.007  19.126  0.00  0.00    +0.042 A 
ATOM      9  C12 UNL     1      19.573   9.729  18.772  0.00  0.00    +0.124 A 
ATOM     10  F1  UNL     1      18.665   8.770  18.464  0.00  0.00    -0.205 F 
ATOM     11  C13 UNL     1      20.935   9.435  18.737  0.00  0.00    +0.042 A 
ATOM     12  C14 UNL     1      21.886  10.412  19.069  0.00  0.00    -0.035 A 
ATOM     13  C15 UNL     1      23.346  10.034  19.047  0.00  0.00    +0.044 C 
ENDBRANCH   2   5
BRANCH   1  17
ATOM     14  N1  UNL     1      23.322  14.640  23.812  0.00  0.00    -0.297 NA
ATOM     15  C4  UNL     1      22.370  15.428  23.013  0.00  0.00    +0.086 C 
ATOM     16  C5  UNL     1      22.866  15.425  21.579  0.00  0.00    +0.039 C 
ATOM     17  C6  UNL     1      23.680  14.149  21.470  0.00  0.00    +0.088 C 
ATOM     18  C16 UNL     1      24.241  13.965  22.879  0.00  0.00    +0.107 C 
BRANCH  14  19
ATOM     19  C3  UNL     1      24.013  15.422  24.862  0.00  0.00    +0.111 C 
BRANCH  19  21
ATOM     20  C1  UNL     1      23.651  14.081  26.933  0.00  0.00    +0.005 C 
ATOM     21  C2  UNL     1      23.441  15.209  26.249  0.00  0.00    -0.019 C 
ENDBRANCH  19  21
ENDBRANCH  14  19
ENDBRANCH   1  17
TORSDOF 4
ENDMDL
MODEL 8
REMARK VINA RESULT:    -5.100     13.588     14.771
REMARK INTER + INTRA:          -6.789
REMARK INTER:                  -6.102
REMARK INTRA:                  -0.687
REMARK UNBOUND:                -0.497
REMARK  Name = /home/qwerty/github/datacon2025hack/step_04_hit_selection/docking/ligands/lig_104.pdb
REMARK  6 active torsions:
REMARK  status: ('A' for Active; 'I' for Inactive)
REMARK    1  A    between atoms: C2_2  and  C3_3
REMARK    2  A    between atoms: C3_3  and  N1_4
REMARK    3  A    between atoms: C6_7  and  N2_8
REMARK    4  A    between atoms: C7_9  and  C8_11
REMARK    5  A    between atoms: C9_12  and  C10_13
REMARK    6  A    between atoms: C14_18  and  C15_19
REMARK                            x       y       z     vdW  Elec       q    Type
REMARK                         _______ _______ _______ _____ _____    ______ ____
ROOT
ATOM      1  N2  UNL     1      11.217  12.433  32.064  0.00  0.00    -0.307 N 
ATOM      2  C7  UNL     1      11.296  11.954  30.714  0.00  0.00    +0.245 C 
ATOM      3  O1  UNL     1      12.205  11.149  30.378  0.00  0.00    -0.270 OA
ATOM      4  H11 UNL     1      10.375  12.985  32.342  0.00  0.00    +0.149 HD
ENDROOT
BRANCH   2   5
ATOM      5  C8  UNL     1      10.301  12.394  29.710  0.00  0.00    +0.043 A 
ATOM      6  C9  UNL     1       9.140  11.615  29.466  0.00  0.00    -0.035 A 
ATOM      7  C10 UNL     1       8.886  10.328  30.208  0.00  0.00    +0.044 C 
ATOM      8  C11 UNL     1       8.207  12.043  28.510  0.00  0.00    +0.042 A 
ATOM      9  C12 UNL     1       8.397  13.236  27.817  0.00  0.00    +0.124 A 
ATOM     10  F1  UNL     1       7.478  13.644  26.906  0.00  0.00    -0.205 F 
ATOM     11  C13 UNL     1       9.531  14.011  28.055  0.00  0.00    +0.042 A 
ATOM     12  C14 UNL     1      10.500  13.595  28.981  0.00  0.00    -0.035 A 
ATOM     13  C15 UNL     1      11.724  14.453  29.179  0.00  0.00    +0.044 C 
ENDBRANCH   2   5
BRANCH   1  17
ATOM     14  N1  UNL     1      11.348  12.501  35.266  0.00  0.00    -0.297 NA
ATOM     15  C4  UNL     1      11.932  13.764  34.783  0.00  0.00    +0.086 C 
ATOM     16  C5  UNL     1      12.836  13.429  33.612  0.00  0.00    +0.039 C 
ATOM     17  C6  UNL     1      12.262  12.140  33.055  0.00  0.00    +0.088 C 
ATOM     18  C16 UNL     1      11.677  11.451  34.286  0.00  0.00    +0.107 C 
BRANCH  14  19
ATOM     19  C3  UNL     1      11.731  12.158  36.653  0.00  0.00    +0.111 C 
BRANCH  19  21
ATOM     20  C1  UNL     1      14.163  11.725  36.998  0.00  0.00    +0.005 C 
ATOM     21  C2  UNL     1      12.942  11.250  36.740  0.00  0.00    -0.019 C 
ENDBRANCH  19  21
ENDBRANCH  14  19
ENDBRANCH   1  17
TORSDOF 4
ENDMDL
MODEL 9
REMARK VINA RESULT:    -5.042     13.612     14.515
REMARK INTER + INTRA:          -6.718
REMARK INTER:                  -6.138
REMARK INTRA:                  -0.580
REMARK UNBOUND:                -0.497
REMARK  Name = /home/qwerty/github/datacon2025hack/step_04_hit_selection/docking/ligands/lig_104.pdb
REMARK  6 active torsions:
REMARK  status: ('A' for Active; 'I' for Inactive)
REMARK    1  A    between atoms: C2_2  and  C3_3
REMARK    2  A    between atoms: C3_3  and  N1_4
REMARK    3  A    between atoms: C6_7  and  N2_8
REMARK    4  A    between atoms: C7_9  and  C8_11
REMARK    5  A    between atoms: C9_12  and  C10_13
REMARK    6  A    between atoms: C14_18  and  C15_19
REMARK                            x       y       z     vdW  Elec       q    Type
REMARK                         _______ _______ _______ _____ _____    ______ ____
ROOT
ATOM      1  N2  UNL     1      11.678  13.497  30.566  0.00  0.00    -0.307 N 
ATOM      2  C7  UNL     1      11.252  13.841  29.240  0.00  0.00    +0.245 C 
ATOM      3  O1  UNL     1      11.598  14.939  28.727  0.00  0.00    -0.270 OA
ATOM      4  H11 UNL     1      11.492  12.527  30.906  0.00  0.00    +0.149 HD
ENDROOT
BRANCH   2   5
ATOM      5  C8  UNL     1      10.412  12.903  28.461  0.00  0.00    +0.043 A 
ATOM      6  C9  UNL     1      11.007  12.025  27.519  0.00  0.00    -0.035 A 
ATOM      7  C10 UNL     1      12.495  12.020  27.278  0.00  0.00    +0.044 C 
ATOM      8  C11 UNL     1      10.199  11.143  26.787  0.00  0.00    +0.042 A 
ATOM      9  C12 UNL     1       8.822  11.104  26.995  0.00  0.00    +0.124 A 
ATOM     10  F1  UNL     1       8.055  10.235  26.290  0.00  0.00    -0.205 F 
ATOM     11  C13 UNL     1       8.229  11.958  27.923  0.00  0.00    +0.042 A 
ATOM     12  C14 UNL     1       9.005  12.875  28.649  0.00  0.00    -0.035 A 
ATOM     13  C15 UNL     1       8.312  13.800  29.617  0.00  0.00    +0.044 C 
ENDBRANCH   2   5
BRANCH   1  17
ATOM     14  N1  UNL     1      13.228  13.268  33.362  0.00  0.00    -0.297 NA
ATOM     15  C4  UNL     1      11.872  13.757  33.659  0.00  0.00    +0.086 C 
ATOM     16  C5  UNL     1      11.533  14.816  32.627  0.00  0.00    +0.039 C 
ATOM     17  C6  UNL     1      12.387  14.452  31.428  0.00  0.00    +0.088 C 
ATOM     18  C16 UNL     1      13.627  13.816  32.054  0.00  0.00    +0.107 C 
BRANCH  14  19
ATOM     19  C3  UNL     1      14.209  13.531  34.439  0.00  0.00    +0.111 C 
BRANCH  19  21
ATOM     20  C1  UNL     1      14.318  15.474  36.000  0.00  0.00    +0.005 C 
ATOM     21  C2  UNL     1      13.662  14.399  35.555  0.00  0.00    -0.019 C 
ENDBRANCH  19  21
ENDBRANCH  14  19
ENDBRANCH   1  17
TORSDOF 4
ENDMDL
