MODEL 1
REMARK VINA RESULT:    -6.511      0.000      0.000
REMARK INTER + INTRA:          -9.100
REMARK INTER:                  -8.223
REMARK INTRA:                  -0.877
REMARK UNBOUND:                -0.877
REMARK  Name = /home/qwerty/github/datacon2025hack/step_04_hit_selection/docking/ligands/lig_247.pdb
REMARK  6 active torsions:
REMARK  status: ('A' for Active; 'I' for Inactive)
REMARK    1  A    between atoms: C1_1  and  C2_2
REMARK    2  A    between atoms: N1_4  and  C4_5
REMARK    3  A    between atoms: C7_8  and  N2_9
REMARK    4  A    between atoms: N3_12  and  C9_13
REMARK    5  A    between atoms: C9_13  and  C10_14
REMARK    6  A    between atoms: C15_19  and  O2_20
REMARK                            x       y       z     vdW  Elec       q    Type
REMARK                         _______ _______ _______ _____ _____    ______ ____
ROOT
ATOM      1  N2  UNL     1      21.423   9.650  36.159  0.00  0.00    -0.269 N 
ATOM      2  C8  UNL     1      21.708   8.488  35.365  0.00  0.00    +0.304 C 
ATOM      3  O1  UNL     1      20.769   7.793  34.889  0.00  0.00    -0.253 OA
ATOM      4  N3  UNL     1      23.069   8.095  35.150  0.00  0.00    -0.299 N 
ATOM      5  H9  UNL     1      22.194  10.026  36.757  0.00  0.00    +0.156 HD
ATOM      6  H10 UNL     1      23.826   8.679  35.572  0.00  0.00    +0.150 HD
ENDROOT
BRANCH   1  10
ATOM      7  C4  UNL     1      17.593  11.471  36.557  0.00  0.00    +0.030 A 
ATOM      8  C5  UNL     1      18.534  12.000  35.657  0.00  0.00    +0.025 A 
ATOM      9  C6  UNL     1      19.791  11.406  35.516  0.00  0.00    +0.025 A 
ATOM     10  C7  UNL     1      20.128  10.265  36.264  0.00  0.00    +0.035 A 
ATOM     11  C16 UNL     1      19.198   9.754  37.182  0.00  0.00    +0.025 A 
ATOM     12  C17 UNL     1      17.940  10.347  37.324  0.00  0.00    +0.025 A 
BRANCH   7  16
ATOM     13  C1  UNL     1      12.622  11.172  37.066  0.00  0.00    +0.039 C 
ATOM     14  C2  UNL     1      13.853  11.901  36.534  0.00  0.00    +0.132 C 
ATOM     15  C3  UNL     1      15.137  11.272  37.102  0.00  0.00    +0.136 C 
ATOM     16  N1  UNL     1      16.296  12.081  36.711  0.00  0.00    -0.325 N 
ATOM     17  C18 UNL     1      16.181  13.537  36.838  0.00  0.00    +0.133 C 
ATOM     18  C19 UNL     1      14.824  13.995  36.295  0.00  0.00    +0.179 C 
ATOM     19  O3  UNL     1      13.770  13.268  36.898  0.00  0.00    -0.374 OA
ENDBRANCH   7  16
ENDBRANCH   1  10
BRANCH   4  20
ATOM     20  C9  UNL     1      23.408   6.927  34.335  0.00  0.00    +0.111 C 
BRANCH  20  21
ATOM     21  C10 UNL     1      23.893   7.340  32.926  0.00  0.00    +0.035 C 
ATOM     22  C11 UNL     1      22.864   6.933  31.833  0.00  0.00    +0.007 C 
ATOM     23  C12 UNL     1      21.910   8.080  31.486  0.00  0.00    +0.000 C 
ATOM     24  C13 UNL     1      22.669   9.300  30.928  0.00  0.00    +0.003 C 
ATOM     25  C14 UNL     1      24.107   9.426  31.470  0.00  0.00    +0.031 C 
ATOM     26  C15 UNL     1      24.229   8.861  32.892  0.00  0.00    +0.119 C 
BRANCH  26  27
ATOM     27  O2  UNL     1      25.539   9.076  33.351  0.00  0.00    -0.391 OA
ATOM     28  H23 UNL     1      25.919   9.818  32.814  0.00  0.00    +0.210 HD
ENDBRANCH  26  27
ENDBRANCH  20  21
ENDBRANCH   4  20
TORSDOF 5
ENDMDL
MODEL 2
REMARK VINA RESULT:    -6.379     15.797     18.891
REMARK INTER + INTRA:          -8.933
REMARK INTER:                  -8.463
REMARK INTRA:                  -0.470
REMARK UNBOUND:                -0.877
REMARK  Name = /home/qwerty/github/datacon2025hack/step_04_hit_selection/docking/ligands/lig_247.pdb
REMARK  6 active torsions:
REMARK  status: ('A' for Active; 'I' for Inactive)
REMARK    1  A    between atoms: C1_1  and  C2_2
REMARK    2  A    between atoms: N1_4  and  C4_5
REMARK    3  A    between atoms: C7_8  and  N2_9
REMARK    4  A    between atoms: N3_12  and  C9_13
REMARK    5  A    between atoms: C9_13  and  C10_14
REMARK    6  A    between atoms: C15_19  and  O2_20
REMARK                            x       y       z     vdW  Elec       q    Type
REMARK                         _______ _______ _______ _____ _____    ______ ____
ROOT
ATOM      1  N2  UNL     1      10.938   5.070  19.598  0.00  0.00    -0.269 N 
ATOM      2  C8  UNL     1      10.271   5.936  20.530  0.00  0.00    +0.304 C 
ATOM      3  O1  UNL     1      10.427   5.779  21.772  0.00  0.00    -0.253 OA
ATOM      4  N3  UNL     1       9.390   6.955  20.042  0.00  0.00    -0.299 N 
ATOM      5  H9  UNL     1      10.574   5.046  18.618  0.00  0.00    +0.156 HD
ATOM      6  H10 UNL     1       9.266   7.050  19.009  0.00  0.00    +0.150 HD
ENDROOT
BRANCH   1  10
ATOM      7  C4  UNL     1      14.034   2.323  20.604  0.00  0.00    +0.030 A 
ATOM      8  C5  UNL     1      14.326   3.461  19.831  0.00  0.00    +0.025 A 
ATOM      9  C6  UNL     1      13.317   4.370  19.501  0.00  0.00    +0.025 A 
ATOM     10  C7  UNL     1      12.000   4.166  19.946  0.00  0.00    +0.035 A 
ATOM     11  C16 UNL     1      11.705   3.016  20.694  0.00  0.00    +0.025 A 
ATOM     12  C17 UNL     1      12.713   2.106  21.025  0.00  0.00    +0.025 A 
BRANCH   7  16
ATOM     13  C1  UNL     1      17.212  -1.351  19.394  0.00  0.00    +0.039 C 
ATOM     14  C2  UNL     1      16.293  -0.683  20.413  0.00  0.00    +0.132 C 
ATOM     15  C3  UNL     1      15.816   0.684  19.892  0.00  0.00    +0.136 C 
ATOM     16  N1  UNL     1      15.068   1.379  20.944  0.00  0.00    -0.325 N 
ATOM     17  C18 UNL     1      15.633   1.366  22.298  0.00  0.00    +0.133 C 
ATOM     18  C19 UNL     1      16.124  -0.043  22.637  0.00  0.00    +0.179 C 
ATOM     19  O3  UNL     1      16.996  -0.528  21.633  0.00  0.00    -0.374 OA
ENDBRANCH   7  16
ENDBRANCH   1  10
BRANCH   4  20
ATOM     20  C9  UNL     1       8.700   7.870  20.954  0.00  0.00    +0.111 C 
BRANCH  20  21
ATOM     21  C10 UNL     1       9.333   9.281  20.928  0.00  0.00    +0.035 C 
ATOM     22  C11 UNL     1       8.954  10.092  22.200  0.00  0.00    +0.007 C 
ATOM     23  C12 UNL     1      10.025   9.986  23.291  0.00  0.00    +0.000 C 
ATOM     24  C13 UNL     1      11.379  10.545  22.812  0.00  0.00    +0.003 C 
ATOM     25  C14 UNL     1      11.593  10.412  21.292  0.00  0.00    +0.031 C 
ATOM     26  C15 UNL     1      10.875   9.180  20.723  0.00  0.00    +0.119 C 
BRANCH  26  27
ATOM     27  O2  UNL     1      11.173   9.077  19.355  0.00  0.00    -0.391 OA
ATOM     28  H23 UNL     1      10.317   9.167  18.861  0.00  0.00    +0.210 HD
ENDBRANCH  26  27
ENDBRANCH  20  21
ENDBRANCH   4  20
TORSDOF 5
ENDMDL
MODEL 3
REMARK VINA RESULT:    -6.168      9.848     12.855
REMARK INTER + INTRA:          -8.667
REMARK INTER:                  -8.000
REMARK INTRA:                  -0.667
REMARK UNBOUND:                -0.877
REMARK  Name = /home/qwerty/github/datacon2025hack/step_04_hit_selection/docking/ligands/lig_247.pdb
REMARK  6 active torsions:
REMARK  status: ('A' for Active; 'I' for Inactive)
REMARK    1  A    between atoms: C1_1  and  C2_2
REMARK    2  A    between atoms: N1_4  and  C4_5
REMARK    3  A    between atoms: C7_8  and  N2_9
REMARK    4  A    between atoms: N3_12  and  C9_13
REMARK    5  A    between atoms: C9_13  and  C10_14
REMARK    6  A    between atoms: C15_19  and  O2_20
REMARK                            x       y       z     vdW  Elec       q    Type
REMARK                         _______ _______ _______ _____ _____    ______ ____
ROOT
ATOM      1  N2  UNL     1      21.268   2.404  24.351  0.00  0.00    -0.269 N 
ATOM      2  C8  UNL     1      20.774   3.550  23.641  0.00  0.00    +0.304 C 
ATOM      3  O1  UNL     1      20.035   4.391  24.220  0.00  0.00    -0.253 OA
ATOM      4  N3  UNL     1      21.090   3.711  22.252  0.00  0.00    -0.299 N 
ATOM      5  H9  UNL     1      21.630   1.604  23.783  0.00  0.00    +0.156 HD
ATOM      6  H10 UNL     1      21.689   2.989  21.793  0.00  0.00    +0.150 HD
ENDROOT
BRANCH   1  10
ATOM      7  C4  UNL     1      21.061   1.845  28.569  0.00  0.00    +0.030 A 
ATOM      8  C5  UNL     1      22.169   2.495  27.999  0.00  0.00    +0.025 A 
ATOM      9  C6  UNL     1      22.244   2.687  26.616  0.00  0.00    +0.025 A 
ATOM     10  C7  UNL     1      21.205   2.244  25.778  0.00  0.00    +0.035 A 
ATOM     11  C16 UNL     1      20.113   1.572  26.347  0.00  0.00    +0.025 A 
ATOM     12  C17 UNL     1      20.037   1.379  27.728  0.00  0.00    +0.025 A 
BRANCH   7  16
ATOM     13  C1  UNL     1      18.861  -0.121  32.613  0.00  0.00    +0.039 C 
ATOM     14  C2  UNL     1      19.641   1.015  31.955  0.00  0.00    +0.132 C 
ATOM     15  C3  UNL     1      20.100   0.605  30.545  0.00  0.00    +0.136 C 
ATOM     16  N1  UNL     1      20.980   1.640  29.993  0.00  0.00    -0.325 N 
ATOM     17  C18 UNL     1      22.015   2.189  30.874  0.00  0.00    +0.133 C 
ATOM     18  C19 UNL     1      21.418   2.477  32.254  0.00  0.00    +0.179 C 
ATOM     19  O3  UNL     1      20.759   1.333  32.765  0.00  0.00    -0.374 OA
ENDBRANCH   7  16
ENDBRANCH   1  10
BRANCH   4  20
ATOM     20  C9  UNL     1      20.621   4.871  21.491  0.00  0.00    +0.111 C 
BRANCH  20  21
ATOM     21  C10 UNL     1      21.801   5.709  20.949  0.00  0.00    +0.035 C 
ATOM     22  C11 UNL     1      21.569   6.116  19.465  0.00  0.00    +0.007 C 
ATOM     23  C12 UNL     1      20.946   7.511  19.343  0.00  0.00    +0.000 C 
ATOM     24  C13 UNL     1      21.859   8.595  19.949  0.00  0.00    +0.003 C 
ATOM     25  C14 UNL     1      22.744   8.077  21.099  0.00  0.00    +0.031 C 
ATOM     26  C15 UNL     1      22.063   6.938  21.871  0.00  0.00    +0.119 C 
BRANCH  26  27
ATOM     27  O2  UNL     1      22.887   6.567  22.946  0.00  0.00    -0.391 OA
ATOM     28  H23 UNL     1      23.665   6.085  22.565  0.00  0.00    +0.210 HD
ENDBRANCH  26  27
ENDBRANCH  20  21
ENDBRANCH   4  20
TORSDOF 5
ENDMDL
MODEL 4
REMARK VINA RESULT:    -6.149      1.825      9.376
REMARK INTER + INTRA:          -8.644
REMARK INTER:                  -7.961
REMARK INTRA:                  -0.683
REMARK UNBOUND:                -0.877
REMARK  Name = /home/qwerty/github/datacon2025hack/step_04_hit_selection/docking/ligands/lig_247.pdb
REMARK  6 active torsions:
REMARK  status: ('A' for Active; 'I' for Inactive)
REMARK    1  A    between atoms: C1_1  and  C2_2
REMARK    2  A    between atoms: N1_4  and  C4_5
REMARK    3  A    between atoms: C7_8  and  N2_9
REMARK    4  A    between atoms: N3_12  and  C9_13
REMARK    5  A    between atoms: C9_13  and  C10_14
REMARK    6  A    between atoms: C15_19  and  O2_20
REMARK                            x       y       z     vdW  Elec       q    Type
REMARK                         _______ _______ _______ _____ _____    ______ ____
ROOT
ATOM      1  N2  UNL     1      17.268  12.580  37.124  0.00  0.00    -0.269 N 
ATOM      2  C8  UNL     1      16.188  13.126  36.349  0.00  0.00    +0.304 C 
ATOM      3  O1  UNL     1      16.232  13.104  35.089  0.00  0.00    -0.253 OA
ATOM      4  N3  UNL     1      15.078  13.737  37.017  0.00  0.00    -0.299 N 
ATOM      5  H9  UNL     1      17.331  12.862  38.129  0.00  0.00    +0.156 HD
ATOM      6  H10 UNL     1      15.078  13.757  38.062  0.00  0.00    +0.150 HD
ENDROOT
BRANCH   1  10
ATOM      7  C4  UNL     1      20.321  10.102  35.486  0.00  0.00    +0.030 A 
ATOM      8  C5  UNL     1      20.496  11.496  35.534  0.00  0.00    +0.025 A 
ATOM      9  C6  UNL     1      19.501  12.316  36.074  0.00  0.00    +0.025 A 
ATOM     10  C7  UNL     1      18.318  11.758  36.587  0.00  0.00    +0.035 A 
ATOM     11  C16 UNL     1      18.134  10.369  36.514  0.00  0.00    +0.025 A 
ATOM     12  C17 UNL     1      19.128   9.548  35.974  0.00  0.00    +0.025 A 
BRANCH   7  16
ATOM     13  C1  UNL     1      23.569   6.309  35.840  0.00  0.00    +0.039 C 
ATOM     14  C2  UNL     1      23.195   7.679  35.278  0.00  0.00    +0.132 C 
ATOM     15  C3  UNL     1      21.729   8.012  35.607  0.00  0.00    +0.136 C 
ATOM     16  N1  UNL     1      21.340   9.251  34.927  0.00  0.00    -0.325 N 
ATOM     17  C18 UNL     1      21.738   9.407  33.524  0.00  0.00    +0.133 C 
ATOM     18  C19 UNL     1      23.195   8.970  33.350  0.00  0.00    +0.179 C 
ATOM     19  O3  UNL     1      23.397   7.671  33.876  0.00  0.00    -0.374 OA
ENDBRANCH   7  16
ENDBRANCH   1  10
BRANCH   4  20
ATOM     20  C9  UNL     1      13.948  14.293  36.270  0.00  0.00    +0.111 C 
BRANCH  20  21
ATOM     21  C10 UNL     1      12.665  13.457  36.476  0.00  0.00    +0.035 C 
ATOM     22  C11 UNL     1      11.511  13.960  35.561  0.00  0.00    +0.007 C 
ATOM     23  C12 UNL     1      11.428  13.169  34.252  0.00  0.00    +0.000 C 
ATOM     24  C13 UNL     1      11.152  11.675  34.509  0.00  0.00    +0.003 C 
ATOM     25  C14 UNL     1      11.705  11.173  35.857  0.00  0.00    +0.031 C 
ATOM     26  C15 UNL     1      12.967  11.941  36.274  0.00  0.00    +0.119 C 
BRANCH  26  27
ATOM     27  O2  UNL     1      13.459  11.386  37.466  0.00  0.00    -0.391 OA
ATOM     28  H23 UNL     1      12.881  10.611  37.689  0.00  0.00    +0.210 HD
ENDBRANCH  26  27
ENDBRANCH  20  21
ENDBRANCH   4  20
TORSDOF 5
ENDMDL
MODEL 5
REMARK VINA RESULT:    -6.112     15.628     17.064
REMARK INTER + INTRA:          -8.597
REMARK INTER:                  -7.862
REMARK INTRA:                  -0.735
REMARK UNBOUND:                -0.877
REMARK  Name = /home/qwerty/github/datacon2025hack/step_04_hit_selection/docking/ligands/lig_247.pdb
REMARK  6 active torsions:
REMARK  status: ('A' for Active; 'I' for Inactive)
REMARK    1  A    between atoms: C1_1  and  C2_2
REMARK    2  A    between atoms: N1_4  and  C4_5
REMARK    3  A    between atoms: C7_8  and  N2_9
REMARK    4  A    between atoms: N3_12  and  C9_13
REMARK    5  A    between atoms: C9_13  and  C10_14
REMARK    6  A    between atoms: C15_19  and  O2_20
REMARK                            x       y       z     vdW  Elec       q    Type
REMARK                         _______ _______ _______ _____ _____    ______ ____
ROOT
ATOM      1  N2  UNL     1      12.740   1.653  20.738  0.00  0.00    -0.269 N 
ATOM      2  C8  UNL     1      13.853   1.329  21.586  0.00  0.00    +0.304 C 
ATOM      3  O1  UNL     1      14.508   2.243  22.156  0.00  0.00    -0.253 OA
ATOM      4  N3  UNL     1      14.245  -0.039  21.746  0.00  0.00    -0.299 N 
ATOM      5  H9  UNL     1      12.408   0.915  20.075  0.00  0.00    +0.156 HD
ATOM      6  H10 UNL     1      13.696  -0.774  21.246  0.00  0.00    +0.150 HD
ENDROOT
BRANCH   1  10
ATOM      7  C4  UNL     1      10.894   5.490  20.619  0.00  0.00    +0.030 A 
ATOM      8  C5  UNL     1      12.111   5.273  19.951  0.00  0.00    +0.025 A 
ATOM      9  C6  UNL     1      12.722   4.016  19.981  0.00  0.00    +0.025 A 
ATOM     10  C7  UNL     1      12.120   2.948  20.669  0.00  0.00    +0.035 A 
ATOM     11  C16 UNL     1      10.919   3.173  21.358  0.00  0.00    +0.025 A 
ATOM     12  C17 UNL     1      10.308   4.429  21.329  0.00  0.00    +0.025 A 
BRANCH   7  16
ATOM     13  C1  UNL     1      11.056  10.458  20.025  0.00  0.00    +0.039 C 
ATOM     14  C2  UNL     1      10.468   9.229  20.714  0.00  0.00    +0.132 C 
ATOM     15  C3  UNL     1      10.959   7.942  20.028  0.00  0.00    +0.136 C 
ATOM     16  N1  UNL     1      10.261   6.784  20.597  0.00  0.00    -0.325 N 
ATOM     17  C18 UNL     1       8.813   6.896  20.796  0.00  0.00    +0.133 C 
ATOM     18  C19 UNL     1       8.483   8.256  21.419  0.00  0.00    +0.179 C 
ATOM     19  O3  UNL     1       9.054   9.307  20.663  0.00  0.00    -0.374 OA
ENDBRANCH   7  16
ENDBRANCH   1  10
BRANCH   4  20
ATOM     20  C9  UNL     1      15.364  -0.418  22.611  0.00  0.00    +0.111 C 
BRANCH  20  21
ATOM     21  C10 UNL     1      14.884  -1.229  23.837  0.00  0.00    +0.035 C 
ATOM     22  C11 UNL     1      16.055  -2.029  24.477  0.00  0.00    +0.007 C 
ATOM     23  C12 UNL     1      16.701  -1.270  25.641  0.00  0.00    +0.000 C 
ATOM     24  C13 UNL     1      15.692  -1.003  26.774  0.00  0.00    +0.003 C 
ATOM     25  C14 UNL     1      14.238  -0.873  26.281  0.00  0.00    +0.031 C 
ATOM     26  C15 UNL     1      14.171  -0.295  24.860  0.00  0.00    +0.119 C 
BRANCH  26  27
ATOM     27  O2  UNL     1      12.822  -0.133  24.504  0.00  0.00    -0.391 OA
ATOM     28  H23 UNL     1      12.472   0.636  25.024  0.00  0.00    +0.210 HD
ENDBRANCH  26  27
ENDBRANCH  20  21
ENDBRANCH   4  20
TORSDOF 5
ENDMDL
MODEL 6
REMARK VINA RESULT:    -6.101      1.814      9.541
REMARK INTER + INTRA:          -8.583
REMARK INTER:                  -7.702
REMARK INTRA:                  -0.881
REMARK UNBOUND:                -0.877
REMARK  Name = /home/qwerty/github/datacon2025hack/step_04_hit_selection/docking/ligands/lig_247.pdb
REMARK  6 active torsions:
REMARK  status: ('A' for Active; 'I' for Inactive)
REMARK    1  A    between atoms: C1_1  and  C2_2
REMARK    2  A    between atoms: N1_4  and  C4_5
REMARK    3  A    between atoms: C7_8  and  N2_9
REMARK    4  A    between atoms: N3_12  and  C9_13
REMARK    5  A    between atoms: C9_13  and  C10_14
REMARK    6  A    between atoms: C15_19  and  O2_20
REMARK                            x       y       z     vdW  Elec       q    Type
REMARK                         _______ _______ _______ _____ _____    ______ ____
ROOT
ATOM      1  N2  UNL     1      16.047  11.868  37.339  0.00  0.00    -0.269 N 
ATOM      2  C8  UNL     1      14.946  12.354  36.555  0.00  0.00    +0.304 C 
ATOM      3  O1  UNL     1      15.064  12.497  35.307  0.00  0.00    -0.253 OA
ATOM      4  N3  UNL     1      13.723  12.720  37.205  0.00  0.00    -0.299 N 
ATOM      5  H9  UNL     1      16.012  12.029  38.372  0.00  0.00    +0.156 HD
ATOM      6  H10 UNL     1      13.660  12.609  38.242  0.00  0.00    +0.150 HD
ENDROOT
BRANCH   1  10
ATOM      7  C4  UNL     1      19.612  10.146  35.768  0.00  0.00    +0.030 A 
ATOM      8  C5  UNL     1      18.533   9.322  36.130  0.00  0.00    +0.025 A 
ATOM      9  C6  UNL     1      17.358   9.878  36.642  0.00  0.00    +0.025 A 
ATOM     10  C7  UNL     1      17.234  11.271  36.790  0.00  0.00    +0.035 A 
ATOM     11  C16 UNL     1      18.322  12.090  36.452  0.00  0.00    +0.025 A 
ATOM     12  C17 UNL     1      19.498  11.534  35.941  0.00  0.00    +0.025 A 
BRANCH   7  16
ATOM     13  C1  UNL     1      22.930   9.492  32.076  0.00  0.00    +0.039 C 
ATOM     14  C2  UNL     1      22.189   8.951  33.297  0.00  0.00    +0.132 C 
ATOM     15  C3  UNL     1      21.400  10.077  33.988  0.00  0.00    +0.136 C 
ATOM     16  N1  UNL     1      20.828   9.578  35.243  0.00  0.00    -0.325 N 
ATOM     17  C18 UNL     1      21.695   8.772  36.109  0.00  0.00    +0.133 C 
ATOM     18  C19 UNL     1      22.461   7.751  35.264  0.00  0.00    +0.179 C 
ATOM     19  O3  UNL     1      23.131   8.387  34.192  0.00  0.00    -0.374 OA
ENDBRANCH   7  16
ENDBRANCH   1  10
BRANCH   4  20
ATOM     20  C9  UNL     1      12.569  13.206  36.446  0.00  0.00    +0.111 C 
BRANCH  20  21
ATOM     21  C10 UNL     1      11.479  12.117  36.311  0.00  0.00    +0.035 C 
ATOM     22  C11 UNL     1      11.501  11.470  34.896  0.00  0.00    +0.007 C 
ATOM     23  C12 UNL     1      12.332  10.183  34.865  0.00  0.00    +0.000 C 
ATOM     24  C13 UNL     1      11.759   9.116  35.817  0.00  0.00    +0.003 C 
ATOM     25  C14 UNL     1      11.025   9.711  37.035  0.00  0.00    +0.031 C 
ATOM     26  C15 UNL     1      11.621  11.063  37.451  0.00  0.00    +0.119 C 
BRANCH  26  27
ATOM     27  O2  UNL     1      10.959  11.512  38.605  0.00  0.00    -0.391 OA
ATOM     28  H23 UNL     1      11.181  10.878  39.335  0.00  0.00    +0.210 HD
ENDBRANCH  26  27
ENDBRANCH  20  21
ENDBRANCH   4  20
TORSDOF 5
ENDMDL
MODEL 7
REMARK VINA RESULT:    -6.042      1.414      1.946
REMARK INTER + INTRA:          -8.509
REMARK INTER:                  -7.887
REMARK INTRA:                  -0.622
REMARK UNBOUND:                -0.877
REMARK  Name = /home/qwerty/github/datacon2025hack/step_04_hit_selection/docking/ligands/lig_247.pdb
REMARK  6 active torsions:
REMARK  status: ('A' for Active; 'I' for Inactive)
REMARK    1  A    between atoms: C1_1  and  C2_2
REMARK    2  A    between atoms: N1_4  and  C4_5
REMARK    3  A    between atoms: C7_8  and  N2_9
REMARK    4  A    between atoms: N3_12  and  C9_13
REMARK    5  A    between atoms: C9_13  and  C10_14
REMARK    6  A    between atoms: C15_19  and  O2_20
REMARK                            x       y       z     vdW  Elec       q    Type
REMARK                         _______ _______ _______ _____ _____    ______ ____
ROOT
ATOM      1  N2  UNL     1      19.985  10.448  36.899  0.00  0.00    -0.269 N 
ATOM      2  C8  UNL     1      20.474   9.284  36.215  0.00  0.00    +0.304 C 
ATOM      3  O1  UNL     1      19.671   8.463  35.696  0.00  0.00    -0.253 OA
ATOM      4  N3  UNL     1      21.885   9.037  36.163  0.00  0.00    -0.299 N 
ATOM      5  H9  UNL     1      20.644  10.941  37.544  0.00  0.00    +0.156 HD
ATOM      6  H10 UNL     1      22.526   9.724  36.618  0.00  0.00    +0.150 HD
ENDROOT
BRANCH   1  10
ATOM      7  C4  UNL     1      15.953  11.820  36.794  0.00  0.00    +0.030 A 
ATOM      8  C5  UNL     1      16.978  12.604  36.236  0.00  0.00    +0.025 A 
ATOM      9  C6  UNL     1      18.303  12.159  36.262  0.00  0.00    +0.025 A 
ATOM     10  C7  UNL     1      18.627  10.917  36.835  0.00  0.00    +0.035 A 
ATOM     11  C16 UNL     1      17.607  10.149  37.415  0.00  0.00    +0.025 A 
ATOM     12  C17 UNL     1      16.282  10.592  37.390  0.00  0.00    +0.025 A 
BRANCH   7  16
ATOM     13  C1  UNL     1      11.028  10.961  37.042  0.00  0.00    +0.039 C 
ATOM     14  C2  UNL     1      12.202  11.759  36.480  0.00  0.00    +0.132 C 
ATOM     15  C3  UNL     1      13.503  11.388  37.214  0.00  0.00    +0.136 C 
ATOM     16  N1  UNL     1      14.586  12.274  36.775  0.00  0.00    -0.325 N 
ATOM     17  C18 UNL     1      14.289  13.706  36.672  0.00  0.00    +0.133 C 
ATOM     18  C19 UNL     1      12.936  13.904  35.985  0.00  0.00    +0.179 C 
ATOM     19  O3  UNL     1      11.930  13.142  36.627  0.00  0.00    -0.374 OA
ENDBRANCH   7  16
ENDBRANCH   1  10
BRANCH   4  20
ATOM     20  C9  UNL     1      22.431   7.872  35.464  0.00  0.00    +0.111 C 
BRANCH  20  21
ATOM     21  C10 UNL     1      23.257   8.289  34.226  0.00  0.00    +0.035 C 
ATOM     22  C11 UNL     1      24.191   7.136  33.756  0.00  0.00    +0.007 C 
ATOM     23  C12 UNL     1      23.553   6.297  32.644  0.00  0.00    +0.000 C 
ATOM     24  C13 UNL     1      23.255   7.145  31.393  0.00  0.00    +0.003 C 
ATOM     25  C14 UNL     1      22.969   8.626  31.711  0.00  0.00    +0.031 C 
ATOM     26  C15 UNL     1      22.316   8.794  33.090  0.00  0.00    +0.119 C 
BRANCH  26  27
ATOM     27  O2  UNL     1      22.015  10.152  33.284  0.00  0.00    -0.391 OA
ATOM     28  H23 UNL     1      21.164  10.334  32.808  0.00  0.00    +0.210 HD
ENDBRANCH  26  27
ENDBRANCH  20  21
ENDBRANCH   4  20
TORSDOF 5
ENDMDL
MODEL 8
REMARK VINA RESULT:    -6.025     15.404     16.938
REMARK INTER + INTRA:          -8.486
REMARK INTER:                  -7.930
REMARK INTRA:                  -0.556
REMARK UNBOUND:                -0.877
REMARK  Name = /home/qwerty/github/datacon2025hack/step_04_hit_selection/docking/ligands/lig_247.pdb
REMARK  6 active torsions:
REMARK  status: ('A' for Active; 'I' for Inactive)
REMARK    1  A    between atoms: C1_1  and  C2_2
REMARK    2  A    between atoms: N1_4  and  C4_5
REMARK    3  A    between atoms: C7_8  and  N2_9
REMARK    4  A    between atoms: N3_12  and  C9_13
REMARK    5  A    between atoms: C9_13  and  C10_14
REMARK    6  A    between atoms: C15_19  and  O2_20
REMARK                            x       y       z     vdW  Elec       q    Type
REMARK                         _______ _______ _______ _____ _____    ______ ____
ROOT
ATOM      1  N2  UNL     1      16.925   7.190  18.795  0.00  0.00    -0.269 N 
ATOM      2  C8  UNL     1      16.671   6.294  19.889  0.00  0.00    +0.304 C 
ATOM      3  O1  UNL     1      17.350   6.372  20.949  0.00  0.00    -0.253 OA
ATOM      4  N3  UNL     1      15.668   5.280  19.754  0.00  0.00    -0.299 N 
ATOM      5  H9  UNL     1      16.552   6.921  17.855  0.00  0.00    +0.156 HD
ATOM      6  H10 UNL     1      15.134   5.227  18.857  0.00  0.00    +0.150 HD
ENDROOT
BRANCH   1  10
ATOM      7  C4  UNL     1      19.312  10.701  19.139  0.00  0.00    +0.030 A 
ATOM      8  C5  UNL     1      19.870   9.518  18.624  0.00  0.00    +0.025 A 
ATOM      9  C6  UNL     1      19.093   8.363  18.503  0.00  0.00    +0.025 A 
ATOM     10  C7  UNL     1      17.739   8.371  18.883  0.00  0.00    +0.035 A 
ATOM     11  C16 UNL     1      17.192   9.544  19.422  0.00  0.00    +0.025 A 
ATOM     12  C17 UNL     1      17.967  10.700  19.543  0.00  0.00    +0.025 A 
BRANCH   7  16
ATOM     13  C1  UNL     1      19.914  15.450  20.604  0.00  0.00    +0.039 C 
ATOM     14  C2  UNL     1      20.216  14.324  19.618  0.00  0.00    +0.132 C 
ATOM     15  C3  UNL     1      19.671  12.986  20.147  0.00  0.00    +0.136 C 
ATOM     16  N1  UNL     1      20.108  11.894  19.271  0.00  0.00    -0.325 N 
ATOM     17  C18 UNL     1      21.508  11.894  18.836  0.00  0.00    +0.133 C 
ATOM     18  C19 UNL     1      21.915  13.307  18.409  0.00  0.00    +0.179 C 
ATOM     19  O3  UNL     1      21.617  14.245  19.426  0.00  0.00    -0.374 OA
ENDBRANCH   7  16
ENDBRANCH   1  10
BRANCH   4  20
ATOM     20  C9  UNL     1      15.365   4.355  20.847  0.00  0.00    +0.111 C 
BRANCH  20  21
ATOM     21  C10 UNL     1      16.316   3.136  20.841  0.00  0.00    +0.035 C 
ATOM     22  C11 UNL     1      17.129   3.048  22.164  0.00  0.00    +0.007 C 
ATOM     23  C12 UNL     1      16.468   2.116  23.184  0.00  0.00    +0.000 C 
ATOM     24  C13 UNL     1      16.360   0.675  22.650  0.00  0.00    +0.003 C 
ATOM     25  C14 UNL     1      16.238   0.599  21.115  0.00  0.00    +0.031 C 
ATOM     26  C15 UNL     1      15.521   1.829  20.541  0.00  0.00    +0.119 C 
BRANCH  26  27
ATOM     27  O2  UNL     1      15.378   1.661  19.154  0.00  0.00    -0.391 OA
ATOM     28  H23 UNL     1      15.723   0.758  18.932  0.00  0.00    +0.210 HD
ENDBRANCH  26  27
ENDBRANCH  20  21
ENDBRANCH   4  20
TORSDOF 5
ENDMDL
MODEL 9
REMARK VINA RESULT:    -5.864     15.292     16.606
REMARK INTER + INTRA:          -8.283
REMARK INTER:                  -7.480
REMARK INTRA:                  -0.804
REMARK UNBOUND:                -0.877
REMARK  Name = /home/qwerty/github/datacon2025hack/step_04_hit_selection/docking/ligands/lig_247.pdb
REMARK  6 active torsions:
REMARK  status: ('A' for Active; 'I' for Inactive)
REMARK    1  A    between atoms: C1_1  and  C2_2
REMARK    2  A    between atoms: N1_4  and  C4_5
REMARK    3  A    between atoms: C7_8  and  N2_9
REMARK    4  A    between atoms: N3_12  and  C9_13
REMARK    5  A    between atoms: C9_13  and  C10_14
REMARK    6  A    between atoms: C15_19  and  O2_20
REMARK                            x       y       z     vdW  Elec       q    Type
REMARK                         _______ _______ _______ _____ _____    ______ ____
ROOT
ATOM      1  N2  UNL     1      11.375   2.870  20.639  0.00  0.00    -0.269 N 
ATOM      2  C8  UNL     1      12.769   2.530  20.687  0.00  0.00    +0.304 C 
ATOM      3  O1  UNL     1      13.645   3.435  20.752  0.00  0.00    -0.253 OA
ATOM      4  N3  UNL     1      13.164   1.155  20.616  0.00  0.00    -0.299 N 
ATOM      5  H9  UNL     1      10.710   2.134  20.307  0.00  0.00    +0.156 HD
ATOM      6  H10 UNL     1      12.417   0.428  20.544  0.00  0.00    +0.150 HD
ENDROOT
BRANCH   1  10
ATOM      7  C4  UNL     1       9.860   6.749  21.536  0.00  0.00    +0.030 A 
ATOM      8  C5  UNL     1      10.335   6.460  20.245  0.00  0.00    +0.025 A 
ATOM      9  C6  UNL     1      10.829   5.189  19.941  0.00  0.00    +0.025 A 
ATOM     10  C7  UNL     1      10.847   4.178  20.918  0.00  0.00    +0.035 A 
ATOM     11  C16 UNL     1      10.398   4.477  22.213  0.00  0.00    +0.025 A 
ATOM     12  C17 UNL     1       9.904   5.747  22.519  0.00  0.00    +0.025 A 
BRANCH   7  16
ATOM     13  C1  UNL     1       7.508   9.924  24.611  0.00  0.00    +0.039 C 
ATOM     14  C2  UNL     1       7.841   9.459  23.195  0.00  0.00    +0.132 C 
ATOM     15  C3  UNL     1       8.934   8.377  23.228  0.00  0.00    +0.136 C 
ATOM     16  N1  UNL     1       9.354   8.059  21.859  0.00  0.00    -0.325 N 
ATOM     17  C18 UNL     1       9.584   9.181  20.943  0.00  0.00    +0.133 C 
ATOM     18  C19 UNL     1       8.450  10.200  21.082  0.00  0.00    +0.179 C 
ATOM     19  O3  UNL     1       8.273  10.574  22.435  0.00  0.00    -0.374 OA
ENDBRANCH   7  16
ENDBRANCH   1  10
BRANCH   4  20
ATOM     20  C9  UNL     1      14.572   0.759  20.676  0.00  0.00    +0.111 C 
BRANCH  20  21
ATOM     21  C10 UNL     1      15.064   0.631  22.136  0.00  0.00    +0.035 C 
ATOM     22  C11 UNL     1      15.339  -0.854  22.510  0.00  0.00    +0.007 C 
ATOM     23  C12 UNL     1      16.813  -1.230  22.323  0.00  0.00    +0.000 C 
ATOM     24  C13 UNL     1      17.733  -0.383  23.223  0.00  0.00    +0.003 C 
ATOM     25  C14 UNL     1      17.169   1.019  23.528  0.00  0.00    +0.031 C 
ATOM     26  C15 UNL     1      16.304   1.545  22.374  0.00  0.00    +0.119 C 
BRANCH  26  27
ATOM     27  O2  UNL     1      15.887   2.850  22.683  0.00  0.00    -0.391 OA
ATOM     28  H23 UNL     1      16.083   3.415  21.892  0.00  0.00    +0.210 HD
ENDBRANCH  26  27
ENDBRANCH  20  21
ENDBRANCH   4  20
TORSDOF 5
ENDMDL
