REMARK  Name = /home/qwerty/github/datacon2025hack/step_04_hit_selection/docking/ligands/lig_248.pdb
REMARK  7 active torsions:
REMARK  status: ('A' for Active; 'I' for Inactive)
REMARK    1  A    between atoms: C1_1  and  C2_2
REMARK    2  A    between atoms: C2_2  and  C3_3
REMARK    3  A    between atoms: C2_2  and  C4_4
REMARK    4  A    between atoms: C12_16  and  C13_17
REMARK    5  A    between atoms: C16_22  and  C17_23
REMARK    6  A    between atoms: C17_23  and  C18_24
REMARK    7  A    between atoms: C17_23  and  C19_25
REMARK                            x       y       z     vdW  Elec       q    Type
REMARK                         _______ _______ _______ _____ _____    ______ ____
ROOT
ATOM      1  C4  UNL     1      -2.658   0.748   0.845  0.00  0.00    +0.049 A 
ATOM      2  C5  UNL     1      -1.261   0.847   0.848  0.00  0.00    +0.067 A 
ATOM      3  C6  UNL     1      -0.519  -0.005   0.015  0.00  0.00    +0.125 A 
ATOM      4  N1  UNL     1       0.921   0.051  -0.024  0.00  0.00    -0.312 N 
ATOM      5  C7  UNL     1       1.637   1.311   0.238  0.00  0.00    +0.125 C 
ATOM      6  C8  UNL     1       2.884   1.413  -0.645  0.00  0.00    +0.125 C 
ATOM      7  N2  UNL     1       3.642   0.160  -0.572  0.00  0.00    -0.310 N 
ATOM      8  C9  UNL     1       4.857   0.090   0.194  0.00  0.00    +0.158 A 
ATOM      9  N3  UNL     1       4.927  -0.741   1.270  0.00  0.00    -0.236 NA
ATOM     10  C10 UNL     1       6.052  -0.838   2.024  0.00  0.00    +0.132 A 
ATOM     11  C11 UNL     1       7.169  -0.073   1.688  0.00  0.00    +0.132 A 
ATOM     12  N4  UNL     1       7.115   0.748   0.607  0.00  0.00    -0.240 NA
ATOM     13  C12 UNL     1       5.992   0.851  -0.151  0.00  0.00    +0.180 A 
ATOM     14  C14 UNL     1       2.922  -1.066  -0.920  0.00  0.00    +0.125 C 
ATOM     15  C15 UNL     1       1.690  -1.204  -0.027  0.00  0.00    +0.125 C 
ATOM     16  N6  UNL     1      -1.177  -0.909  -0.761  0.00  0.00    -0.217 NA
ATOM     17  C16 UNL     1      -2.533  -0.999  -0.754  0.00  0.00    +0.134 A 
ATOM     18  N7  UNL     1      -3.259  -0.174   0.045  0.00  0.00    -0.236 NA
ENDROOT
BRANCH   1  20
ATOM     19  C1  UNL     1      -4.474   2.465   0.883  0.00  0.00    +0.014 C 
ATOM     20  C2  UNL     1      -3.501   1.636   1.728  0.00  0.00    +0.032 C 
ATOM     21  C3  UNL     1      -4.256   0.797   2.764  0.00  0.00    +0.014 C 
ENDBRANCH   1  20
BRANCH  17  22
ATOM     22  C17 UNL     1      -3.222  -2.013  -1.626  0.00  0.00    +0.051 C 
ATOM     23  C18 UNL     1      -3.998  -3.018  -0.769  0.00  0.00    +0.015 C 
ATOM     24  C19 UNL     1      -4.148  -1.319  -2.630  0.00  0.00    +0.015 C 
ENDBRANCH  17  22
BRANCH  13  25
ATOM     25  C13 UNL     1       6.010   1.698  -1.315  0.00  0.00    +0.123 C 
ATOM     26  N5  UNL     1       6.024   2.379  -2.251  0.00  0.00    -0.189 NA
ENDBRANCH  13  25
TORSDOF 3
