REMARK  Name = /home/qwerty/github/datacon2025hack/step_04_hit_selection/docking/ligands/lig_496.pdb
REMARK  7 active torsions:
REMARK  status: ('A' for Active; 'I' for Inactive)
REMARK    1  A    between atoms: C1_1  and  C2_2
REMARK    2  A    between atoms: C2_2  and  C3_3
REMARK    3  A    between atoms: C2_2  and  C4_4
REMARK    4  A    between atoms: C6_8  and  C7_9
REMARK    5  A    between atoms: C7_9  and  N2_10
REMARK    6  A    between atoms: C13_17  and  C14_19
REMARK    7  A    between atoms: N5_22  and  C16_23
REMARK                            x       y       z     vdW  Elec       q    Type
REMARK                         _______ _______ _______ _____ _____    ______ ____
ROOT
ATOM      1  N2  UNL     1       0.570  -1.218   0.598  0.00  0.00    -0.290 NA
ATOM      2  C8  UNL     1       0.204  -2.249  -0.396  0.00  0.00    +0.107 C 
ATOM      3  C9  UNL     1      -0.580  -1.459  -1.454  0.00  0.00    +0.092 C 
ATOM      4  C10 UNL     1       0.255  -0.210  -1.526  0.00  0.00    +0.044 C 
ATOM      5  C11 UNL     1       0.135   0.046  -0.033  0.00  0.00    +0.076 C 
ATOM      6  C12 UNL     1      -1.393   0.088   0.117  0.00  0.00    +0.127 C 
ATOM      7  N3  UNL     1      -1.801  -0.963  -0.816  0.00  0.00    -0.289 N 
ATOM      8  C13 UNL     1      -3.056  -1.664  -0.806  0.00  0.00    +0.286 C 
ATOM      9  O2  UNL     1      -3.140  -2.789  -1.369  0.00  0.00    -0.267 OA
ENDROOT
BRANCH   8  10
ATOM     10  C14 UNL     1      -4.261  -1.099  -0.171  0.00  0.00    +0.236 A 
ATOM     11  N4  UNL     1      -5.428  -1.776  -0.066  0.00  0.00    -0.211 NA
ATOM     12  C15 UNL     1      -6.228  -0.880   0.543  0.00  0.00    +0.219 A 
ATOM     13  N5  UNL     1      -5.571   0.264   0.792  0.00  0.00    -0.254 N 
ATOM     14  C16 UNL     1      -6.127   1.482   1.364  0.00  0.00    +0.174 C 
ATOM     15  N6  UNL     1      -4.339   0.148   0.334  0.00  0.00    -0.145 NA
ENDBRANCH   8  10
BRANCH   1  16
ATOM     16  C7  UNL     1       1.973  -1.259   1.070  0.00  0.00    +0.143 C 
BRANCH  16  21
ATOM     17  C4  UNL     1       3.645   0.297  -0.180  0.00  0.00    +0.132 A 
ATOM     18  O1  UNL     1       4.474   0.143  -1.183  0.00  0.00    -0.447 OA
ATOM     19  C5  UNL     1       4.369  -1.101  -1.592  0.00  0.00    +0.308 A 
ATOM     20  N1  UNL     1       3.473  -1.807  -0.872  0.00  0.00    -0.220 NA
ATOM     21  C6  UNL     1       3.006  -0.916   0.024  0.00  0.00    +0.097 A 
BRANCH  17  23
ATOM     22  C1  UNL     1       3.144   2.730  -0.363  0.00  0.00    +0.015 C 
ATOM     23  C2  UNL     1       3.495   1.584   0.590  0.00  0.00    +0.051 C 
ATOM     24  C3  UNL     1       4.786   1.888   1.354  0.00  0.00    +0.015 C 
ENDBRANCH  17  23
ENDBRANCH  16  21
ENDBRANCH   1  16
TORSDOF 4
