REMARK  Name = /home/qwerty/github/datacon2025hack/step_04_hit_selection/docking/ligands/lig_602.pdb
REMARK  5 active torsions:
REMARK  status: ('A' for Active; 'I' for Inactive)
REMARK    1  A    between atoms: C1_1  and  C2_2
REMARK    2  A    between atoms: C4_4  and  N1_5
REMARK    3  A    between atoms: C7_8  and  N2_9
REMARK    4  A    between atoms: C11_15  and  O2_16
REMARK    5  A    between atoms: N4_24  and  C18_25
REMARK                            x       y       z     vdW  Elec       q    Type
REMARK                         _______ _______ _______ _____ _____    ______ ____
ROOT
ATOM      1  N2  UNL     1      -0.498  -0.592  -1.264  0.00  0.00    -0.288 N 
ATOM      2  C8  UNL     1      -1.716  -0.380  -1.993  0.00  0.00    +0.303 C 
ATOM      3  O1  UNL     1      -1.704  -0.398  -3.254  0.00  0.00    -0.253 OA
ATOM      4  N3  UNL     1      -2.965  -0.183  -1.302  0.00  0.00    -0.280 N 
ATOM      5  C9  UNL     1      -4.066  -1.106  -1.604  0.00  0.00    +0.112 C 
ATOM      6  C10 UNL     1      -4.195  -2.127  -0.467  0.00  0.00    +0.050 C 
ATOM      7  C11 UNL     1      -4.378  -1.422   0.893  0.00  0.00    +0.118 C 
ATOM      8  C12 UNL     1      -3.237  -0.422   1.160  0.00  0.00    +0.057 C 
ATOM      9  C13 UNL     1      -3.070   0.556  -0.026  0.00  0.00    +0.041 C 
ATOM     10  C14 UNL     1      -2.016   1.655   0.200  0.00  0.00    +0.026 C 
ATOM     11  C15 UNL     1      -3.110   2.713   0.188  0.00  0.00    +0.004 C 
ATOM     12  C16 UNL     1      -4.158   1.642  -0.076  0.00  0.00    +0.026 C 
ATOM     13  H10 UNL     1      -0.550  -0.726  -0.230  0.00  0.00    +0.151 HD
ENDROOT
BRANCH   1  17
ATOM     14  N1  UNL     1       2.731   0.039  -0.646  0.00  0.00    -0.255 N 
ATOM     15  C5  UNL     1       2.309   1.224  -1.375  0.00  0.00    +0.117 C 
ATOM     16  C6  UNL     1       1.257   0.744  -2.391  0.00  0.00    +0.051 C 
ATOM     17  C7  UNL     1       0.805  -0.654  -1.933  0.00  0.00    +0.162 C 
ATOM     18  C17 UNL     1       1.865  -1.035  -0.972  0.00  0.00    +0.241 C 
ATOM     19  O3  UNL     1       1.961  -2.183  -0.460  0.00  0.00    -0.273 OA
BRANCH  14  23
ATOM     20  C1  UNL     1       6.925  -1.710   1.411  0.00  0.00    +0.067 C 
ATOM     21  C2  UNL     1       5.803  -0.830   0.973  0.00  0.00    +0.062 A 
ATOM     22  C3  UNL     1       4.747  -1.211   0.167  0.00  0.00    +0.068 A 
ATOM     23  C4  UNL     1       3.956  -0.081   0.101  0.00  0.00    +0.126 A 
ATOM     24  N4  UNL     1       4.519   0.896   0.848  0.00  0.00    -0.253 N 
ATOM     25  C18 UNL     1       3.999   2.234   1.105  0.00  0.00    +0.174 C 
ATOM     26  N5  UNL     1       5.639   0.442   1.388  0.00  0.00    -0.175 NA
ENDBRANCH  14  23
ENDBRANCH   1  17
BRANCH   7  27
ATOM     27  O2  UNL     1      -4.399  -2.375   1.923  0.00  0.00    -0.392 OA
ATOM     28  H16 UNL     1      -5.282  -2.827   1.877  0.00  0.00    +0.210 HD
ENDBRANCH   7  27
TORSDOF 3
