MODEL 1
REMARK VINA RESULT:    -6.836      0.000      0.000
REMARK INTER + INTRA:          -9.579
REMARK INTER:                  -8.834
REMARK INTRA:                  -0.745
REMARK UNBOUND:                -0.745
REMARK  Name = /home/qwerty/github/datacon2025hack/step_04_hit_selection/docking/ligands/lig_652.pdb
REMARK  8 active torsions:
REMARK  status: ('A' for Active; 'I' for Inactive)
REMARK    1  A    between atoms: C1_1  and  C2_2
REMARK    2  A    between atoms: C5_5  and  C6_6
REMARK    3  A    between atoms: C12_14  and  N2_15
REMARK    4  A    between atoms: C13_16  and  C14_18
REMARK    5  A    between atoms: N3_20  and  C15_21
REMARK    6  A    between atoms: C18_25  and  C19_26
REMARK    7  A    between atoms: C19_26  and  C20_27
REMARK    8  A    between atoms: C19_26  and  C21_28
REMARK                            x       y       z     vdW  Elec       q    Type
REMARK                         _______ _______ _______ _____ _____    ______ ____
ROOT
ATOM      1  N2  UNL     1      24.388  13.196  22.153  0.00  0.00    -0.277 N 
ATOM      2  C13 UNL     1      23.353  12.753  21.260  0.00  0.00    +0.303 C 
ATOM      3  O1  UNL     1      22.170  13.162  21.415  0.00  0.00    -0.265 OA
ATOM      4  H10 UNL     1      25.300  12.684  22.168  0.00  0.00    +0.155 HD
ENDROOT
BRANCH   1  11
ATOM      5  C1  UNL     1      25.092  16.034  21.655  0.00  0.00    +0.045 C 
ATOM      6  C2  UNL     1      24.480  15.553  22.944  0.00  0.00    -0.029 A 
ATOM      7  C3  UNL     1      24.212  16.488  23.955  0.00  0.00    +0.006 A 
ATOM      8  C4  UNL     1      23.686  16.079  25.181  0.00  0.00    +0.009 A 
ATOM      9  C5  UNL     1      23.415  14.723  25.425  0.00  0.00    -0.015 A 
ATOM     10  C11 UNL     1      23.661  13.787  24.406  0.00  0.00    +0.032 A 
ATOM     11  C12 UNL     1      24.163  14.192  23.161  0.00  0.00    +0.037 A 
BRANCH   9  12
ATOM     12  C6  UNL     1      22.870  14.286  26.736  0.00  0.00    +0.003 A 
ATOM     13  C7  UNL     1      21.486  14.311  26.988  0.00  0.00    +0.119 A 
ATOM     14  N1  UNL     1      20.999  13.911  28.194  0.00  0.00    -0.260 NA
ATOM     15  C8  UNL     1      21.817  13.475  29.187  0.00  0.00    +0.149 A 
ATOM     16  C9  UNL     1      23.198  13.430  28.985  0.00  0.00    +0.142 A 
ATOM     17  F1  UNL     1      24.018  12.992  29.972  0.00  0.00    -0.204 F 
ATOM     18  C10 UNL     1      23.724  13.837  27.758  0.00  0.00    +0.050 A 
ENDBRANCH   9  12
ENDBRANCH   1  11
BRANCH   2  19
ATOM     19  C14 UNL     1      23.661  11.808  20.170  0.00  0.00    +0.300 C 
ATOM     20  O2  UNL     1      23.762  12.235  18.988  0.00  0.00    -0.265 OA
ATOM     21  N3  UNL     1      23.834  10.407  20.446  0.00  0.00    -0.305 N 
ATOM     22  H11 UNL     1      23.619  10.063  21.408  0.00  0.00    +0.149 HD
BRANCH  21  23
ATOM     23  C15 UNL     1      24.187   9.445  19.393  0.00  0.00    +0.078 C 
ATOM     24  C16 UNL     1      25.530   8.762  19.708  0.00  0.00    +0.050 C 
ATOM     25  C17 UNL     1      25.366   7.729  20.829  0.00  0.00    +0.162 C 
ATOM     26  O3  UNL     1      24.396   6.757  20.482  0.00  0.00    -0.376 OA
ATOM     27  C18 UNL     1      23.115   7.358  20.381  0.00  0.00    +0.123 C 
ATOM     28  C22 UNL     1      23.088   8.380  19.219  0.00  0.00    +0.054 C 
BRANCH  27  29
ATOM     29  C19 UNL     1      22.027   6.264  20.219  0.00  0.00    +0.012 C 
ATOM     30  C20 UNL     1      22.189   5.545  18.870  0.00  0.00    +0.010 C 
ATOM     31  C21 UNL     1      20.596   6.815  20.345  0.00  0.00    +0.010 C 
ENDBRANCH  27  29
ENDBRANCH  21  23
ENDBRANCH   2  19
TORSDOF 5
ENDMDL
MODEL 2
REMARK VINA RESULT:    -6.727     12.823     14.884
REMARK INTER + INTRA:          -9.438
REMARK INTER:                  -8.704
REMARK INTRA:                  -0.733
REMARK UNBOUND:                -0.745
REMARK  Name = /home/qwerty/github/datacon2025hack/step_04_hit_selection/docking/ligands/lig_652.pdb
REMARK  8 active torsions:
REMARK  status: ('A' for Active; 'I' for Inactive)
REMARK    1  A    between atoms: C1_1  and  C2_2
REMARK    2  A    between atoms: C5_5  and  C6_6
REMARK    3  A    between atoms: C12_14  and  N2_15
REMARK    4  A    between atoms: C13_16  and  C14_18
REMARK    5  A    between atoms: N3_20  and  C15_21
REMARK    6  A    between atoms: C18_25  and  C19_26
REMARK    7  A    between atoms: C19_26  and  C20_27
REMARK    8  A    between atoms: C19_26  and  C21_28
REMARK                            x       y       z     vdW  Elec       q    Type
REMARK                         _______ _______ _______ _____ _____    ______ ____
ROOT
ATOM      1  N2  UNL     1       8.243  10.856  26.367  0.00  0.00    -0.277 N 
ATOM      2  C13 UNL     1       8.892  10.046  25.373  0.00  0.00    +0.303 C 
ATOM      3  O1  UNL     1       9.945   9.416  25.664  0.00  0.00    -0.265 OA
ATOM      4  H10 UNL     1       7.521  11.551  26.066  0.00  0.00    +0.155 HD
ENDROOT
BRANCH   1  11
ATOM      5  C1  UNL     1       7.124   8.957  28.352  0.00  0.00    +0.045 C 
ATOM      6  C2  UNL     1       8.164   9.990  28.698  0.00  0.00    -0.029 A 
ATOM      7  C3  UNL     1       8.643  10.052  30.015  0.00  0.00    +0.006 A 
ATOM      8  C4  UNL     1       9.574  11.021  30.389  0.00  0.00    +0.009 A 
ATOM      9  C5  UNL     1      10.049  11.953  29.452  0.00  0.00    -0.015 A 
ATOM     10  C11 UNL     1       9.588  11.880  28.127  0.00  0.00    +0.032 A 
ATOM     11  C12 UNL     1       8.674  10.892  27.735  0.00  0.00    +0.037 A 
BRANCH   9  12
ATOM     12  C6  UNL     1      11.028  12.996  29.855  0.00  0.00    +0.003 A 
ATOM     13  C7  UNL     1      12.011  13.450  28.957  0.00  0.00    +0.119 A 
ATOM     14  N1  UNL     1      12.904  14.403  29.337  0.00  0.00    -0.260 NA
ATOM     15  C8  UNL     1      12.880  14.950  30.581  0.00  0.00    +0.149 A 
ATOM     16  C9  UNL     1      11.922  14.535  31.507  0.00  0.00    +0.142 A 
ATOM     17  F1  UNL     1      11.892  15.079  32.748  0.00  0.00    -0.204 F 
ATOM     18  C10 UNL     1      10.997  13.556  31.144  0.00  0.00    +0.050 A 
ENDBRANCH   9  12
ENDBRANCH   1  11
BRANCH   2  19
ATOM     19  C14 UNL     1       8.345   9.960  24.006  0.00  0.00    +0.300 C 
ATOM     20  O2  UNL     1       7.204  10.441  23.763  0.00  0.00    -0.265 OA
ATOM     21  N3  UNL     1       9.096   9.324  22.958  0.00  0.00    -0.305 N 
ATOM     22  H11 UNL     1       9.976   8.825  23.214  0.00  0.00    +0.149 HD
BRANCH  21  23
ATOM     23  C15 UNL     1       8.603   9.261  21.576  0.00  0.00    +0.078 C 
ATOM     24  C16 UNL     1       9.774   9.140  20.585  0.00  0.00    +0.050 C 
ATOM     25  C17 UNL     1      10.368   7.727  20.613  0.00  0.00    +0.162 C 
ATOM     26  O3  UNL     1       9.379   6.758  20.316  0.00  0.00    -0.376 OA
ATOM     27  C18 UNL     1       8.394   6.735  21.338  0.00  0.00    +0.123 C 
ATOM     28  C22 UNL     1       7.631   8.081  21.382  0.00  0.00    +0.054 C 
BRANCH  27  29
ATOM     29  C19 UNL     1       7.438   5.532  21.126  0.00  0.00    +0.012 C 
ATOM     30  C20 UNL     1       6.066   6.020  20.636  0.00  0.00    +0.010 C 
ATOM     31  C21 UNL     1       7.262   4.674  22.391  0.00  0.00    +0.010 C 
ENDBRANCH  27  29
ENDBRANCH  21  23
ENDBRANCH   2  19
TORSDOF 5
ENDMDL
MODEL 3
REMARK VINA RESULT:    -6.667     11.771     15.468
REMARK INTER + INTRA:          -9.361
REMARK INTER:                  -8.520
REMARK INTRA:                  -0.841
REMARK UNBOUND:                -0.745
REMARK  Name = /home/qwerty/github/datacon2025hack/step_04_hit_selection/docking/ligands/lig_652.pdb
REMARK  8 active torsions:
REMARK  status: ('A' for Active; 'I' for Inactive)
REMARK    1  A    between atoms: C1_1  and  C2_2
REMARK    2  A    between atoms: C5_5  and  C6_6
REMARK    3  A    between atoms: C12_14  and  N2_15
REMARK    4  A    between atoms: C13_16  and  C14_18
REMARK    5  A    between atoms: N3_20  and  C15_21
REMARK    6  A    between atoms: C18_25  and  C19_26
REMARK    7  A    between atoms: C19_26  and  C20_27
REMARK    8  A    between atoms: C19_26  and  C21_28
REMARK                            x       y       z     vdW  Elec       q    Type
REMARK                         _______ _______ _______ _____ _____    ______ ____
ROOT
ATOM      1  N2  UNL     1      18.414  10.682  35.462  0.00  0.00    -0.277 N 
ATOM      2  C13 UNL     1      18.556  12.084  35.743  0.00  0.00    +0.303 C 
ATOM      3  O1  UNL     1      19.502  12.486  36.474  0.00  0.00    -0.265 OA
ATOM      4  H10 UNL     1      17.513  10.332  35.060  0.00  0.00    +0.155 HD
ENDROOT
BRANCH   1  11
ATOM      5  C1  UNL     1      18.107   9.267  38.050  0.00  0.00    +0.045 C 
ATOM      6  C2  UNL     1      19.251   9.012  37.105  0.00  0.00    -0.029 A 
ATOM      7  C3  UNL     1      20.212   8.050  37.450  0.00  0.00    +0.006 A 
ATOM      8  C4  UNL     1      21.311   7.814  36.624  0.00  0.00    +0.009 A 
ATOM      9  C5  UNL     1      21.476   8.536  35.431  0.00  0.00    -0.015 A 
ATOM     10  C11 UNL     1      20.504   9.484  35.072  0.00  0.00    +0.032 A 
ATOM     11  C12 UNL     1      19.381   9.708  35.881  0.00  0.00    +0.037 A 
BRANCH   9  12
ATOM     12  C6  UNL     1      22.656   8.296  34.560  0.00  0.00    +0.003 A 
ATOM     13  C7  UNL     1      23.482   7.174  34.756  0.00  0.00    +0.119 A 
ATOM     14  N1  UNL     1      24.561   6.966  33.955  0.00  0.00    -0.260 NA
ATOM     15  C8  UNL     1      24.877   7.818  32.944  0.00  0.00    +0.149 A 
ATOM     16  C9  UNL     1      24.086   8.943  32.708  0.00  0.00    +0.142 A 
ATOM     17  F1  UNL     1      24.395   9.795  31.699  0.00  0.00    -0.204 F 
ATOM     18  C10 UNL     1      22.975   9.182  33.518  0.00  0.00    +0.050 A 
ENDBRANCH   9  12
ENDBRANCH   1  11
BRANCH   2  19
ATOM     19  C14 UNL     1      17.592  13.057  35.196  0.00  0.00    +0.300 C 
ATOM     20  O2  UNL     1      18.016  14.095  34.620  0.00  0.00    -0.265 OA
ATOM     21  N3  UNL     1      16.177  12.834  35.326  0.00  0.00    -0.305 N 
ATOM     22  H11 UNL     1      15.854  12.035  35.916  0.00  0.00    +0.149 HD
BRANCH  21  23
ATOM     23  C15 UNL     1      15.188  13.757  34.753  0.00  0.00    +0.078 C 
ATOM     24  C16 UNL     1      14.732  13.274  33.365  0.00  0.00    +0.050 C 
ATOM     25  C17 UNL     1      13.786  12.074  33.490  0.00  0.00    +0.162 C 
ATOM     26  O3  UNL     1      12.660  12.400  34.285  0.00  0.00    -0.376 OA
ATOM     27  C18 UNL     1      13.062  12.658  35.620  0.00  0.00    +0.123 C 
ATOM     28  C22 UNL     1      13.967  13.912  35.679  0.00  0.00    +0.054 C 
BRANCH  27  29
ATOM     29  C19 UNL     1      11.815  12.798  36.533  0.00  0.00    +0.012 C 
ATOM     30  C20 UNL     1      11.474  11.447  37.182  0.00  0.00    +0.010 C 
ATOM     31  C21 UNL     1      10.583  13.342  35.788  0.00  0.00    +0.010 C 
ENDBRANCH  27  29
ENDBRANCH  21  23
ENDBRANCH   2  19
TORSDOF 5
ENDMDL
MODEL 4
REMARK VINA RESULT:    -6.648     13.387     16.080
REMARK INTER + INTRA:          -9.335
REMARK INTER:                  -8.550
REMARK INTRA:                  -0.785
REMARK UNBOUND:                -0.745
REMARK  Name = /home/qwerty/github/datacon2025hack/step_04_hit_selection/docking/ligands/lig_652.pdb
REMARK  8 active torsions:
REMARK  status: ('A' for Active; 'I' for Inactive)
REMARK    1  A    between atoms: C1_1  and  C2_2
REMARK    2  A    between atoms: C5_5  and  C6_6
REMARK    3  A    between atoms: C12_14  and  N2_15
REMARK    4  A    between atoms: C13_16  and  C14_18
REMARK    5  A    between atoms: N3_20  and  C15_21
REMARK    6  A    between atoms: C18_25  and  C19_26
REMARK    7  A    between atoms: C19_26  and  C20_27
REMARK    8  A    between atoms: C19_26  and  C21_28
REMARK                            x       y       z     vdW  Elec       q    Type
REMARK                         _______ _______ _______ _____ _____    ______ ____
ROOT
ATOM      1  N2  UNL     1      12.617   2.220  21.087  0.00  0.00    -0.277 N 
ATOM      2  C13 UNL     1      12.008   3.170  21.977  0.00  0.00    +0.303 C 
ATOM      3  O1  UNL     1      12.647   3.593  22.979  0.00  0.00    -0.265 OA
ATOM      4  H10 UNL     1      12.015   1.702  20.407  0.00  0.00    +0.155 HD
ENDROOT
BRANCH   1  11
ATOM      5  C1  UNL     1      14.757   3.602  19.568  0.00  0.00    +0.045 C 
ATOM      6  C2  UNL     1      15.026   2.459  20.511  0.00  0.00    -0.029 A 
ATOM      7  C3  UNL     1      16.349   2.033  20.698  0.00  0.00    +0.006 A 
ATOM      8  C4  UNL     1      16.638   0.951  21.529  0.00  0.00    +0.009 A 
ATOM      9  C5  UNL     1      15.608   0.267  22.195  0.00  0.00    -0.015 A 
ATOM     10  C11 UNL     1      14.283   0.705  22.026  0.00  0.00    +0.032 A 
ATOM     11  C12 UNL     1      13.986   1.809  21.216  0.00  0.00    +0.037 A 
BRANCH   9  12
ATOM     12  C6  UNL     1      15.914  -0.897  23.066  0.00  0.00    +0.003 A 
ATOM     13  C7  UNL     1      17.126  -1.599  22.934  0.00  0.00    +0.119 A 
ATOM     14  N1  UNL     1      17.395  -2.665  23.735  0.00  0.00    -0.260 NA
ATOM     15  C8  UNL     1      16.519  -3.085  24.685  0.00  0.00    +0.149 A 
ATOM     16  C9  UNL     1      15.304  -2.419  24.857  0.00  0.00    +0.142 A 
ATOM     17  F1  UNL     1      14.427  -2.832  25.805  0.00  0.00    -0.204 F 
ATOM     18  C10 UNL     1      15.002  -1.325  24.045  0.00  0.00    +0.050 A 
ENDBRANCH   9  12
ENDBRANCH   1  11
BRANCH   2  19
ATOM     19  C14 UNL     1      10.631   3.641  21.737  0.00  0.00    +0.300 C 
ATOM     20  O2  UNL     1       9.697   2.801  21.625  0.00  0.00    -0.265 OA
ATOM     21  N3  UNL     1      10.352   5.047  21.619  0.00  0.00    -0.305 N 
ATOM     22  H11 UNL     1      11.158   5.710  21.589  0.00  0.00    +0.149 HD
BRANCH  21  23
ATOM     23  C15 UNL     1       8.987   5.556  21.427  0.00  0.00    +0.078 C 
ATOM     24  C16 UNL     1       8.307   5.817  22.782  0.00  0.00    +0.050 C 
ATOM     25  C17 UNL     1       8.866   7.087  23.436  0.00  0.00    +0.162 C 
ATOM     26  O3  UNL     1       8.701   8.207  22.585  0.00  0.00    -0.376 OA
ATOM     27  C18 UNL     1       9.486   8.052  21.414  0.00  0.00    +0.123 C 
ATOM     28  C22 UNL     1       8.985   6.845  20.584  0.00  0.00    +0.054 C 
BRANCH  27  29
ATOM     29  C19 UNL     1       9.477   9.367  20.591  0.00  0.00    +0.012 C 
ATOM     30  C20 UNL     1      10.908   9.752  20.184  0.00  0.00    +0.010 C 
ATOM     31  C21 UNL     1       8.816  10.539  21.338  0.00  0.00    +0.010 C 
ENDBRANCH  27  29
ENDBRANCH  21  23
ENDBRANCH   2  19
TORSDOF 5
ENDMDL
MODEL 5
REMARK VINA RESULT:    -6.634     12.158     14.774
REMARK INTER + INTRA:          -9.318
REMARK INTER:                  -8.480
REMARK INTRA:                  -0.838
REMARK UNBOUND:                -0.745
REMARK  Name = /home/qwerty/github/datacon2025hack/step_04_hit_selection/docking/ligands/lig_652.pdb
REMARK  8 active torsions:
REMARK  status: ('A' for Active; 'I' for Inactive)
REMARK    1  A    between atoms: C1_1  and  C2_2
REMARK    2  A    between atoms: C5_5  and  C6_6
REMARK    3  A    between atoms: C12_14  and  N2_15
REMARK    4  A    between atoms: C13_16  and  C14_18
REMARK    5  A    between atoms: N3_20  and  C15_21
REMARK    6  A    between atoms: C18_25  and  C19_26
REMARK    7  A    between atoms: C19_26  and  C20_27
REMARK    8  A    between atoms: C19_26  and  C21_28
REMARK                            x       y       z     vdW  Elec       q    Type
REMARK                         _______ _______ _______ _____ _____    ______ ____
ROOT
ATOM      1  N2  UNL     1      18.228  10.158  35.627  0.00  0.00    -0.277 N 
ATOM      2  C13 UNL     1      18.836   9.700  36.845  0.00  0.00    +0.303 C 
ATOM      3  O1  UNL     1      18.788  10.417  37.881  0.00  0.00    -0.265 OA
ATOM      4  H10 UNL     1      18.468   9.680  34.727  0.00  0.00    +0.155 HD
ENDROOT
BRANCH   1  11
ATOM      5  C1  UNL     1      19.511  12.742  34.934  0.00  0.00    +0.045 C 
ATOM      6  C2  UNL     1      18.039  12.605  35.218  0.00  0.00    -0.029 A 
ATOM      7  C3  UNL     1      17.226  13.745  35.136  0.00  0.00    +0.006 A 
ATOM      8  C4  UNL     1      15.865  13.672  35.433  0.00  0.00    +0.009 A 
ATOM      9  C5  UNL     1      15.283  12.454  35.820  0.00  0.00    -0.015 A 
ATOM     10  C11 UNL     1      16.090  11.305  35.881  0.00  0.00    +0.032 A 
ATOM     11  C12 UNL     1      17.453  11.363  35.557  0.00  0.00    +0.037 A 
BRANCH   9  12
ATOM     12  C6  UNL     1      13.837  12.380  36.152  0.00  0.00    +0.003 A 
ATOM     13  C7  UNL     1      12.947  13.387  35.736  0.00  0.00    +0.119 A 
ATOM     14  N1  UNL     1      11.626  13.310  36.049  0.00  0.00    -0.260 NA
ATOM     15  C8  UNL     1      11.118  12.271  36.762  0.00  0.00    +0.149 A 
ATOM     16  C9  UNL     1      11.960  11.247  37.196  0.00  0.00    +0.142 A 
ATOM     17  F1  UNL     1      11.458  10.206  37.906  0.00  0.00    -0.204 F 
ATOM     18  C10 UNL     1      13.321  11.302  36.892  0.00  0.00    +0.050 A 
ENDBRANCH   9  12
ENDBRANCH   1  11
BRANCH   2  19
ATOM     19  C14 UNL     1      19.530   8.399  36.890  0.00  0.00    +0.300 C 
ATOM     20  O2  UNL     1      19.195   7.545  37.755  0.00  0.00    -0.265 OA
ATOM     21  N3  UNL     1      20.591   8.106  35.964  0.00  0.00    -0.305 N 
ATOM     22  H11 UNL     1      20.933   8.874  35.345  0.00  0.00    +0.149 HD
BRANCH  21  23
ATOM     23  C15 UNL     1      21.273   6.805  35.949  0.00  0.00    +0.078 C 
ATOM     24  C16 UNL     1      20.619   5.859  34.926  0.00  0.00    +0.050 C 
ATOM     25  C17 UNL     1      20.996   6.260  33.495  0.00  0.00    +0.162 C 
ATOM     26  O3  UNL     1      22.402   6.262  33.325  0.00  0.00    -0.376 OA
ATOM     27  C18 UNL     1      22.990   7.272  34.129  0.00  0.00    +0.123 C 
ATOM     28  C22 UNL     1      22.772   6.964  35.630  0.00  0.00    +0.054 C 
BRANCH  27  29
ATOM     29  C19 UNL     1      24.495   7.420  33.779  0.00  0.00    +0.012 C 
ATOM     30  C20 UNL     1      24.704   8.586  32.800  0.00  0.00    +0.010 C 
ATOM     31  C21 UNL     1      25.105   6.134  33.194  0.00  0.00    +0.010 C 
ENDBRANCH  27  29
ENDBRANCH  21  23
ENDBRANCH   2  19
TORSDOF 5
ENDMDL
MODEL 6
REMARK VINA RESULT:    -6.615     13.581     15.179
REMARK INTER + INTRA:          -9.293
REMARK INTER:                  -8.523
REMARK INTRA:                  -0.770
REMARK UNBOUND:                -0.745
REMARK  Name = /home/qwerty/github/datacon2025hack/step_04_hit_selection/docking/ligands/lig_652.pdb
REMARK  8 active torsions:
REMARK  status: ('A' for Active; 'I' for Inactive)
REMARK    1  A    between atoms: C1_1  and  C2_2
REMARK    2  A    between atoms: C5_5  and  C6_6
REMARK    3  A    between atoms: C12_14  and  N2_15
REMARK    4  A    between atoms: C13_16  and  C14_18
REMARK    5  A    between atoms: N3_20  and  C15_21
REMARK    6  A    between atoms: C18_25  and  C19_26
REMARK    7  A    between atoms: C19_26  and  C20_27
REMARK    8  A    between atoms: C19_26  and  C21_28
REMARK                            x       y       z     vdW  Elec       q    Type
REMARK                         _______ _______ _______ _____ _____    ______ ____
ROOT
ATOM      1  N2  UNL     1      11.291   3.285  21.414  0.00  0.00    -0.277 N 
ATOM      2  C13 UNL     1      12.521   3.026  22.110  0.00  0.00    +0.303 C 
ATOM      3  O1  UNL     1      12.795   3.664  23.163  0.00  0.00    -0.265 OA
ATOM      4  H10 UNL     1      11.177   2.934  20.435  0.00  0.00    +0.155 HD
ENDROOT
BRANCH   1  11
ATOM      5  C1  UNL     1       9.233   2.288  23.303  0.00  0.00    +0.045 C 
ATOM      6  C2  UNL     1       9.298   3.719  22.839  0.00  0.00    -0.029 A 
ATOM      7  C3  UNL     1       8.355   4.633  23.332  0.00  0.00    +0.006 A 
ATOM      8  C4  UNL     1       8.353   5.959  22.895  0.00  0.00    +0.009 A 
ATOM      9  C5  UNL     1       9.296   6.402  21.953  0.00  0.00    -0.015 A 
ATOM     10  C11 UNL     1      10.255   5.494  21.474  0.00  0.00    +0.032 A 
ATOM     11  C12 UNL     1      10.283   4.168  21.929  0.00  0.00    +0.037 A 
BRANCH   9  12
ATOM     12  C6  UNL     1       9.282   7.809  21.476  0.00  0.00    +0.003 A 
ATOM     13  C7  UNL     1       8.313   8.718  21.937  0.00  0.00    +0.119 A 
ATOM     14  N1  UNL     1       8.308  10.003  21.490  0.00  0.00    -0.260 NA
ATOM     15  C8  UNL     1       9.228  10.455  20.598  0.00  0.00    +0.149 A 
ATOM     16  C9  UNL     1      10.211   9.591  20.113  0.00  0.00    +0.142 A 
ATOM     17  F1  UNL     1      11.133  10.037  19.224  0.00  0.00    -0.204 F 
ATOM     18  C10 UNL     1      10.236   8.266  20.552  0.00  0.00    +0.050 A 
ENDBRANCH   9  12
ENDBRANCH   1  11
BRANCH   2  19
ATOM     19  C14 UNL     1      13.475   2.027  21.593  0.00  0.00    +0.300 C 
ATOM     20  O2  UNL     1      13.668   1.938  20.350  0.00  0.00    -0.265 OA
ATOM     21  N3  UNL     1      14.175   1.152  22.494  0.00  0.00    -0.305 N 
ATOM     22  H11 UNL     1      13.904   1.161  23.502  0.00  0.00    +0.149 HD
BRANCH  21  23
ATOM     23  C15 UNL     1      15.168   0.178  22.019  0.00  0.00    +0.078 C 
ATOM     24  C16 UNL     1      16.573   0.803  21.989  0.00  0.00    +0.050 C 
ATOM     25  C17 UNL     1      17.140   0.939  23.408  0.00  0.00    +0.162 C 
ATOM     26  O3  UNL     1      17.182  -0.320  24.056  0.00  0.00    -0.376 OA
ATOM     27  C18 UNL     1      15.866  -0.809  24.259  0.00  0.00    +0.123 C 
ATOM     28  C22 UNL     1      15.177  -1.085  22.901  0.00  0.00    +0.054 C 
BRANCH  27  29
ATOM     29  C19 UNL     1      15.903  -2.073  25.159  0.00  0.00    +0.012 C 
ATOM     30  C20 UNL     1      16.929  -3.082  24.621  0.00  0.00    +0.010 C 
ATOM     31  C21 UNL     1      14.529  -2.753  25.298  0.00  0.00    +0.010 C 
ENDBRANCH  27  29
ENDBRANCH  21  23
ENDBRANCH   2  19
TORSDOF 5
ENDMDL
MODEL 7
REMARK VINA RESULT:    -6.612      7.495     10.815
REMARK INTER + INTRA:          -9.290
REMARK INTER:                  -8.509
REMARK INTRA:                  -0.781
REMARK UNBOUND:                -0.745
REMARK  Name = /home/qwerty/github/datacon2025hack/step_04_hit_selection/docking/ligands/lig_652.pdb
REMARK  8 active torsions:
REMARK  status: ('A' for Active; 'I' for Inactive)
REMARK    1  A    between atoms: C1_1  and  C2_2
REMARK    2  A    between atoms: C5_5  and  C6_6
REMARK    3  A    between atoms: C12_14  and  N2_15
REMARK    4  A    between atoms: C13_16  and  C14_18
REMARK    5  A    between atoms: N3_20  and  C15_21
REMARK    6  A    between atoms: C18_25  and  C19_26
REMARK    7  A    between atoms: C19_26  and  C20_27
REMARK    8  A    between atoms: C19_26  and  C21_28
REMARK                            x       y       z     vdW  Elec       q    Type
REMARK                         _______ _______ _______ _____ _____    ______ ____
ROOT
ATOM      1  N2  UNL     1      16.218   9.051  20.212  0.00  0.00    -0.277 N 
ATOM      2  C13 UNL     1      16.029   8.801  21.614  0.00  0.00    +0.303 C 
ATOM      3  O1  UNL     1      17.011   8.470  22.333  0.00  0.00    -0.265 OA
ATOM      4  H10 UNL     1      15.382   9.093  19.585  0.00  0.00    +0.155 HD
ENDROOT
BRANCH   1  11
ATOM      5  C1  UNL     1      17.349   6.571  19.041  0.00  0.00    +0.045 C 
ATOM      6  C2  UNL     1      18.072   7.892  19.023  0.00  0.00    -0.029 A 
ATOM      7  C3  UNL     1      19.331   7.966  18.410  0.00  0.00    +0.006 A 
ATOM      8  C4  UNL     1      20.054   9.159  18.409  0.00  0.00    +0.009 A 
ATOM      9  C5  UNL     1      19.532  10.310  19.022  0.00  0.00    -0.015 A 
ATOM     10  C11 UNL     1      18.261  10.245  19.617  0.00  0.00    +0.032 A 
ATOM     11  C12 UNL     1      17.515   9.058  19.598  0.00  0.00    +0.037 A 
BRANCH   9  12
ATOM     12  C6  UNL     1      20.309  11.576  19.035  0.00  0.00    +0.003 A 
ATOM     13  C7  UNL     1      21.703  11.570  18.845  0.00  0.00    +0.119 A 
ATOM     14  N1  UNL     1      22.405  12.736  18.861  0.00  0.00    -0.260 NA
ATOM     15  C8  UNL     1      21.796  13.935  19.056  0.00  0.00    +0.149 A 
ATOM     16  C9  UNL     1      20.415  13.993  19.247  0.00  0.00    +0.142 A 
ATOM     17  F1  UNL     1      19.803  15.187  19.438  0.00  0.00    -0.204 F 
ATOM     18  C10 UNL     1      19.672  12.812  19.237  0.00  0.00    +0.050 A 
ENDBRANCH   9  12
ENDBRANCH   1  11
BRANCH   2  19
ATOM     19  C14 UNL     1      14.687   8.912  22.218  0.00  0.00    +0.300 C 
ATOM     20  O2  UNL     1      14.524   8.606  23.430  0.00  0.00    -0.265 OA
ATOM     21  N3  UNL     1      13.568   9.356  21.432  0.00  0.00    -0.305 N 
ATOM     22  H11 UNL     1      13.704   9.481  20.404  0.00  0.00    +0.149 HD
BRANCH  21  23
ATOM     23  C15 UNL     1      12.228   9.524  22.011  0.00  0.00    +0.078 C 
ATOM     24  C16 UNL     1      11.367  10.449  21.132  0.00  0.00    +0.050 C 
ATOM     25  C17 UNL     1      10.909   9.722  19.862  0.00  0.00    +0.162 C 
ATOM     26  O3  UNL     1      10.186   8.548  20.186  0.00  0.00    -0.376 OA
ATOM     27  C18 UNL     1      11.037   7.611  20.827  0.00  0.00    +0.123 C 
ATOM     28  C22 UNL     1      11.523   8.166  22.188  0.00  0.00    +0.054 C 
BRANCH  27  29
ATOM     29  C19 UNL     1      10.306   6.250  20.982  0.00  0.00    +0.012 C 
ATOM     30  C20 UNL     1      10.865   5.228  19.980  0.00  0.00    +0.010 C 
ATOM     31  C21 UNL     1       8.781   6.364  20.812  0.00  0.00    +0.010 C 
ENDBRANCH  27  29
ENDBRANCH  21  23
ENDBRANCH   2  19
TORSDOF 5
ENDMDL
MODEL 8
REMARK VINA RESULT:    -6.586     14.254     16.795
REMARK INTER + INTRA:          -9.256
REMARK INTER:                  -8.408
REMARK INTRA:                  -0.848
REMARK UNBOUND:                -0.745
REMARK  Name = /home/qwerty/github/datacon2025hack/step_04_hit_selection/docking/ligands/lig_652.pdb
REMARK  8 active torsions:
REMARK  status: ('A' for Active; 'I' for Inactive)
REMARK    1  A    between atoms: C1_1  and  C2_2
REMARK    2  A    between atoms: C5_5  and  C6_6
REMARK    3  A    between atoms: C12_14  and  N2_15
REMARK    4  A    between atoms: C13_16  and  C14_18
REMARK    5  A    between atoms: N3_20  and  C15_21
REMARK    6  A    between atoms: C18_25  and  C19_26
REMARK    7  A    between atoms: C19_26  and  C20_27
REMARK    8  A    between atoms: C19_26  and  C21_28
REMARK                            x       y       z     vdW  Elec       q    Type
REMARK                         _______ _______ _______ _____ _____    ______ ____
ROOT
ATOM      1  N2  UNL     1      12.243  13.155  32.512  0.00  0.00    -0.277 N 
ATOM      2  C13 UNL     1      11.620  13.830  33.616  0.00  0.00    +0.303 C 
ATOM      3  O1  UNL     1      10.655  14.615  33.411  0.00  0.00    -0.265 OA
ATOM      4  H10 UNL     1      13.173  12.698  32.654  0.00  0.00    +0.155 HD
ENDROOT
BRANCH   1  11
ATOM      5  C1  UNL     1      13.193  15.278  30.671  0.00  0.00    +0.045 C 
ATOM      6  C2  UNL     1      12.183  14.235  30.271  0.00  0.00    -0.029 A 
ATOM      7  C3  UNL     1      11.675  14.252  28.964  0.00  0.00    +0.006 A 
ATOM      8  C4  UNL     1      10.706  13.331  28.565  0.00  0.00    +0.009 A 
ATOM      9  C5  UNL     1      10.220  12.370  29.466  0.00  0.00    -0.015 A 
ATOM     10  C11 UNL     1      10.743  12.337  30.770  0.00  0.00    +0.032 A 
ATOM     11  C12 UNL     1      11.737  13.239  31.171  0.00  0.00    +0.037 A 
BRANCH   9  12
ATOM     12  C6  UNL     1       9.176  11.400  29.046  0.00  0.00    +0.003 A 
ATOM     13  C7  UNL     1       8.925  11.154  27.684  0.00  0.00    +0.119 A 
ATOM     14  N1  UNL     1       7.964  10.266  27.310  0.00  0.00    -0.260 NA
ATOM     15  C8  UNL     1       7.222   9.588  28.225  0.00  0.00    +0.149 A 
ATOM     16  C9  UNL     1       7.435   9.796  29.588  0.00  0.00    +0.142 A 
ATOM     17  F1  UNL     1       6.699   9.121  30.504  0.00  0.00    -0.204 F 
ATOM     18  C10 UNL     1       8.412  10.704  29.998  0.00  0.00    +0.050 A 
ENDBRANCH   9  12
ENDBRANCH   1  11
BRANCH   2  19
ATOM     19  C14 UNL     1      12.112  13.624  34.992  0.00  0.00    +0.300 C 
ATOM     20  O2  UNL     1      11.332  13.807  35.965  0.00  0.00    -0.265 OA
ATOM     21  N3  UNL     1      13.474  13.226  35.227  0.00  0.00    -0.305 N 
ATOM     22  H11 UNL     1      14.130  13.205  34.415  0.00  0.00    +0.149 HD
BRANCH  21  23
ATOM     23  C15 UNL     1      13.986  12.967  36.579  0.00  0.00    +0.078 C 
ATOM     24  C16 UNL     1      13.793  11.488  36.960  0.00  0.00    +0.050 C 
ATOM     25  C17 UNL     1      14.806  10.600  36.226  0.00  0.00    +0.162 C 
ATOM     26  O3  UNL     1      16.132  11.006  36.511  0.00  0.00    -0.376 OA
ATOM     27  C18 UNL     1      16.371  12.302  35.986  0.00  0.00    +0.123 C 
ATOM     28  C22 UNL     1      15.475  13.346  36.695  0.00  0.00    +0.054 C 
BRANCH  27  29
ATOM     29  C19 UNL     1      17.877  12.654  36.104  0.00  0.00    +0.012 C 
ATOM     30  C20 UNL     1      18.423  13.129  34.748  0.00  0.00    +0.010 C 
ATOM     31  C21 UNL     1      18.729  11.483  36.625  0.00  0.00    +0.010 C 
ENDBRANCH  27  29
ENDBRANCH  21  23
ENDBRANCH   2  19
TORSDOF 5
ENDMDL
MODEL 9
REMARK VINA RESULT:    -6.564      6.118     11.611
REMARK INTER + INTRA:          -9.228
REMARK INTER:                  -8.406
REMARK INTRA:                  -0.822
REMARK UNBOUND:                -0.745
REMARK  Name = /home/qwerty/github/datacon2025hack/step_04_hit_selection/docking/ligands/lig_652.pdb
REMARK  8 active torsions:
REMARK  status: ('A' for Active; 'I' for Inactive)
REMARK    1  A    between atoms: C1_1  and  C2_2
REMARK    2  A    between atoms: C5_5  and  C6_6
REMARK    3  A    between atoms: C12_14  and  N2_15
REMARK    4  A    between atoms: C13_16  and  C14_18
REMARK    5  A    between atoms: N3_20  and  C15_21
REMARK    6  A    between atoms: C18_25  and  C19_26
REMARK    7  A    between atoms: C19_26  and  C20_27
REMARK    8  A    between atoms: C19_26  and  C21_28
REMARK                            x       y       z     vdW  Elec       q    Type
REMARK                         _______ _______ _______ _____ _____    ______ ____
ROOT
ATOM      1  N2  UNL     1      21.242  13.893  30.650  0.00  0.00    -0.277 N 
ATOM      2  C13 UNL     1      20.091  13.033  30.685  0.00  0.00    +0.303 C 
ATOM      3  O1  UNL     1      19.149  13.209  29.865  0.00  0.00    -0.265 OA
ATOM      4  H10 UNL     1      21.899  13.897  31.464  0.00  0.00    +0.155 HD
ENDROOT
BRANCH   1  11
ATOM      5  C1  UNL     1      20.360  16.691  31.087  0.00  0.00    +0.045 C 
ATOM      6  C2  UNL     1      21.031  16.229  29.821  0.00  0.00    -0.029 A 
ATOM      7  C3  UNL     1      21.269  17.164  28.802  0.00  0.00    +0.006 A 
ATOM      8  C4  UNL     1      21.849  16.770  27.595  0.00  0.00    +0.009 A 
ATOM      9  C5  UNL     1      22.205  15.429  27.379  0.00  0.00    -0.015 A 
ATOM     10  C11 UNL     1      21.988  14.495  28.406  0.00  0.00    +0.032 A 
ATOM     11  C12 UNL     1      21.433  14.886  29.632  0.00  0.00    +0.037 A 
BRANCH   9  12
ATOM     12  C6  UNL     1      22.807  15.007  26.088  0.00  0.00    +0.003 A 
ATOM     13  C7  UNL     1      22.448  13.785  25.489  0.00  0.00    +0.119 A 
ATOM     14  N1  UNL     1      23.008  13.408  24.308  0.00  0.00    -0.260 NA
ATOM     15  C8  UNL     1      23.918  14.186  23.666  0.00  0.00    +0.149 A 
ATOM     16  C9  UNL     1      24.304  15.408  24.219  0.00  0.00    +0.142 A 
ATOM     17  F1  UNL     1      25.210  16.190  23.581  0.00  0.00    -0.204 F 
ATOM     18  C10 UNL     1      23.748  15.818  25.431  0.00  0.00    +0.050 A 
ENDBRANCH   9  12
ENDBRANCH   1  11
BRANCH   2  19
ATOM     19  C14 UNL     1      19.995  11.955  31.687  0.00  0.00    +0.300 C 
ATOM     20  O2  UNL     1      20.361  10.788  31.381  0.00  0.00    -0.265 OA
ATOM     21  N3  UNL     1      19.478  12.225  33.001  0.00  0.00    -0.305 N 
ATOM     22  H11 UNL     1      19.065  13.166  33.187  0.00  0.00    +0.149 HD
BRANCH  21  23
ATOM     23  C15 UNL     1      19.411  11.187  34.039  0.00  0.00    +0.078 C 
ATOM     24  C16 UNL     1      20.647  11.250  34.953  0.00  0.00    +0.050 C 
ATOM     25  C17 UNL     1      20.558  12.446  35.909  0.00  0.00    +0.162 C 
ATOM     26  O3  UNL     1      19.379  12.379  36.691  0.00  0.00    -0.376 OA
ATOM     27  C18 UNL     1      18.235  12.517  35.863  0.00  0.00    +0.123 C 
ATOM     28  C22 UNL     1      18.130  11.324  34.884  0.00  0.00    +0.054 C 
BRANCH  27  29
ATOM     29  C19 UNL     1      16.962  12.665  36.738  0.00  0.00    +0.012 C 
ATOM     30  C20 UNL     1      16.364  11.284  37.049  0.00  0.00    +0.010 C 
ATOM     31  C21 UNL     1      15.890  13.562  36.094  0.00  0.00    +0.010 C 
ENDBRANCH  27  29
ENDBRANCH  21  23
ENDBRANCH   2  19
TORSDOF 5
ENDMDL
