REMARK  Name = /home/qwerty/github/datacon2025hack/step_04_hit_selection/docking/ligands/lig_71.pdb
REMARK  6 active torsions:
REMARK  status: ('A' for Active; 'I' for Inactive)
REMARK    1  A    between atoms: C1_2  and  O2_3
REMARK    2  A    between atoms: C1_2  and  C2_4
REMARK    3  A    between atoms: C5_7  and  C6_8
REMARK    4  A    between atoms: C9_11  and  C10_12
REMARK    5  A    between atoms: C13_15  and  C14_16
REMARK    6  A    between atoms: C17_21  and  C18_23
REMARK                            x       y       z     vdW  Elec       q    Type
REMARK                         _______ _______ _______ _____ _____    ______ ____
ROOT
ATOM      1  C10 UNL     1      -2.017  -0.876   0.784  0.00  0.00    +0.017 A 
ATOM      2  C11 UNL     1      -0.972  -1.558   1.432  0.00  0.00    +0.012 A 
ATOM      3  C12 UNL     1       0.360  -1.299   1.097  0.00  0.00    +0.011 A 
ATOM      4  C13 UNL     1       0.680  -0.360   0.102  0.00  0.00    +0.002 A 
ATOM      5  C25 UNL     1      -0.366   0.330  -0.537  0.00  0.00    +0.011 A 
ATOM      6  C26 UNL     1      -1.698   0.072  -0.201  0.00  0.00    +0.012 A 
ENDROOT
BRANCH   4   7
ATOM      7  C14 UNL     1       2.103  -0.096  -0.236  0.00  0.00    +0.089 A 
ATOM      8  C15 UNL     1       2.498   0.339  -1.512  0.00  0.00    +0.141 A 
ATOM      9  N1  UNL     1       3.814   0.561  -1.768  0.00  0.00    -0.236 NA
ATOM     10  C16 UNL     1       4.768   0.386  -0.816  0.00  0.00    +0.143 A 
ATOM     11  N2  UNL     1       6.146   0.614  -1.153  0.00  0.00    -0.265 N 
ATOM     12  C17 UNL     1       7.150   1.012  -0.204  0.00  0.00    +0.250 C 
ATOM     13  O3  UNL     1       6.805   1.577   0.871  0.00  0.00    -0.270 OA
ATOM     14  C24 UNL     1       4.380  -0.077   0.450  0.00  0.00    +0.155 A 
ATOM     15  N3  UNL     1       3.066  -0.303   0.705  0.00  0.00    -0.250 NA
ATOM     16  H9  UNL     1       6.399   0.606  -2.166  0.00  0.00    +0.157 HD
BRANCH  12  17
ATOM     17  C18 UNL     1       8.591   0.816  -0.495  0.00  0.00    +0.043 A 
ATOM     18  C19 UNL     1       9.563   1.548   0.214  0.00  0.00    +0.054 A 
ATOM     19  C20 UNL     1      10.923   1.364  -0.052  0.00  0.00    +0.162 A 
ATOM     20  F1  UNL     1      11.848   2.081   0.633  0.00  0.00    -0.202 F 
ATOM     21  C21 UNL     1      11.330   0.444  -1.023  0.00  0.00    +0.193 A 
ATOM     22  F2  UNL     1      12.650   0.266  -1.279  0.00  0.00    -0.199 F 
ATOM     23  C22 UNL     1      10.375  -0.296  -1.726  0.00  0.00    +0.162 A 
ATOM     24  F3  UNL     1      10.768  -1.197  -2.660  0.00  0.00    -0.202 F 
ATOM     25  C23 UNL     1       9.013  -0.114  -1.464  0.00  0.00    +0.054 A 
ENDBRANCH  12  17
ENDBRANCH   4   7
BRANCH   1  29
ATOM     26  C6  UNL     1      -5.570  -0.953   1.048  0.00  0.00    +0.136 A 
ATOM     27  C7  UNL     1      -5.299  -1.911   2.011  0.00  0.00    +0.050 A 
ATOM     28  C8  UNL     1      -3.927  -2.026   2.057  0.00  0.00    +0.050 A 
ATOM     29  C9  UNL     1      -3.437  -1.132   1.120  0.00  0.00    +0.136 A 
ATOM     30  O4  UNL     1      -4.441  -0.512   0.540  0.00  0.00    -0.455 OA
BRANCH  26  34
ATOM     31  C2  UNL     1      -9.421   0.496  -0.229  0.00  0.00    +0.059 A 
ATOM     32  C3  UNL     1      -8.237   0.996  -0.797  0.00  0.00    +0.015 A 
ATOM     33  C4  UNL     1      -6.992   0.520  -0.377  0.00  0.00    +0.012 A 
ATOM     34  C5  UNL     1      -6.902  -0.465   0.620  0.00  0.00    +0.017 A 
ATOM     35  C27 UNL     1      -8.087  -0.966   1.188  0.00  0.00    +0.012 A 
ATOM     36  C28 UNL     1      -9.332  -0.490   0.768  0.00  0.00    +0.015 A 
BRANCH  31  38
ATOM     37  O1  UNL     1     -10.822   1.882  -1.564  0.00  0.00    -0.245 OA
ATOM     38  C1  UNL     1     -10.741   0.997  -0.670  0.00  0.00    +0.337 C 
BRANCH  38  39
ATOM     39  O2  UNL     1     -11.909   0.494  -0.101  0.00  0.00    -0.477 OA
ATOM     40  H1  UNL     1     -12.818   0.830  -0.396  0.00  0.00    +0.295 HD
ENDBRANCH  38  39
ENDBRANCH  31  38
ENDBRANCH  26  34
ENDBRANCH   1  29
TORSDOF 6
