REMARK  Name = /home/qwerty/github/datacon2025hack/step_04_hit_selection/docking/ligands/lig_316.pdb
REMARK  8 active torsions:
REMARK  status: ('A' for Active; 'I' for Inactive)
REMARK    1  A    between atoms: C1_1  and  C2_2
REMARK    2  A    between atoms: C2_2  and  C3_3
REMARK    3  A    between atoms: C2_2  and  C4_4
REMARK    4  A    between atoms: C2_2  and  O1_5
REMARK    5  A    between atoms: O1_5  and  C5_6
REMARK    6  A    between atoms: C9_12  and  N2_13
REMARK    7  A    between atoms: C10_14  and  C11_16
REMARK    8  A    between atoms: N3_24  and  C18_25
REMARK                            x       y       z     vdW  Elec       q    Type
REMARK                         _______ _______ _______ _____ _____    ______ ____
ROOT
ATOM      1  N2  UNL     1       0.742  -0.563   0.048  0.00  0.00    -0.307 N 
ATOM      2  C10 UNL     1      -0.579  -0.731  -0.491  0.00  0.00    +0.245 C 
ATOM      3  O3  UNL     1      -1.137  -1.861  -0.447  0.00  0.00    -0.270 OA
ATOM      4  H17 UNL     1       1.093   0.411   0.194  0.00  0.00    +0.149 HD
ENDROOT
BRANCH   2   5
ATOM      5  C11 UNL     1      -1.274   0.408  -1.127  0.00  0.00    +0.050 A 
ATOM      6  C12 UNL     1      -0.542   1.336  -1.902  0.00  0.00    +0.014 A 
ATOM      7  C13 UNL     1      -1.189   2.410  -2.545  0.00  0.00    +0.002 A 
ATOM      8  C14 UNL     1      -2.576   2.580  -2.429  0.00  0.00    +0.014 A 
ATOM      9  C15 UNL     1      -3.287   1.660  -1.664  0.00  0.00    +0.050 A 
ATOM     10  C16 UNL     1      -2.664   0.603  -1.025  0.00  0.00    +0.061 A 
ATOM     11  C17 UNL     1      -3.704  -0.100  -0.262  0.00  0.00    +0.255 C 
ATOM     12  O4  UNL     1      -3.511  -1.056   0.535  0.00  0.00    -0.269 OA
ATOM     13  N3  UNL     1      -4.983   0.508  -0.484  0.00  0.00    -0.231 N 
ATOM     14  C24 UNL     1      -4.706   1.618  -1.338  0.00  0.00    +0.254 C 
ATOM     15  O5  UNL     1      -5.570   2.447  -1.729  0.00  0.00    -0.270 OA
BRANCH  13  16
ATOM     16  C18 UNL     1      -6.241   0.253   0.228  0.00  0.00    +0.085 C 
ATOM     17  C19 UNL     1      -6.091   0.568   1.726  0.00  0.00    +0.023 C 
ATOM     18  C20 UNL     1      -7.433   0.419   2.472  0.00  0.00    +0.002 C 
ATOM     19  C21 UNL     1      -8.365  -0.646   1.858  0.00  0.00    +0.000 C 
ATOM     20  C22 UNL     1      -7.576  -1.754   1.152  0.00  0.00    +0.002 C 
ATOM     21  C23 UNL     1      -6.728  -1.198  -0.010  0.00  0.00    +0.023 C 
ENDBRANCH  13  16
ENDBRANCH   2   5
BRANCH   1  28
ATOM     22  C5  UNL     1       5.095  -0.246   0.961  0.00  0.00    +0.403 C 
ATOM     23  O2  UNL     1       5.271  -0.340   2.206  0.00  0.00    -0.226 OA
ATOM     24  N1  UNL     1       3.872  -0.731   0.373  0.00  0.00    -0.266 N 
ATOM     25  C6  UNL     1       3.634  -0.565  -1.070  0.00  0.00    +0.111 C 
ATOM     26  C7  UNL     1       2.913  -1.778  -1.687  0.00  0.00    +0.021 C 
ATOM     27  C8  UNL     1       2.014  -2.552  -0.706  0.00  0.00    +0.025 C 
ATOM     28  C9  UNL     1       1.563  -1.699   0.488  0.00  0.00    +0.091 C 
ATOM     29  C25 UNL     1       2.805  -1.222   1.263  0.00  0.00    +0.133 C 
BRANCH  22  30
ATOM     30  O1  UNL     1       6.084   0.329   0.144  0.00  0.00    -0.445 OA
BRANCH  30  32
ATOM     31  C1  UNL     1       8.074   1.369  -0.676  0.00  0.00    +0.055 C 
ATOM     32  C2  UNL     1       7.342   0.866   0.577  0.00  0.00    +0.107 C 
ATOM     33  C3  UNL     1       8.198  -0.226   1.247  0.00  0.00    +0.055 C 
ATOM     34  C4  UNL     1       7.124   2.051   1.536  0.00  0.00    +0.055 C 
ENDBRANCH  30  32
ENDBRANCH  22  30
ENDBRANCH   1  28
TORSDOF 5
