REMARK  Name = /home/qwerty/github/datacon2025hack/step_04_hit_selection/docking/ligands/lig_589.pdb
REMARK  6 active torsions:
REMARK  status: ('A' for Active; 'I' for Inactive)
REMARK    1  A    between atoms: C1_1  and  O1_2
REMARK    2  A    between atoms: O1_2  and  C2_3
REMARK    3  A    between atoms: C10_12  and  N1_13
REMARK    4  A    between atoms: C11_14  and  C12_16
REMARK    5  A    between atoms: N2_18  and  C13_19
REMARK    6  A    between atoms: C16_22  and  N3_23
REMARK                            x       y       z     vdW  Elec       q    Type
REMARK                         _______ _______ _______ _____ _____    ______ ____
ROOT
ATOM      1  N1  UNL     1      -1.331  -1.024  -0.296  0.00  0.00    -0.301 N 
ATOM      2  C11 UNL     1      -0.060  -1.305  -0.903  0.00  0.00    +0.300 C 
ATOM      3  O3  UNL     1      -0.002  -2.019  -1.941  0.00  0.00    -0.265 OA
ATOM      4  H12 UNL     1      -1.359  -0.443   0.574  0.00  0.00    +0.150 HD
ENDROOT
BRANCH   1  14
ATOM      5  C2  UNL     1      -5.877   0.906   0.497  0.00  0.00    +0.124 A 
ATOM      6  C3  UNL     1      -5.084   1.290  -0.602  0.00  0.00    +0.046 A 
ATOM      7  C4  UNL     1      -4.027   0.481  -1.027  0.00  0.00    +0.012 A 
ATOM      8  C5  UNL     1      -3.751  -0.726  -0.369  0.00  0.00    +0.015 A 
ATOM      9  C6  UNL     1      -4.530  -1.103   0.742  0.00  0.00    +0.129 A 
ATOM     10  C7  UNL     1      -5.591  -0.293   1.160  0.00  0.00    +0.091 A 
ATOM     11  O2  UNL     1      -4.268  -2.301   1.418  0.00  0.00    -0.491 OA
ATOM     12  C8  UNL     1      -3.103  -3.083   1.158  0.00  0.00    +0.231 C 
ATOM     13  C9  UNL     1      -2.755  -3.041  -0.333  0.00  0.00    +0.068 C 
ATOM     14  C10 UNL     1      -2.585  -1.585  -0.810  0.00  0.00    +0.110 C 
BRANCH   5  16
ATOM     15  C1  UNL     1      -7.353   2.921   0.382  0.00  0.00    +0.277 C 
ATOM     16  O1  UNL     1      -6.950   1.683   0.959  0.00  0.00    -0.495 OA
ENDBRANCH   5  16
ENDBRANCH   1  14
BRANCH   2  17
ATOM     17  C12 UNL     1       1.184  -0.759  -0.327  0.00  0.00    +0.303 C 
ATOM     18  O4  UNL     1       1.125  -0.033   0.703  0.00  0.00    -0.265 OA
ATOM     19  N2  UNL     1       2.458  -1.085  -0.909  0.00  0.00    -0.276 N 
ATOM     20  H13 UNL     1       2.514  -1.918  -1.538  0.00  0.00    +0.155 HD
BRANCH  19  21
ATOM     21  C13 UNL     1       3.685  -0.408  -0.587  0.00  0.00    +0.052 A 
ATOM     22  C14 UNL     1       3.717   0.963  -0.286  0.00  0.00    +0.028 A 
ATOM     23  C15 UNL     1       4.931   1.591  -0.003  0.00  0.00    +0.050 A 
ATOM     24  C16 UNL     1       6.119   0.846  -0.036  0.00  0.00    +0.156 A 
ATOM     25  N6  UNL     1       6.067  -0.478  -0.353  0.00  0.00    -0.234 NA
ATOM     26  C19 UNL     1       4.897  -1.110  -0.632  0.00  0.00    +0.136 A 
BRANCH  24  27
ATOM     27  N3  UNL     1       7.383   1.465   0.251  0.00  0.00    -0.202 N 
ATOM     28  C17 UNL     1       8.590   0.872   0.249  0.00  0.00    +0.226 A 
ATOM     29  N4  UNL     1       9.564   1.748   0.564  0.00  0.00    -0.222 NA
ATOM     30  C18 UNL     1       8.874   2.895   0.752  0.00  0.00    +0.245 A 
ATOM     31  N5  UNL     1       7.550   2.737   0.566  0.00  0.00    -0.152 NA
ENDBRANCH  24  27
ENDBRANCH  19  21
ENDBRANCH   2  17
TORSDOF 5
