MODEL 1
REMARK VINA RESULT:    -5.870      0.000      0.000
REMARK INTER + INTRA:          -7.077
REMARK INTER:                  -7.242
REMARK INTRA:                   0.166
REMARK UNBOUND:                 0.166
REMARK  Name = /home/qwerty/github/datacon2025hack/step_04_hit_selection/docking/ligands/lig_623.pdb
REMARK  8 active torsions:
REMARK  status: ('A' for Active; 'I' for Inactive)
REMARK    1  A    between atoms: C2_2  and  C3_3
REMARK    2  A    between atoms: C3_3  and  C4_4
REMARK    3  A    between atoms: C3_3  and  C5_5
REMARK    4  A    between atoms: C3_3  and  C6_6
REMARK    5  A    between atoms: C9_11  and  N2_12
REMARK    6  A    between atoms: N2_12  and  C10_13
REMARK    7  A    between atoms: C11_14  and  C12_16
REMARK    8  A    between atoms: C12_16  and  C13_17
REMARK                            x       y       z     vdW  Elec       q    Type
REMARK                         _______ _______ _______ _____ _____    ______ ____
ROOT
ATOM      1  C6  UNL     1      22.112   1.852  27.933  0.00  0.00    +0.225 C 
ATOM      2  O1  UNL     1      22.784   2.787  27.414  0.00  0.00    -0.275 OA
ATOM      3  N1  UNL     1      20.831   1.523  27.364  0.00  0.00    -0.301 N 
ATOM      4  C7  UNL     1      19.624   1.546  28.202  0.00  0.00    +0.109 C 
ATOM      5  C8  UNL     1      18.349   1.443  27.356  0.00  0.00    +0.041 C 
ATOM      6  C9  UNL     1      18.446   0.262  26.368  0.00  0.00    +0.079 C 
ATOM      7  C16 UNL     1      19.764   0.254  25.543  0.00  0.00    +0.041 C 
ATOM      8  C17 UNL     1      20.713   1.402  25.905  0.00  0.00    +0.109 C 
ENDROOT
BRANCH   6   9
ATOM      9  N2  UNL     1      17.262   0.228  25.486  0.00  0.00    -0.301 N 
ATOM     10  C10 UNL     1      16.740   1.463  24.887  0.00  0.00    +0.132 C 
ATOM     11  C11 UNL     1      16.639  -1.036  25.169  0.00  0.00    +0.221 C 
ATOM     12  O2  UNL     1      17.326  -2.094  25.163  0.00  0.00    -0.275 OA
BRANCH  11  13
ATOM     13  C12 UNL     1      15.177  -1.127  24.819  0.00  0.00    +0.044 C 
ATOM     14  C13 UNL     1      14.753  -0.923  23.362  0.00  0.00    +0.021 C 
ATOM     15  C14 UNL     1      14.412  -2.209  25.574  0.00  0.00    +0.017 C 
ATOM     16  C15 UNL     1      14.183  -0.741  25.906  0.00  0.00    +0.017 C 
ENDBRANCH  11  13
ENDBRANCH   6   9
BRANCH   1  17
ATOM     17  C3  UNL     1      22.666   1.114  29.149  0.00  0.00    +0.059 C 
ATOM     18  C4  UNL     1      24.211   1.088  29.099  0.00  0.00    +0.025 C 
ATOM     19  C5  UNL     1      22.233   1.857  30.426  0.00  0.00    +0.025 C 
BRANCH  17  21
ATOM     20  C1  UNL     1      22.880  -1.359  28.753  0.00  0.00    +0.005 C 
ATOM     21  C2  UNL     1      22.160  -0.321  29.198  0.00  0.00    -0.019 C 
ENDBRANCH  17  21
ENDBRANCH   1  17
TORSDOF 4
ENDMDL
MODEL 2
REMARK VINA RESULT:    -5.777     15.022     17.380
REMARK INTER + INTRA:          -6.963
REMARK INTER:                  -7.090
REMARK INTRA:                   0.127
REMARK UNBOUND:                 0.166
REMARK  Name = /home/qwerty/github/datacon2025hack/step_04_hit_selection/docking/ligands/lig_623.pdb
REMARK  8 active torsions:
REMARK  status: ('A' for Active; 'I' for Inactive)
REMARK    1  A    between atoms: C2_2  and  C3_3
REMARK    2  A    between atoms: C3_3  and  C4_4
REMARK    3  A    between atoms: C3_3  and  C5_5
REMARK    4  A    between atoms: C3_3  and  C6_6
REMARK    5  A    between atoms: C9_11  and  N2_12
REMARK    6  A    between atoms: N2_12  and  C10_13
REMARK    7  A    between atoms: C11_14  and  C12_16
REMARK    8  A    between atoms: C12_16  and  C13_17
REMARK                            x       y       z     vdW  Elec       q    Type
REMARK                         _______ _______ _______ _____ _____    ______ ____
ROOT
ATOM      1  C6  UNL     1       9.968  13.304  28.511  0.00  0.00    +0.225 C 
ATOM      2  O1  UNL     1      10.676  13.744  27.563  0.00  0.00    -0.275 OA
ATOM      3  N1  UNL     1      10.594  13.053  29.783  0.00  0.00    -0.301 N 
ATOM      4  C7  UNL     1      10.512  11.719  30.395  0.00  0.00    +0.109 C 
ATOM      5  C8  UNL     1      11.466  11.587  31.588  0.00  0.00    +0.041 C 
ATOM      6  C9  UNL     1      11.288  12.773  32.559  0.00  0.00    +0.079 C 
ATOM      7  C16 UNL     1      11.331  14.158  31.857  0.00  0.00    +0.041 C 
ATOM      8  C17 UNL     1      11.505  14.063  30.337  0.00  0.00    +0.109 C 
ENDROOT
BRANCH   6   9
ATOM      9  N2  UNL     1      12.277  12.696  33.654  0.00  0.00    -0.301 N 
ATOM     10  C10 UNL     1      13.698  12.468  33.362  0.00  0.00    +0.132 C 
ATOM     11  C11 UNL     1      11.854  12.896  35.020  0.00  0.00    +0.221 C 
ATOM     12  O2  UNL     1      10.853  13.622  35.270  0.00  0.00    -0.275 OA
BRANCH  11  13
ATOM     13  C12 UNL     1      12.596  12.274  36.174  0.00  0.00    +0.044 C 
ATOM     14  C13 UNL     1      13.754  13.047  36.808  0.00  0.00    +0.021 C 
ATOM     15  C14 UNL     1      11.714  11.503  37.151  0.00  0.00    +0.017 C 
ATOM     16  C15 UNL     1      12.653  10.753  36.215  0.00  0.00    +0.017 C 
ENDBRANCH  11  13
ENDBRANCH   6   9
BRANCH   1  17
ATOM     17  C3  UNL     1       8.483  13.039  28.279  0.00  0.00    +0.059 C 
ATOM     18  C4  UNL     1       7.897  14.095  27.314  0.00  0.00    +0.025 C 
ATOM     19  C5  UNL     1       8.316  11.649  27.639  0.00  0.00    +0.025 C 
BRANCH  17  21
ATOM     20  C1  UNL     1       7.057  14.193  29.998  0.00  0.00    +0.005 C 
ATOM     21  C2  UNL     1       7.704  13.095  29.586  0.00  0.00    -0.019 C 
ENDBRANCH  17  21
ENDBRANCH   1  17
TORSDOF 4
ENDMDL
MODEL 3
REMARK VINA RESULT:    -5.625     13.278     15.360
REMARK INTER + INTRA:          -6.775
REMARK INTER:                  -6.934
REMARK INTRA:                   0.159
REMARK UNBOUND:                 0.166
REMARK  Name = /home/qwerty/github/datacon2025hack/step_04_hit_selection/docking/ligands/lig_623.pdb
REMARK  8 active torsions:
REMARK  status: ('A' for Active; 'I' for Inactive)
REMARK    1  A    between atoms: C2_2  and  C3_3
REMARK    2  A    between atoms: C3_3  and  C4_4
REMARK    3  A    between atoms: C3_3  and  C5_5
REMARK    4  A    between atoms: C3_3  and  C6_6
REMARK    5  A    between atoms: C9_11  and  N2_12
REMARK    6  A    between atoms: N2_12  and  C10_13
REMARK    7  A    between atoms: C11_14  and  C12_16
REMARK    8  A    between atoms: C12_16  and  C13_17
REMARK                            x       y       z     vdW  Elec       q    Type
REMARK                         _______ _______ _______ _____ _____    ______ ____
ROOT
ATOM      1  C6  UNL     1       8.420  11.541  28.516  0.00  0.00    +0.225 C 
ATOM      2  O1  UNL     1       7.996  10.819  29.460  0.00  0.00    -0.275 OA
ATOM      3  N1  UNL     1       8.804  10.908  27.281  0.00  0.00    -0.301 N 
ATOM      4  C7  UNL     1      10.158  11.103  26.741  0.00  0.00    +0.109 C 
ATOM      5  C8  UNL     1      10.449  10.135  25.589  0.00  0.00    +0.041 C 
ATOM      6  C9  UNL     1       9.311  10.171  24.548  0.00  0.00    +0.079 C 
ATOM      7  C16 UNL     1       7.897  10.012  25.173  0.00  0.00    +0.041 C 
ATOM      8  C17 UNL     1       7.920   9.889  26.701  0.00  0.00    +0.109 C 
ENDROOT
BRANCH   6   9
ATOM      9  N2  UNL     1       9.545   9.165  23.492  0.00  0.00    -0.301 N 
ATOM     10  C10 UNL     1       9.942   7.794  23.841  0.00  0.00    +0.132 C 
ATOM     11  C11 UNL     1       9.336   9.514  22.107  0.00  0.00    +0.221 C 
ATOM     12  O2  UNL     1       8.497  10.407  21.802  0.00  0.00    -0.275 OA
BRANCH  11  13
ATOM     13  C12 UNL     1      10.081   8.821  20.997  0.00  0.00    +0.044 C 
ATOM     14  C13 UNL     1       9.481   7.553  20.385  0.00  0.00    +0.021 C 
ATOM     15  C14 UNL     1      10.763   9.762  20.009  0.00  0.00    +0.017 C 
ATOM     16  C15 UNL     1      11.598   8.958  20.997  0.00  0.00    +0.017 C 
ENDBRANCH  11  13
ENDBRANCH   6   9
BRANCH   1  17
ATOM     17  C3  UNL     1       8.528  13.050  28.714  0.00  0.00    +0.059 C 
ATOM     18  C4  UNL     1       7.512  13.523  29.778  0.00  0.00    +0.025 C 
ATOM     19  C5  UNL     1       9.946  13.391  29.210  0.00  0.00    +0.025 C 
BRANCH  17  21
ATOM     20  C1  UNL     1       7.152  14.540  27.228  0.00  0.00    +0.005 C 
ATOM     21  C2  UNL     1       8.250  13.796  27.416  0.00  0.00    -0.019 C 
ENDBRANCH  17  21
ENDBRANCH   1  17
TORSDOF 4
ENDMDL
MODEL 4
REMARK VINA RESULT:    -5.193      5.317      9.743
REMARK INTER + INTRA:          -6.242
REMARK INTER:                  -6.274
REMARK INTRA:                   0.032
REMARK UNBOUND:                 0.166
REMARK  Name = /home/qwerty/github/datacon2025hack/step_04_hit_selection/docking/ligands/lig_623.pdb
REMARK  8 active torsions:
REMARK  status: ('A' for Active; 'I' for Inactive)
REMARK    1  A    between atoms: C2_2  and  C3_3
REMARK    2  A    between atoms: C3_3  and  C4_4
REMARK    3  A    between atoms: C3_3  and  C5_5
REMARK    4  A    between atoms: C3_3  and  C6_6
REMARK    5  A    between atoms: C9_11  and  N2_12
REMARK    6  A    between atoms: N2_12  and  C10_13
REMARK    7  A    between atoms: C11_14  and  C12_16
REMARK    8  A    between atoms: C12_16  and  C13_17
REMARK                            x       y       z     vdW  Elec       q    Type
REMARK                         _______ _______ _______ _____ _____    ______ ____
ROOT
ATOM      1  C6  UNL     1      21.389   2.794  29.295  0.00  0.00    +0.225 C 
ATOM      2  O1  UNL     1      21.889   3.192  28.207  0.00  0.00    -0.275 OA
ATOM      3  N1  UNL     1      21.573   3.600  30.475  0.00  0.00    -0.301 N 
ATOM      4  C7  UNL     1      22.196   3.021  31.674  0.00  0.00    +0.109 C 
ATOM      5  C8  UNL     1      22.549   4.102  32.702  0.00  0.00    +0.041 C 
ATOM      6  C9  UNL     1      21.338   5.020  32.964  0.00  0.00    +0.079 C 
ATOM      7  C16 UNL     1      20.683   5.565  31.664  0.00  0.00    +0.041 C 
ATOM      8  C17 UNL     1      21.354   5.049  30.385  0.00  0.00    +0.109 C 
ENDROOT
BRANCH   6   9
ATOM      9  N2  UNL     1      21.711   6.120  33.877  0.00  0.00    -0.301 N 
ATOM     10  C10 UNL     1      22.640   7.170  33.440  0.00  0.00    +0.132 C 
ATOM     11  C11 UNL     1      21.121   6.193  35.193  0.00  0.00    +0.221 C 
ATOM     12  O2  UNL     1      19.973   5.712  35.397  0.00  0.00    -0.275 OA
BRANCH  11  13
ATOM     13  C12 UNL     1      21.836   6.856  36.341  0.00  0.00    +0.044 C 
ATOM     14  C13 UNL     1      23.302   6.504  36.600  0.00  0.00    +0.021 C 
ATOM     15  C14 UNL     1      21.471   8.322  36.551  0.00  0.00    +0.017 C 
ATOM     16  C15 UNL     1      20.985   7.267  37.535  0.00  0.00    +0.017 C 
ENDBRANCH  11  13
ENDBRANCH   6   9
BRANCH   1  17
ATOM     17  C3  UNL     1      20.624   1.474  29.334  0.00  0.00    +0.059 C 
ATOM     18  C4  UNL     1      19.436   1.575  30.318  0.00  0.00    +0.025 C 
ATOM     19  C5  UNL     1      20.069   1.175  27.929  0.00  0.00    +0.025 C 
BRANCH  17  21
ATOM     20  C1  UNL     1      22.456  -0.211  28.983  0.00  0.00    +0.005 C 
ATOM     21  C2  UNL     1      21.524   0.330  29.780  0.00  0.00    -0.019 C 
ENDBRANCH  17  21
ENDBRANCH   1  17
TORSDOF 4
ENDMDL
MODEL 5
REMARK VINA RESULT:    -5.003      1.218      1.540
REMARK INTER + INTRA:          -6.007
REMARK INTER:                  -6.402
REMARK INTRA:                   0.395
REMARK UNBOUND:                 0.166
REMARK  Name = /home/qwerty/github/datacon2025hack/step_04_hit_selection/docking/ligands/lig_623.pdb
REMARK  8 active torsions:
REMARK  status: ('A' for Active; 'I' for Inactive)
REMARK    1  A    between atoms: C2_2  and  C3_3
REMARK    2  A    between atoms: C3_3  and  C4_4
REMARK    3  A    between atoms: C3_3  and  C5_5
REMARK    4  A    between atoms: C3_3  and  C6_6
REMARK    5  A    between atoms: C9_11  and  N2_12
REMARK    6  A    between atoms: N2_12  and  C10_13
REMARK    7  A    between atoms: C11_14  and  C12_16
REMARK    8  A    between atoms: C12_16  and  C13_17
REMARK                            x       y       z     vdW  Elec       q    Type
REMARK                         _______ _______ _______ _____ _____    ______ ____
ROOT
ATOM      1  C6  UNL     1      21.090   2.525  28.949  0.00  0.00    +0.225 C 
ATOM      2  O1  UNL     1      21.323   3.765  28.969  0.00  0.00    -0.275 OA
ATOM      3  N1  UNL     1      20.234   2.001  27.916  0.00  0.00    -0.301 N 
ATOM      4  C7  UNL     1      19.031   1.234  28.273  0.00  0.00    +0.109 C 
ATOM      5  C8  UNL     1      18.124   1.012  27.057  0.00  0.00    +0.041 C 
ATOM      6  C9  UNL     1      18.935   0.455  25.868  0.00  0.00    +0.079 C 
ATOM      7  C16 UNL     1      20.223   1.269  25.564  0.00  0.00    +0.041 C 
ATOM      8  C17 UNL     1      20.444   2.439  26.530  0.00  0.00    +0.109 C 
ENDROOT
BRANCH   6   9
ATOM      9  N2  UNL     1      18.080   0.337  24.670  0.00  0.00    -0.301 N 
ATOM     10  C10 UNL     1      17.952   1.459  23.731  0.00  0.00    +0.132 C 
ATOM     11  C11 UNL     1      17.401  -0.906  24.390  0.00  0.00    +0.221 C 
ATOM     12  O2  UNL     1      17.895  -1.997  24.789  0.00  0.00    -0.275 OA
BRANCH  11  13
ATOM     13  C12 UNL     1      16.117  -0.944  23.605  0.00  0.00    +0.044 C 
ATOM     14  C13 UNL     1      16.164  -1.357  22.132  0.00  0.00    +0.021 C 
ATOM     15  C14 UNL     1      14.912  -1.458  24.387  0.00  0.00    +0.017 C 
ATOM     16  C15 UNL     1      15.019   0.020  24.035  0.00  0.00    +0.017 C 
ENDBRANCH  11  13
ENDBRANCH   6   9
BRANCH   1  17
ATOM     17  C3  UNL     1      21.702   1.627  30.019  0.00  0.00    +0.059 C 
ATOM     18  C4  UNL     1      22.352   2.486  31.128  0.00  0.00    +0.025 C 
ATOM     19  C5  UNL     1      20.589   0.773  30.655  0.00  0.00    +0.025 C 
BRANCH  17  21
ATOM     20  C1  UNL     1      22.482  -0.477  28.885  0.00  0.00    +0.005 C 
ATOM     21  C2  UNL     1      22.767   0.715  29.428  0.00  0.00    -0.019 C 
ENDBRANCH  17  21
ENDBRANCH   1  17
TORSDOF 4
ENDMDL
MODEL 6
REMARK VINA RESULT:    -4.986      5.063      9.487
REMARK INTER + INTRA:          -5.987
REMARK INTER:                  -6.091
REMARK INTRA:                   0.105
REMARK UNBOUND:                 0.166
REMARK  Name = /home/qwerty/github/datacon2025hack/step_04_hit_selection/docking/ligands/lig_623.pdb
REMARK  8 active torsions:
REMARK  status: ('A' for Active; 'I' for Inactive)
REMARK    1  A    between atoms: C2_2  and  C3_3
REMARK    2  A    between atoms: C3_3  and  C4_4
REMARK    3  A    between atoms: C3_3  and  C5_5
REMARK    4  A    between atoms: C3_3  and  C6_6
REMARK    5  A    between atoms: C9_11  and  N2_12
REMARK    6  A    between atoms: N2_12  and  C10_13
REMARK    7  A    between atoms: C11_14  and  C12_16
REMARK    8  A    between atoms: C12_16  and  C13_17
REMARK                            x       y       z     vdW  Elec       q    Type
REMARK                         _______ _______ _______ _____ _____    ______ ____
ROOT
ATOM      1  C6  UNL     1      20.797   1.847  29.614  0.00  0.00    +0.225 C 
ATOM      2  O1  UNL     1      19.699   1.296  29.324  0.00  0.00    -0.275 OA
ATOM      3  N1  UNL     1      20.837   2.766  30.721  0.00  0.00    -0.301 N 
ATOM      4  C7  UNL     1      21.316   4.142  30.520  0.00  0.00    +0.109 C 
ATOM      5  C8  UNL     1      21.019   5.025  31.738  0.00  0.00    +0.041 C 
ATOM      6  C9  UNL     1      21.498   4.341  33.035  0.00  0.00    +0.079 C 
ATOM      7  C16 UNL     1      21.009   2.872  33.176  0.00  0.00    +0.041 C 
ATOM      8  C17 UNL     1      20.179   2.392  31.979  0.00  0.00    +0.109 C 
ENDROOT
BRANCH   6   9
ATOM      9  N2  UNL     1      21.120   5.146  34.214  0.00  0.00    -0.301 N 
ATOM     10  C10 UNL     1      19.765   5.060  34.774  0.00  0.00    +0.132 C 
ATOM     11  C11 UNL     1      22.102   5.990  34.853  0.00  0.00    +0.221 C 
ATOM     12  O2  UNL     1      23.325   5.686  34.799  0.00  0.00    -0.275 OA
BRANCH  11  13
ATOM     13  C12 UNL     1      21.703   7.228  35.613  0.00  0.00    +0.044 C 
ATOM     14  C13 UNL     1      21.572   7.148  37.136  0.00  0.00    +0.021 C 
ATOM     15  C14 UNL     1      22.309   8.521  35.078  0.00  0.00    +0.017 C 
ATOM     16  C15 UNL     1      20.827   8.234  34.879  0.00  0.00    +0.017 C 
ENDBRANCH  11  13
ENDBRANCH   6   9
BRANCH   1  17
ATOM     17  C3  UNL     1      22.037   1.536  28.780  0.00  0.00    +0.059 C 
ATOM     18  C4  UNL     1      21.844   0.210  28.010  0.00  0.00    +0.025 C 
ATOM     19  C5  UNL     1      22.248   2.667  27.756  0.00  0.00    +0.025 C 
BRANCH  17  21
ATOM     20  C1  UNL     1      24.345   0.689  29.303  0.00  0.00    +0.005 C 
ATOM     21  C2  UNL     1      23.273   1.409  29.660  0.00  0.00    -0.019 C 
ENDBRANCH  17  21
ENDBRANCH   1  17
TORSDOF 4
ENDMDL
MODEL 7
REMARK VINA RESULT:    -4.986      1.663      2.537
REMARK INTER + INTRA:          -5.986
REMARK INTER:                  -6.580
REMARK INTRA:                   0.594
REMARK UNBOUND:                 0.166
REMARK  Name = /home/qwerty/github/datacon2025hack/step_04_hit_selection/docking/ligands/lig_623.pdb
REMARK  8 active torsions:
REMARK  status: ('A' for Active; 'I' for Inactive)
REMARK    1  A    between atoms: C2_2  and  C3_3
REMARK    2  A    between atoms: C3_3  and  C4_4
REMARK    3  A    between atoms: C3_3  and  C5_5
REMARK    4  A    between atoms: C3_3  and  C6_6
REMARK    5  A    between atoms: C9_11  and  N2_12
REMARK    6  A    between atoms: N2_12  and  C10_13
REMARK    7  A    between atoms: C11_14  and  C12_16
REMARK    8  A    between atoms: C12_16  and  C13_17
REMARK                            x       y       z     vdW  Elec       q    Type
REMARK                         _______ _______ _______ _____ _____    ______ ____
ROOT
ATOM      1  C6  UNL     1      21.991   1.710  27.776  0.00  0.00    +0.225 C 
ATOM      2  O1  UNL     1      22.698   2.675  27.374  0.00  0.00    -0.275 OA
ATOM      3  N1  UNL     1      20.738   1.449  27.115  0.00  0.00    -0.301 N 
ATOM      4  C7  UNL     1      19.489   1.417  27.889  0.00  0.00    +0.109 C 
ATOM      5  C8  UNL     1      18.259   1.405  26.974  0.00  0.00    +0.041 C 
ATOM      6  C9  UNL     1      18.397   0.311  25.894  0.00  0.00    +0.079 C 
ATOM      7  C16 UNL     1      19.755   0.355  25.140  0.00  0.00    +0.041 C 
ATOM      8  C17 UNL     1      20.696   1.454  25.648  0.00  0.00    +0.109 C 
ENDROOT
BRANCH   6   9
ATOM      9  N2  UNL     1      17.260   0.369  24.953  0.00  0.00    -0.301 N 
ATOM     10  C10 UNL     1      16.055  -0.439  25.185  0.00  0.00    +0.132 C 
ATOM     11  C11 UNL     1      17.309   1.263  23.820  0.00  0.00    +0.221 C 
ATOM     12  O2  UNL     1      17.989   2.324  23.884  0.00  0.00    -0.275 OA
BRANCH  11  13
ATOM     13  C12 UNL     1      16.544   0.976  22.555  0.00  0.00    +0.044 C 
ATOM     14  C13 UNL     1      16.657  -0.413  21.924  0.00  0.00    +0.021 C 
ATOM     15  C14 UNL     1      15.157   1.608  22.498  0.00  0.00    +0.017 C 
ATOM     16  C15 UNL     1      16.280   2.156  21.628  0.00  0.00    +0.017 C 
ENDBRANCH  11  13
ENDBRANCH   6   9
BRANCH   1  17
ATOM     17  C3  UNL     1      22.473   0.863  28.950  0.00  0.00    +0.059 C 
ATOM     18  C4  UNL     1      21.749   1.290  30.248  0.00  0.00    +0.025 C 
ATOM     19  C5  UNL     1      22.141  -0.615  28.672  0.00  0.00    +0.025 C 
BRANCH  17  21
ATOM     20  C1  UNL     1      24.805  -0.030  29.235  0.00  0.00    +0.005 C 
ATOM     21  C2  UNL     1      23.972   1.017  29.161  0.00  0.00    -0.019 C 
ENDBRANCH  17  21
ENDBRANCH   1  17
TORSDOF 4
ENDMDL
MODEL 8
REMARK VINA RESULT:    -4.975      5.063      8.022
REMARK INTER + INTRA:          -5.973
REMARK INTER:                  -5.973
REMARK INTRA:                   0.000
REMARK UNBOUND:                 0.166
REMARK  Name = /home/qwerty/github/datacon2025hack/step_04_hit_selection/docking/ligands/lig_623.pdb
REMARK  8 active torsions:
REMARK  status: ('A' for Active; 'I' for Inactive)
REMARK    1  A    between atoms: C2_2  and  C3_3
REMARK    2  A    between atoms: C3_3  and  C4_4
REMARK    3  A    between atoms: C3_3  and  C5_5
REMARK    4  A    between atoms: C3_3  and  C6_6
REMARK    5  A    between atoms: C9_11  and  N2_12
REMARK    6  A    between atoms: N2_12  and  C10_13
REMARK    7  A    between atoms: C11_14  and  C12_16
REMARK    8  A    between atoms: C12_16  and  C13_17
REMARK                            x       y       z     vdW  Elec       q    Type
REMARK                         _______ _______ _______ _____ _____    ______ ____
ROOT
ATOM      1  C6  UNL     1      15.804  -0.357  23.915  0.00  0.00    +0.225 C 
ATOM      2  O1  UNL     1      16.846  -0.139  23.237  0.00  0.00    -0.275 OA
ATOM      3  N1  UNL     1      14.629   0.431  23.648  0.00  0.00    -0.301 N 
ATOM      4  C7  UNL     1      13.996   1.201  24.730  0.00  0.00    +0.109 C 
ATOM      5  C8  UNL     1      12.945   2.176  24.186  0.00  0.00    +0.041 C 
ATOM      6  C9  UNL     1      11.973   1.451  23.233  0.00  0.00    +0.079 C 
ATOM      7  C16 UNL     1      12.690   0.610  22.140  0.00  0.00    +0.041 C 
ATOM      8  C17 UNL     1      14.218   0.644  22.255  0.00  0.00    +0.109 C 
ENDROOT
BRANCH   6   9
ATOM      9  N2  UNL     1      11.026   2.413  22.632  0.00  0.00    -0.301 N 
ATOM     10  C10 UNL     1      11.342   3.080  21.363  0.00  0.00    +0.132 C 
ATOM     11  C11 UNL     1       9.755   2.665  23.271  0.00  0.00    +0.221 C 
ATOM     12  O2  UNL     1       9.214   1.766  23.973  0.00  0.00    -0.275 OA
BRANCH  11  13
ATOM     13  C12 UNL     1       9.035   3.976  23.104  0.00  0.00    +0.044 C 
ATOM     14  C13 UNL     1       9.767   5.271  23.466  0.00  0.00    +0.021 C 
ATOM     15  C14 UNL     1       8.142   4.056  21.870  0.00  0.00    +0.017 C 
ATOM     16  C15 UNL     1       7.520   3.954  23.256  0.00  0.00    +0.017 C 
ENDBRANCH  11  13
ENDBRANCH   6   9
BRANCH   1  17
ATOM     17  C3  UNL     1      15.824  -1.430  25.000  0.00  0.00    +0.059 C 
ATOM     18  C4  UNL     1      16.804  -2.562  24.613  0.00  0.00    +0.025 C 
ATOM     19  C5  UNL     1      16.305  -0.800  26.320  0.00  0.00    +0.025 C 
BRANCH  17  21
ATOM     20  C1  UNL     1      13.942  -2.319  26.410  0.00  0.00    +0.005 C 
ATOM     21  C2  UNL     1      14.442  -2.036  25.199  0.00  0.00    -0.019 C 
ENDBRANCH  17  21
ENDBRANCH   1  17
TORSDOF 4
ENDMDL
MODEL 9
REMARK VINA RESULT:    -4.926      7.780     11.131
REMARK INTER + INTRA:          -5.913
REMARK INTER:                  -6.067
REMARK INTRA:                   0.154
REMARK UNBOUND:                 0.166
REMARK  Name = /home/qwerty/github/datacon2025hack/step_04_hit_selection/docking/ligands/lig_623.pdb
REMARK  8 active torsions:
REMARK  status: ('A' for Active; 'I' for Inactive)
REMARK    1  A    between atoms: C2_2  and  C3_3
REMARK    2  A    between atoms: C3_3  and  C4_4
REMARK    3  A    between atoms: C3_3  and  C5_5
REMARK    4  A    between atoms: C3_3  and  C6_6
REMARK    5  A    between atoms: C9_11  and  N2_12
REMARK    6  A    between atoms: N2_12  and  C10_13
REMARK    7  A    between atoms: C11_14  and  C12_16
REMARK    8  A    between atoms: C12_16  and  C13_17
REMARK                            x       y       z     vdW  Elec       q    Type
REMARK                         _______ _______ _______ _____ _____    ______ ____
ROOT
ATOM      1  C6  UNL     1      13.413   1.637  21.425  0.00  0.00    +0.225 C 
ATOM      2  O1  UNL     1      12.650   0.688  21.757  0.00  0.00    -0.275 OA
ATOM      3  N1  UNL     1      12.841   2.942  21.217  0.00  0.00    -0.301 N 
ATOM      4  C7  UNL     1      13.028   3.633  19.933  0.00  0.00    +0.109 C 
ATOM      5  C8  UNL     1      12.120   4.864  19.818  0.00  0.00    +0.041 C 
ATOM      6  C9  UNL     1      12.249   5.753  21.073  0.00  0.00    +0.079 C 
ATOM      7  C16 UNL     1      12.096   4.967  22.405  0.00  0.00    +0.041 C 
ATOM      8  C17 UNL     1      11.884   3.462  22.201  0.00  0.00    +0.109 C 
ENDROOT
BRANCH   6   9
ATOM      9  N2  UNL     1      11.299   6.882  21.005  0.00  0.00    -0.301 N 
ATOM     10  C10 UNL     1       9.943   6.687  20.475  0.00  0.00    +0.132 C 
ATOM     11  C11 UNL     1      11.687   8.178  21.509  0.00  0.00    +0.221 C 
ATOM     12  O2  UNL     1      12.537   8.265  22.437  0.00  0.00    -0.275 OA
BRANCH  11  13
ATOM     13  C12 UNL     1      11.082   9.447  20.968  0.00  0.00    +0.044 C 
ATOM     14  C13 UNL     1       9.914  10.087  21.722  0.00  0.00    +0.021 C 
ATOM     15  C14 UNL     1      12.091  10.427  20.377  0.00  0.00    +0.017 C 
ATOM     16  C15 UNL     1      11.151   9.655  19.461  0.00  0.00    +0.017 C 
ENDBRANCH  11  13
ENDBRANCH   6   9
BRANCH   1  17
ATOM     17  C3  UNL     1      14.904   1.373  21.239  0.00  0.00    +0.059 C 
ATOM     18  C4  UNL     1      15.361   0.219  22.160  0.00  0.00    +0.025 C 
ATOM     19  C5  UNL     1      15.162   0.961  19.778  0.00  0.00    +0.025 C 
BRANCH  17  21
ATOM     20  C1  UNL     1      16.836   2.946  20.898  0.00  0.00    +0.005 C 
ATOM     21  C2  UNL     1      15.727   2.610  21.571  0.00  0.00    -0.019 C 
ENDBRANCH  17  21
ENDBRANCH   1  17
TORSDOF 4
ENDMDL
