MODEL 1
REMARK VINA RESULT:    -6.452      0.000      0.000
REMARK INTER + INTRA:          -9.919
REMARK INTER:                  -8.716
REMARK INTRA:                  -1.203
REMARK UNBOUND:                -1.203
REMARK  Name = /home/qwerty/github/datacon2025hack/step_04_hit_selection/docking/ligands/lig_456.pdb
REMARK  12 active torsions:
REMARK  status: ('A' for Active; 'I' for Inactive)
REMARK    1  A    between atoms: C1_1  and  C2_2
REMARK    2  A    between atoms: C4_4  and  C5_5
REMARK    3  A    between atoms: C5_5  and  N1_6
REMARK    4  A    between atoms: C9_13  and  C10_14
REMARK    5  A    between atoms: C10_14  and  C11_15
REMARK    6  A    between atoms: C11_15  and  C12_16
REMARK    7  A    between atoms: C11_15  and  C13_17
REMARK    8  A    between atoms: C11_15  and  C14_18
REMARK    9  A    between atoms: N5_19  and  C15_20
REMARK   10  A    between atoms: C15_20  and  C16_21
REMARK   11  A    between atoms: C17_23  and  C18_24
REMARK   12  A    between atoms: C19_25  and  C20_26
REMARK                            x       y       z     vdW  Elec       q    Type
REMARK                         _______ _______ _______ _____ _____    ______ ____
ROOT
ATOM      1  N1  UNL     1      12.563   2.254  21.975  0.00  0.00    -0.294 NA
ATOM      2  C6  UNL     1      13.038   3.524  22.573  0.00  0.00    +0.104 C 
ATOM      3  C7  UNL     1      11.898   4.317  23.221  0.00  0.00    +0.123 C 
ATOM      4  N2  UNL     1      10.838   4.572  22.244  0.00  0.00    -0.297 N 
ATOM      5  C8  UNL     1       9.816   5.532  22.558  0.00  0.00    +0.220 A 
ATOM      6  N3  UNL     1       9.223   5.599  23.763  0.00  0.00    -0.113 NA
ATOM      7  N4  UNL     1       8.429   6.658  23.737  0.00  0.00    -0.133 NA
ATOM      8  C9  UNL     1       8.574   7.246  22.531  0.00  0.00    +0.136 A 
ATOM      9  N5  UNL     1       9.422   6.538  21.745  0.00  0.00    -0.293 N 
ATOM     10  C21 UNL     1      10.768   3.761  21.027  0.00  0.00    +0.123 C 
ATOM     11  C22 UNL     1      11.221   2.329  21.333  0.00  0.00    +0.104 C 
ENDROOT
BRANCH   1  12
ATOM     12  C5  UNL     1      13.588   1.705  21.066  0.00  0.00    +0.143 C 
BRANCH  12  16
ATOM     13  C1  UNL     1      17.201  -1.553  22.399  0.00  0.00    +0.089 C 
ATOM     14  C2  UNL     1      15.933  -0.774  22.301  0.00  0.00    +0.135 A 
ATOM     15  C3  UNL     1      15.675   0.251  21.417  0.00  0.00    +0.072 A 
ATOM     16  C4  UNL     1      14.393   0.641  21.750  0.00  0.00    +0.098 A 
ATOM     17  N7  UNL     1      13.930  -0.123  22.759  0.00  0.00    -0.082 NA
ATOM     18  O1  UNL     1      14.883  -0.955  23.068  0.00  0.00    -0.360 OA
ENDBRANCH  12  16
ENDBRANCH   1  12
BRANCH   8  19
ATOM     19  C10 UNL     1       7.821   8.489  22.102  0.00  0.00    +0.082 C 
BRANCH  19  20
ATOM     20  C11 UNL     1       8.191   9.815  22.839  0.00  0.00    -0.031 C 
ATOM     21  C12 UNL     1       8.051  10.977  21.830  0.00  0.00    +0.011 C 
ATOM     22  C13 UNL     1       9.651   9.779  23.338  0.00  0.00    +0.011 C 
ATOM     23  C14 UNL     1       7.235  10.094  24.021  0.00  0.00    +0.011 C 
ENDBRANCH  19  20
ENDBRANCH   8  19
BRANCH   9  24
ATOM     24  C15 UNL     1       9.959   6.890  20.426  0.00  0.00    +0.189 C 
BRANCH  24  25
ATOM     25  C16 UNL     1      11.014   7.938  20.571  0.00  0.00    +0.099 A 
ATOM     26  N6  UNL     1      12.083   7.809  21.386  0.00  0.00    -0.247 NA
ATOM     27  C17 UNL     1      12.834   8.941  21.428  0.00  0.00    +0.049 A 
ATOM     28  C18 UNL     1      14.089   9.016  22.240  0.00  0.00    +0.066 C 
ATOM     29  C19 UNL     1      12.357   9.986  20.635  0.00  0.00    +0.009 A 
ATOM     30  C20 UNL     1      12.980  11.331  20.460  0.00  0.00    +0.053 C 
ATOM     31  S1  UNL     1      10.945   9.469  19.877  0.00  0.00    -0.075 S 
ENDBRANCH  24  25
ENDBRANCH   9  24
TORSDOF 6
ENDMDL
MODEL 2
REMARK VINA RESULT:    -5.986     12.785     14.716
REMARK INTER + INTRA:          -9.288
REMARK INTER:                  -8.484
REMARK INTRA:                  -0.805
REMARK UNBOUND:                -1.203
REMARK  Name = /home/qwerty/github/datacon2025hack/step_04_hit_selection/docking/ligands/lig_456.pdb
REMARK  12 active torsions:
REMARK  status: ('A' for Active; 'I' for Inactive)
REMARK    1  A    between atoms: C1_1  and  C2_2
REMARK    2  A    between atoms: C4_4  and  C5_5
REMARK    3  A    between atoms: C5_5  and  N1_6
REMARK    4  A    between atoms: C9_13  and  C10_14
REMARK    5  A    between atoms: C10_14  and  C11_15
REMARK    6  A    between atoms: C11_15  and  C12_16
REMARK    7  A    between atoms: C11_15  and  C13_17
REMARK    8  A    between atoms: C11_15  and  C14_18
REMARK    9  A    between atoms: N5_19  and  C15_20
REMARK   10  A    between atoms: C15_20  and  C16_21
REMARK   11  A    between atoms: C17_23  and  C18_24
REMARK   12  A    between atoms: C19_25  and  C20_26
REMARK                            x       y       z     vdW  Elec       q    Type
REMARK                         _______ _______ _______ _____ _____    ______ ____
ROOT
ATOM      1  N1  UNL     1      20.597   1.526  30.432  0.00  0.00    -0.294 NA
ATOM      2  C6  UNL     1      20.667   1.065  31.839  0.00  0.00    +0.104 C 
ATOM      3  C7  UNL     1      19.931   2.012  32.792  0.00  0.00    +0.123 C 
ATOM      4  N2  UNL     1      20.462   3.371  32.668  0.00  0.00    -0.297 N 
ATOM      5  C8  UNL     1      20.114   4.348  33.661  0.00  0.00    +0.220 A 
ATOM      6  N3  UNL     1      18.867   4.489  34.142  0.00  0.00    -0.113 NA
ATOM      7  N4  UNL     1      18.932   5.388  35.111  0.00  0.00    -0.133 NA
ATOM      8  C9  UNL     1      20.223   5.760  35.235  0.00  0.00    +0.136 A 
ATOM      9  N5  UNL     1      20.996   5.144  34.307  0.00  0.00    -0.293 N 
ATOM     10  C21 UNL     1      21.231   3.739  31.477  0.00  0.00    +0.123 C 
ATOM     11  C22 UNL     1      20.673   3.003  30.254  0.00  0.00    +0.104 C 
ENDROOT
BRANCH   1  12
ATOM     12  C5  UNL     1      21.596   0.812  29.612  0.00  0.00    +0.143 C 
BRANCH  12  16
ATOM     13  C1  UNL     1      22.752   3.466  25.481  0.00  0.00    +0.089 C 
ATOM     14  C2  UNL     1      22.126   2.532  26.461  0.00  0.00    +0.135 A 
ATOM     15  C3  UNL     1      22.522   2.337  27.766  0.00  0.00    +0.072 A 
ATOM     16  C4  UNL     1      21.646   1.373  28.222  0.00  0.00    +0.098 A 
ATOM     17  N7  UNL     1      20.783   1.039  27.243  0.00  0.00    -0.082 NA
ATOM     18  O1  UNL     1      21.105   1.748  26.200  0.00  0.00    -0.360 OA
ENDBRANCH  12  16
ENDBRANCH   1  12
BRANCH   8  19
ATOM     19  C10 UNL     1      20.713   6.789  36.234  0.00  0.00    +0.082 C 
BRANCH  19  20
ATOM     20  C11 UNL     1      20.363   8.279  35.924  0.00  0.00    -0.031 C 
ATOM     21  C12 UNL     1      21.688   9.055  35.752  0.00  0.00    +0.011 C 
ATOM     22  C13 UNL     1      19.576   8.914  37.089  0.00  0.00    +0.011 C 
ATOM     23  C14 UNL     1      19.561   8.412  34.610  0.00  0.00    +0.011 C 
ENDBRANCH  19  20
ENDBRANCH   8  19
BRANCH   9  24
ATOM     24  C15 UNL     1      22.458   5.157  34.177  0.00  0.00    +0.189 C 
BRANCH  24  25
ATOM     25  C16 UNL     1      22.899   6.429  33.530  0.00  0.00    +0.099 A 
ATOM     26  N6  UNL     1      22.173   7.076  32.592  0.00  0.00    -0.247 NA
ATOM     27  C17 UNL     1      22.839   8.143  32.077  0.00  0.00    +0.049 A 
ATOM     28  C18 UNL     1      22.215   9.030  31.047  0.00  0.00    +0.066 C 
ATOM     29  C19 UNL     1      24.112   8.349  32.613  0.00  0.00    +0.009 A 
ATOM     30  C20 UNL     1      25.060   9.449  32.265  0.00  0.00    +0.053 C 
ATOM     31  S1  UNL     1      24.405   7.144  33.752  0.00  0.00    -0.075 S 
ENDBRANCH  24  25
ENDBRANCH   9  24
TORSDOF 6
ENDMDL
MODEL 3
REMARK VINA RESULT:    -5.890     14.147     15.663
REMARK INTER + INTRA:          -9.160
REMARK INTER:                  -7.936
REMARK INTRA:                  -1.224
REMARK UNBOUND:                -1.203
REMARK  Name = /home/qwerty/github/datacon2025hack/step_04_hit_selection/docking/ligands/lig_456.pdb
REMARK  12 active torsions:
REMARK  status: ('A' for Active; 'I' for Inactive)
REMARK    1  A    between atoms: C1_1  and  C2_2
REMARK    2  A    between atoms: C4_4  and  C5_5
REMARK    3  A    between atoms: C5_5  and  N1_6
REMARK    4  A    between atoms: C9_13  and  C10_14
REMARK    5  A    between atoms: C10_14  and  C11_15
REMARK    6  A    between atoms: C11_15  and  C12_16
REMARK    7  A    between atoms: C11_15  and  C13_17
REMARK    8  A    between atoms: C11_15  and  C14_18
REMARK    9  A    between atoms: N5_19  and  C15_20
REMARK   10  A    between atoms: C15_20  and  C16_21
REMARK   11  A    between atoms: C17_23  and  C18_24
REMARK   12  A    between atoms: C19_25  and  C20_26
REMARK                            x       y       z     vdW  Elec       q    Type
REMARK                         _______ _______ _______ _____ _____    ______ ____
ROOT
ATOM      1  N1  UNL     1      19.467   9.915  35.625  0.00  0.00    -0.294 NA
ATOM      2  C6  UNL     1      18.243   9.316  35.042  0.00  0.00    +0.104 C 
ATOM      3  C7  UNL     1      17.421  10.342  34.255  0.00  0.00    +0.123 C 
ATOM      4  N2  UNL     1      17.081  11.482  35.107  0.00  0.00    -0.297 N 
ATOM      5  C8  UNL     1      16.085  12.416  34.659  0.00  0.00    +0.220 A 
ATOM      6  N3  UNL     1      16.032  12.878  33.398  0.00  0.00    -0.113 NA
ATOM      7  N4  UNL     1      14.936  13.615  33.307  0.00  0.00    -0.133 NA
ATOM      8  C9  UNL     1      14.314  13.565  34.504  0.00  0.00    +0.136 A 
ATOM      9  N5  UNL     1      15.033  12.840  35.395  0.00  0.00    -0.293 N 
ATOM     10  C21 UNL     1      17.844  11.719  36.335  0.00  0.00    +0.123 C 
ATOM     11  C22 UNL     1      19.305  11.310  36.121  0.00  0.00    +0.104 C 
ENDROOT
BRANCH   1  12
ATOM     12  C5  UNL     1      20.031   9.018  36.653  0.00  0.00    +0.143 C 
BRANCH  12  16
ATOM     13  C1  UNL     1      24.041   7.085  34.280  0.00  0.00    +0.089 C 
ATOM     14  C2  UNL     1      22.755   7.269  35.013  0.00  0.00    +0.135 A 
ATOM     15  C3  UNL     1      22.209   8.470  35.409  0.00  0.00    +0.072 A 
ATOM     16  C4  UNL     1      21.049   8.094  36.055  0.00  0.00    +0.098 A 
ATOM     17  N7  UNL     1      20.922   6.752  36.022  0.00  0.00    -0.082 NA
ATOM     18  O1  UNL     1      21.967   6.291  35.396  0.00  0.00    -0.360 OA
ENDBRANCH  12  16
ENDBRANCH   1  12
BRANCH   8  19
ATOM     19  C10 UNL     1      13.022  14.294  34.814  0.00  0.00    +0.082 C 
BRANCH  19  20
ATOM     20  C11 UNL     1      11.760  13.842  34.014  0.00  0.00    -0.031 C 
ATOM     21  C12 UNL     1      10.520  14.080  34.904  0.00  0.00    +0.011 C 
ATOM     22  C13 UNL     1      11.831  12.338  33.675  0.00  0.00    +0.011 C 
ATOM     23  C14 UNL     1      11.581  14.667  32.720  0.00  0.00    +0.011 C 
ENDBRANCH  19  20
ENDBRANCH   8  19
BRANCH   9  24
ATOM     24  C15 UNL     1      14.660  12.424  36.752  0.00  0.00    +0.189 C 
BRANCH  24  25
ATOM     25  C16 UNL     1      13.663  11.313  36.687  0.00  0.00    +0.099 A 
ATOM     26  N6  UNL     1      13.883  10.157  36.025  0.00  0.00    -0.247 NA
ATOM     27  C17 UNL     1      12.784   9.356  36.017  0.00  0.00    +0.049 A 
ATOM     28  C18 UNL     1      12.806   8.006  35.372  0.00  0.00    +0.066 C 
ATOM     29  C19 UNL     1      11.676   9.882  36.682  0.00  0.00    +0.009 A 
ATOM     30  C20 UNL     1      10.347   9.226  36.862  0.00  0.00    +0.053 C 
ATOM     31  S1  UNL     1      12.092  11.400  37.279  0.00  0.00    -0.075 S 
ENDBRANCH  24  25
ENDBRANCH   9  24
TORSDOF 6
ENDMDL
MODEL 4
REMARK VINA RESULT:    -5.860      2.428      4.121
REMARK INTER + INTRA:          -9.118
REMARK INTER:                  -8.254
REMARK INTRA:                  -0.865
REMARK UNBOUND:                -1.203
REMARK  Name = /home/qwerty/github/datacon2025hack/step_04_hit_selection/docking/ligands/lig_456.pdb
REMARK  12 active torsions:
REMARK  status: ('A' for Active; 'I' for Inactive)
REMARK    1  A    between atoms: C1_1  and  C2_2
REMARK    2  A    between atoms: C4_4  and  C5_5
REMARK    3  A    between atoms: C5_5  and  N1_6
REMARK    4  A    between atoms: C9_13  and  C10_14
REMARK    5  A    between atoms: C10_14  and  C11_15
REMARK    6  A    between atoms: C11_15  and  C12_16
REMARK    7  A    between atoms: C11_15  and  C13_17
REMARK    8  A    between atoms: C11_15  and  C14_18
REMARK    9  A    between atoms: N5_19  and  C15_20
REMARK   10  A    between atoms: C15_20  and  C16_21
REMARK   11  A    between atoms: C17_23  and  C18_24
REMARK   12  A    between atoms: C19_25  and  C20_26
REMARK                            x       y       z     vdW  Elec       q    Type
REMARK                         _______ _______ _______ _____ _____    ______ ____
ROOT
ATOM      1  N1  UNL     1      14.219   2.418  21.359  0.00  0.00    -0.294 NA
ATOM      2  C6  UNL     1      12.831   2.134  21.793  0.00  0.00    +0.104 C 
ATOM      3  C7  UNL     1      11.819   3.083  21.144  0.00  0.00    +0.123 C 
ATOM      4  N2  UNL     1      12.173   4.474  21.427  0.00  0.00    -0.297 N 
ATOM      5  C8  UNL     1      11.213   5.508  21.157  0.00  0.00    +0.220 A 
ATOM      6  N3  UNL     1      10.476   5.544  20.033  0.00  0.00    -0.113 NA
ATOM      7  N4  UNL     1       9.625   6.549  20.167  0.00  0.00    -0.133 NA
ATOM      8  C9  UNL     1       9.828   7.093  21.386  0.00  0.00    +0.136 A 
ATOM      9  N5  UNL     1      10.851   6.478  22.028  0.00  0.00    -0.293 N 
ATOM     10  C21 UNL     1      13.534   4.799  21.863  0.00  0.00    +0.123 C 
ATOM     11  C22 UNL     1      14.533   3.863  21.174  0.00  0.00    +0.104 C 
ENDROOT
BRANCH   1  12
ATOM     12  C5  UNL     1      15.180   1.747  22.255  0.00  0.00    +0.143 C 
BRANCH  12  16
ATOM     13  C1  UNL     1      17.005  -1.408  18.767  0.00  0.00    +0.089 C 
ATOM     14  C2  UNL     1      16.642  -0.735  20.048  0.00  0.00    +0.135 A 
ATOM     15  C3  UNL     1      15.922   0.432  20.179  0.00  0.00    +0.072 A 
ATOM     16  C4  UNL     1      15.885   0.631  21.544  0.00  0.00    +0.098 A 
ATOM     17  N7  UNL     1      16.535  -0.371  22.170  0.00  0.00    -0.082 NA
ATOM     18  O1  UNL     1      16.981  -1.166  21.241  0.00  0.00    -0.360 OA
ENDBRANCH  12  16
ENDBRANCH   1  12
BRANCH   8  19
ATOM     19  C10 UNL     1       9.056   8.284  21.918  0.00  0.00    +0.082 C 
BRANCH  19  20
ATOM     20  C11 UNL     1       9.635   9.693  21.580  0.00  0.00    -0.031 C 
ATOM     21  C12 UNL     1       8.447  10.659  21.370  0.00  0.00    +0.011 C 
ATOM     22  C13 UNL     1      10.463   9.652  20.278  0.00  0.00    +0.011 C 
ATOM     23  C14 UNL     1      10.497  10.246  22.737  0.00  0.00    +0.011 C 
ENDBRANCH  19  20
ENDBRANCH   8  19
BRANCH   9  24
ATOM     24  C15 UNL     1      11.309   6.660  23.409  0.00  0.00    +0.189 C 
BRANCH  24  25
ATOM     25  C16 UNL     1      10.271   6.157  24.359  0.00  0.00    +0.099 A 
ATOM     26  N6  UNL     1       9.714   4.930  24.269  0.00  0.00    -0.247 NA
ATOM     27  C17 UNL     1       8.717   4.754  25.176  0.00  0.00    +0.049 A 
ATOM     28  C18 UNL     1       7.980   3.457  25.284  0.00  0.00    +0.066 C 
ATOM     29  C19 UNL     1       8.477   5.856  25.999  0.00  0.00    +0.009 A 
ATOM     30  C20 UNL     1       7.470   5.948  27.097  0.00  0.00    +0.053 C 
ATOM     31  S1  UNL     1       9.541   7.084  25.558  0.00  0.00    -0.075 S 
ENDBRANCH  24  25
ENDBRANCH   9  24
TORSDOF 6
ENDMDL
MODEL 5
REMARK VINA RESULT:    -5.798      7.043     10.897
REMARK INTER + INTRA:          -9.035
REMARK INTER:                  -8.034
REMARK INTRA:                  -1.001
REMARK UNBOUND:                -1.203
REMARK  Name = /home/qwerty/github/datacon2025hack/step_04_hit_selection/docking/ligands/lig_456.pdb
REMARK  12 active torsions:
REMARK  status: ('A' for Active; 'I' for Inactive)
REMARK    1  A    between atoms: C1_1  and  C2_2
REMARK    2  A    between atoms: C4_4  and  C5_5
REMARK    3  A    between atoms: C5_5  and  N1_6
REMARK    4  A    between atoms: C9_13  and  C10_14
REMARK    5  A    between atoms: C10_14  and  C11_15
REMARK    6  A    between atoms: C11_15  and  C12_16
REMARK    7  A    between atoms: C11_15  and  C13_17
REMARK    8  A    between atoms: C11_15  and  C14_18
REMARK    9  A    between atoms: N5_19  and  C15_20
REMARK   10  A    between atoms: C15_20  and  C16_21
REMARK   11  A    between atoms: C17_23  and  C18_24
REMARK   12  A    between atoms: C19_25  and  C20_26
REMARK                            x       y       z     vdW  Elec       q    Type
REMARK                         _______ _______ _______ _____ _____    ______ ____
ROOT
ATOM      1  N1  UNL     1      20.965   5.306  22.659  0.00  0.00    -0.294 NA
ATOM      2  C6  UNL     1      20.926   5.066  24.122  0.00  0.00    +0.104 C 
ATOM      3  C7  UNL     1      20.796   3.577  24.457  0.00  0.00    +0.123 C 
ATOM      4  N2  UNL     1      19.610   3.013  23.810  0.00  0.00    -0.297 N 
ATOM      5  C8  UNL     1      19.145   1.716  24.216  0.00  0.00    +0.220 A 
ATOM      6  N3  UNL     1      19.971   0.677  24.425  0.00  0.00    -0.113 NA
ATOM      7  N4  UNL     1      19.228  -0.312  24.896  0.00  0.00    -0.133 NA
ATOM      8  C9  UNL     1      17.962   0.145  25.001  0.00  0.00    +0.136 A 
ATOM      9  N5  UNL     1      17.867   1.419  24.546  0.00  0.00    -0.293 N 
ATOM     10  C21 UNL     1      18.995   3.721  22.685  0.00  0.00    +0.123 C 
ATOM     11  C22 UNL     1      20.082   4.415  21.856  0.00  0.00    +0.104 C 
ENDROOT
BRANCH   1  12
ATOM     12  C5  UNL     1      20.729   6.735  22.372  0.00  0.00    +0.143 C 
BRANCH  12  16
ATOM     13  C1  UNL     1      25.452   7.838  20.985  0.00  0.00    +0.089 C 
ATOM     14  C2  UNL     1      23.975   7.852  21.198  0.00  0.00    +0.135 A 
ATOM     15  C3  UNL     1      23.243   6.904  21.878  0.00  0.00    +0.072 A 
ATOM     16  C4  UNL     1      21.947   7.367  21.768  0.00  0.00    +0.098 A 
ATOM     17  N7  UNL     1      21.931   8.523  21.075  0.00  0.00    -0.082 NA
ATOM     18  O1  UNL     1      23.164   8.779  20.745  0.00  0.00    -0.360 OA
ENDBRANCH  12  16
ENDBRANCH   1  12
BRANCH   8  19
ATOM     19  C10 UNL     1      16.799  -0.694  25.492  0.00  0.00    +0.082 C 
BRANCH  19  20
ATOM     20  C11 UNL     1      16.398  -1.912  24.603  0.00  0.00    -0.031 C 
ATOM     21  C12 UNL     1      14.992  -2.381  25.041  0.00  0.00    +0.011 C 
ATOM     22  C13 UNL     1      17.383  -3.085  24.797  0.00  0.00    +0.011 C 
ATOM     23  C14 UNL     1      16.325  -1.526  23.108  0.00  0.00    +0.011 C 
ENDBRANCH  19  20
ENDBRANCH   8  19
BRANCH   9  24
ATOM     24  C15 UNL     1      16.719   2.330  24.606  0.00  0.00    +0.189 C 
BRANCH  24  25
ATOM     25  C16 UNL     1      15.691   1.918  23.604  0.00  0.00    +0.099 A 
ATOM     26  N6  UNL     1      15.913   1.907  22.272  0.00  0.00    -0.247 NA
ATOM     27  C17 UNL     1      14.790   1.605  21.569  0.00  0.00    +0.049 A 
ATOM     28  C18 UNL     1      14.808   1.500  20.077  0.00  0.00    +0.066 C 
ATOM     29  C19 UNL     1      13.658   1.372  22.352  0.00  0.00    +0.009 A 
ATOM     30  C20 UNL     1      12.297   0.996  21.865  0.00  0.00    +0.053 C 
ATOM     31  S1  UNL     1      14.086   1.568  23.968  0.00  0.00    -0.075 S 
ENDBRANCH  24  25
ENDBRANCH   9  24
TORSDOF 6
ENDMDL
MODEL 6
REMARK VINA RESULT:    -5.787      3.808      9.810
REMARK INTER + INTRA:          -9.020
REMARK INTER:                  -7.916
REMARK INTRA:                  -1.104
REMARK UNBOUND:                -1.203
REMARK  Name = /home/qwerty/github/datacon2025hack/step_04_hit_selection/docking/ligands/lig_456.pdb
REMARK  12 active torsions:
REMARK  status: ('A' for Active; 'I' for Inactive)
REMARK    1  A    between atoms: C1_1  and  C2_2
REMARK    2  A    between atoms: C4_4  and  C5_5
REMARK    3  A    between atoms: C5_5  and  N1_6
REMARK    4  A    between atoms: C9_13  and  C10_14
REMARK    5  A    between atoms: C10_14  and  C11_15
REMARK    6  A    between atoms: C11_15  and  C12_16
REMARK    7  A    between atoms: C11_15  and  C13_17
REMARK    8  A    between atoms: C11_15  and  C14_18
REMARK    9  A    between atoms: N5_19  and  C15_20
REMARK   10  A    between atoms: C15_20  and  C16_21
REMARK   11  A    between atoms: C17_23  and  C18_24
REMARK   12  A    between atoms: C19_25  and  C20_26
REMARK                            x       y       z     vdW  Elec       q    Type
REMARK                         _______ _______ _______ _____ _____    ______ ____
ROOT
ATOM      1  N1  UNL     1      12.046   5.043  20.721  0.00  0.00    -0.294 NA
ATOM      2  C6  UNL     1      12.345   4.924  22.168  0.00  0.00    +0.104 C 
ATOM      3  C7  UNL     1      13.805   4.539  22.423  0.00  0.00    +0.123 C 
ATOM      4  N2  UNL     1      14.132   3.295  21.725  0.00  0.00    -0.297 N 
ATOM      5  C8  UNL     1      15.352   2.610  22.053  0.00  0.00    +0.220 A 
ATOM      6  N3  UNL     1      16.523   3.247  22.226  0.00  0.00    -0.113 NA
ATOM      7  N4  UNL     1      17.395   2.337  22.630  0.00  0.00    -0.133 NA
ATOM      8  C9  UNL     1      16.739   1.162  22.733  0.00  0.00    +0.136 A 
ATOM      9  N5  UNL     1      15.447   1.292  22.343  0.00  0.00    -0.293 N 
ATOM     10  C21 UNL     1      13.279   2.838  20.625  0.00  0.00    +0.123 C 
ATOM     11  C22 UNL     1      12.739   4.048  19.855  0.00  0.00    +0.104 C 
ENDROOT
BRANCH   1  12
ATOM     12  C5  UNL     1      10.586   5.055  20.503  0.00  0.00    +0.143 C 
BRANCH  12  16
ATOM     13  C1  UNL     1      10.083  10.072  20.357  0.00  0.00    +0.089 C 
ATOM     14  C2  UNL     1       9.845   8.607  20.507  0.00  0.00    +0.135 A 
ATOM     15  C3  UNL     1      10.769   7.607  20.296  0.00  0.00    +0.072 A 
ATOM     16  C4  UNL     1      10.051   6.455  20.543  0.00  0.00    +0.098 A 
ATOM     17  N7  UNL     1       8.787   6.769  20.891  0.00  0.00    -0.082 NA
ATOM     18  O1  UNL     1       8.699   8.067  20.851  0.00  0.00    -0.360 OA
ENDBRANCH  12  16
ENDBRANCH   1  12
BRANCH   8  19
ATOM     19  C10 UNL     1      17.394  -0.137  23.157  0.00  0.00    +0.082 C 
BRANCH  19  20
ATOM     20  C11 UNL     1      17.879  -0.219  24.639  0.00  0.00    -0.031 C 
ATOM     21  C12 UNL     1      17.005   0.738  25.480  0.00  0.00    +0.011 C 
ATOM     22  C13 UNL     1      19.350   0.231  24.764  0.00  0.00    +0.011 C 
ATOM     23  C14 UNL     1      17.712  -1.644  25.213  0.00  0.00    +0.011 C 
ENDBRANCH  19  20
ENDBRANCH   8  19
BRANCH   9  24
ATOM     24  C15 UNL     1      14.361   0.310  22.427  0.00  0.00    +0.189 C 
BRANCH  24  25
ATOM     25  C16 UNL     1      13.977   0.098  23.855  0.00  0.00    +0.099 A 
ATOM     26  N6  UNL     1      14.190  -1.060  24.517  0.00  0.00    -0.247 NA
ATOM     27  C17 UNL     1      13.651  -1.042  25.765  0.00  0.00    +0.049 A 
ATOM     28  C18 UNL     1      13.794  -2.204  26.695  0.00  0.00    +0.066 C 
ATOM     29  C19 UNL     1      12.999   0.147  26.100  0.00  0.00    +0.009 A 
ATOM     30  C20 UNL     1      12.339   0.468  27.400  0.00  0.00    +0.053 C 
ATOM     31  S1  UNL     1      13.096   1.190  24.782  0.00  0.00    -0.075 S 
ENDBRANCH  24  25
ENDBRANCH   9  24
TORSDOF 6
ENDMDL
MODEL 7
REMARK VINA RESULT:    -5.748      5.302      9.356
REMARK INTER + INTRA:          -8.968
REMARK INTER:                  -8.134
REMARK INTRA:                  -0.834
REMARK UNBOUND:                -1.203
REMARK  Name = /home/qwerty/github/datacon2025hack/step_04_hit_selection/docking/ligands/lig_456.pdb
REMARK  12 active torsions:
REMARK  status: ('A' for Active; 'I' for Inactive)
REMARK    1  A    between atoms: C1_1  and  C2_2
REMARK    2  A    between atoms: C4_4  and  C5_5
REMARK    3  A    between atoms: C5_5  and  N1_6
REMARK    4  A    between atoms: C9_13  and  C10_14
REMARK    5  A    between atoms: C10_14  and  C11_15
REMARK    6  A    between atoms: C11_15  and  C12_16
REMARK    7  A    between atoms: C11_15  and  C13_17
REMARK    8  A    between atoms: C11_15  and  C14_18
REMARK    9  A    between atoms: N5_19  and  C15_20
REMARK   10  A    between atoms: C15_20  and  C16_21
REMARK   11  A    between atoms: C17_23  and  C18_24
REMARK   12  A    between atoms: C19_25  and  C20_26
REMARK                            x       y       z     vdW  Elec       q    Type
REMARK                         _______ _______ _______ _____ _____    ______ ____
ROOT
ATOM      1  N1  UNL     1       9.252  11.523  28.305  0.00  0.00    -0.294 NA
ATOM      2  C6  UNL     1       7.947  10.844  28.123  0.00  0.00    +0.104 C 
ATOM      3  C7  UNL     1       8.112   9.411  27.608  0.00  0.00    +0.123 C 
ATOM      4  N2  UNL     1       8.876   9.405  26.359  0.00  0.00    -0.297 N 
ATOM      5  C8  UNL     1       8.903   8.208  25.564  0.00  0.00    +0.220 A 
ATOM      6  N3  UNL     1       9.065   6.983  26.093  0.00  0.00    -0.113 NA
ATOM      7  N4  UNL     1       8.923   6.118  25.102  0.00  0.00    -0.133 NA
ATOM      8  C9  UNL     1       8.641   6.822  23.985  0.00  0.00    +0.136 A 
ATOM      9  N5  UNL     1       8.653   8.154  24.235  0.00  0.00    -0.293 N 
ATOM     10  C21 UNL     1       9.692  10.568  26.006  0.00  0.00    +0.123 C 
ATOM     11  C22 UNL     1      10.278  11.192  27.277  0.00  0.00    +0.104 C 
ENDROOT
BRANCH   1  12
ATOM     12  C5  UNL     1       9.052  12.979  28.447  0.00  0.00    +0.143 C 
BRANCH  12  16
ATOM     13  C1  UNL     1      12.863  14.614  31.319  0.00  0.00    +0.089 C 
ATOM     14  C2  UNL     1      11.915  14.364  30.195  0.00  0.00    +0.135 A 
ATOM     15  C3  UNL     1      10.809  13.543  30.233  0.00  0.00    +0.072 A 
ATOM     16  C4  UNL     1      10.298  13.642  28.954  0.00  0.00    +0.098 A 
ATOM     17  N7  UNL     1      11.055  14.484  28.222  0.00  0.00    -0.082 NA
ATOM     18  O1  UNL     1      12.019  14.891  28.997  0.00  0.00    -0.360 OA
ENDBRANCH  12  16
ENDBRANCH   1  12
BRANCH   8  19
ATOM     19  C10 UNL     1       8.420   6.193  22.624  0.00  0.00    +0.082 C 
BRANCH  19  20
ATOM     20  C11 UNL     1       9.698   5.725  21.860  0.00  0.00    -0.031 C 
ATOM     21  C12 UNL     1       9.547   4.217  21.558  0.00  0.00    +0.011 C 
ATOM     22  C13 UNL     1      10.961   5.922  22.724  0.00  0.00    +0.011 C 
ATOM     23  C14 UNL     1       9.858   6.465  20.513  0.00  0.00    +0.011 C 
ENDBRANCH  19  20
ENDBRANCH   8  19
BRANCH   9  24
ATOM     24  C15 UNL     1       8.269   9.257  23.348  0.00  0.00    +0.189 C 
BRANCH  24  25
ATOM     25  C16 UNL     1       9.425   9.636  22.480  0.00  0.00    +0.099 A 
ATOM     26  N6  UNL     1       9.300   9.955  21.173  0.00  0.00    -0.247 NA
ATOM     27  C17 UNL     1      10.505  10.150  20.577  0.00  0.00    +0.049 A 
ATOM     28  C18 UNL     1      10.610  10.548  19.139  0.00  0.00    +0.066 C 
ATOM     29  C19 UNL     1      11.605   9.985  21.420  0.00  0.00    +0.009 A 
ATOM     30  C20 UNL     1      13.043  10.159  21.057  0.00  0.00    +0.053 C 
ATOM     31  S1  UNL     1      11.039   9.568  22.950  0.00  0.00    -0.075 S 
ENDBRANCH  24  25
ENDBRANCH   9  24
TORSDOF 6
ENDMDL
MODEL 8
REMARK VINA RESULT:    -5.593      6.633     10.220
REMARK INTER + INTRA:          -8.758
REMARK INTER:                  -7.760
REMARK INTRA:                  -0.998
REMARK UNBOUND:                -1.203
REMARK  Name = /home/qwerty/github/datacon2025hack/step_04_hit_selection/docking/ligands/lig_456.pdb
REMARK  12 active torsions:
REMARK  status: ('A' for Active; 'I' for Inactive)
REMARK    1  A    between atoms: C1_1  and  C2_2
REMARK    2  A    between atoms: C4_4  and  C5_5
REMARK    3  A    between atoms: C5_5  and  N1_6
REMARK    4  A    between atoms: C9_13  and  C10_14
REMARK    5  A    between atoms: C10_14  and  C11_15
REMARK    6  A    between atoms: C11_15  and  C12_16
REMARK    7  A    between atoms: C11_15  and  C13_17
REMARK    8  A    between atoms: C11_15  and  C14_18
REMARK    9  A    between atoms: N5_19  and  C15_20
REMARK   10  A    between atoms: C15_20  and  C16_21
REMARK   11  A    between atoms: C17_23  and  C18_24
REMARK   12  A    between atoms: C19_25  and  C20_26
REMARK                            x       y       z     vdW  Elec       q    Type
REMARK                         _______ _______ _______ _____ _____    ______ ____
ROOT
ATOM      1  N1  UNL     1      20.534   2.163  27.627  0.00  0.00    -0.294 NA
ATOM      2  C6  UNL     1      20.565   1.493  26.305  0.00  0.00    +0.104 C 
ATOM      3  C7  UNL     1      20.070   2.412  25.183  0.00  0.00    +0.123 C 
ATOM      4  N2  UNL     1      18.723   2.899  25.482  0.00  0.00    -0.297 N 
ATOM      5  C8  UNL     1      17.965   3.539  24.443  0.00  0.00    +0.220 A 
ATOM      6  N3  UNL     1      18.498   4.442  23.602  0.00  0.00    -0.113 NA
ATOM      7  N4  UNL     1      17.562   4.731  22.712  0.00  0.00    -0.133 NA
ATOM      8  C9  UNL     1      16.481   3.976  22.998  0.00  0.00    +0.136 A 
ATOM      9  N5  UNL     1      16.691   3.231  24.111  0.00  0.00    -0.293 N 
ATOM     10  C21 UNL     1      18.221   2.837  26.857  0.00  0.00    +0.123 C 
ATOM     11  C22 UNL     1      19.374   3.074  27.838  0.00  0.00    +0.104 C 
ENDROOT
BRANCH   1  12
ATOM     12  C5  UNL     1      20.664   1.164  28.706  0.00  0.00    +0.143 C 
BRANCH  12  16
ATOM     13  C1  UNL     1      24.758  -1.768  29.015  0.00  0.00    +0.089 C 
ATOM     14  C2  UNL     1      23.821  -0.608  28.952  0.00  0.00    +0.135 A 
ATOM     15  C3  UNL     1      22.451  -0.676  28.823  0.00  0.00    +0.072 A 
ATOM     16  C4  UNL     1      22.070   0.650  28.791  0.00  0.00    +0.098 A 
ATOM     17  N7  UNL     1      23.155   1.441  28.911  0.00  0.00    -0.082 NA
ATOM     18  O1  UNL     1      24.187   0.652  28.997  0.00  0.00    -0.360 OA
ENDBRANCH  12  16
ENDBRANCH   1  12
BRANCH   8  19
ATOM     19  C10 UNL     1      15.186   4.024  22.213  0.00  0.00    +0.082 C 
BRANCH  19  20
ATOM     20  C11 UNL     1      15.179   3.288  20.837  0.00  0.00    -0.031 C 
ATOM     21  C12 UNL     1      14.211   2.088  20.942  0.00  0.00    +0.011 C 
ATOM     22  C13 UNL     1      16.584   2.749  20.493  0.00  0.00    +0.011 C 
ATOM     23  C14 UNL     1      14.674   4.207  19.702  0.00  0.00    +0.011 C 
ENDBRANCH  19  20
ENDBRANCH   8  19
BRANCH   9  24
ATOM     24  C15 UNL     1      15.840   2.184  24.687  0.00  0.00    +0.189 C 
BRANCH  24  25
ATOM     25  C16 UNL     1      16.369   0.837  24.312  0.00  0.00    +0.099 A 
ATOM     26  N6  UNL     1      16.499   0.420  23.035  0.00  0.00    -0.247 NA
ATOM     27  C17 UNL     1      16.893  -0.879  22.960  0.00  0.00    +0.049 A 
ATOM     28  C18 UNL     1      17.136  -1.546  21.643  0.00  0.00    +0.066 C 
ATOM     29  C19 UNL     1      17.078  -1.503  24.194  0.00  0.00    +0.009 A 
ATOM     30  C20 UNL     1      17.530  -2.908  24.427  0.00  0.00    +0.053 C 
ATOM     31  S1  UNL     1      16.721  -0.391  25.406  0.00  0.00    -0.075 S 
ENDBRANCH  24  25
ENDBRANCH   9  24
TORSDOF 6
ENDMDL
MODEL 9
REMARK VINA RESULT:    -5.590     12.874     15.760
REMARK INTER + INTRA:          -8.754
REMARK INTER:                  -7.515
REMARK INTRA:                  -1.239
REMARK UNBOUND:                -1.203
REMARK  Name = /home/qwerty/github/datacon2025hack/step_04_hit_selection/docking/ligands/lig_456.pdb
REMARK  12 active torsions:
REMARK  status: ('A' for Active; 'I' for Inactive)
REMARK    1  A    between atoms: C1_1  and  C2_2
REMARK    2  A    between atoms: C4_4  and  C5_5
REMARK    3  A    between atoms: C5_5  and  N1_6
REMARK    4  A    between atoms: C9_13  and  C10_14
REMARK    5  A    between atoms: C10_14  and  C11_15
REMARK    6  A    between atoms: C11_15  and  C12_16
REMARK    7  A    between atoms: C11_15  and  C13_17
REMARK    8  A    between atoms: C11_15  and  C14_18
REMARK    9  A    between atoms: N5_19  and  C15_20
REMARK   10  A    between atoms: C15_20  and  C16_21
REMARK   11  A    between atoms: C17_23  and  C18_24
REMARK   12  A    between atoms: C19_25  and  C20_26
REMARK                            x       y       z     vdW  Elec       q    Type
REMARK                         _______ _______ _______ _____ _____    ______ ____
ROOT
ATOM      1  N1  UNL     1      11.680  12.526  32.206  0.00  0.00    -0.294 NA
ATOM      2  C6  UNL     1      13.030  12.065  31.803  0.00  0.00    +0.104 C 
ATOM      3  C7  UNL     1      13.483  10.841  32.606  0.00  0.00    +0.123 C 
ATOM      4  N2  UNL     1      13.444  11.131  34.040  0.00  0.00    -0.297 N 
ATOM      5  C8  UNL     1      14.091  10.230  34.952  0.00  0.00    +0.220 A 
ATOM      6  N3  UNL     1      13.992   8.893  34.850  0.00  0.00    -0.113 NA
ATOM      7  N4  UNL     1      14.798   8.381  35.768  0.00  0.00    -0.133 NA
ATOM      8  C9  UNL     1      15.406   9.409  36.395  0.00  0.00    +0.136 A 
ATOM      9  N5  UNL     1      14.955  10.599  35.925  0.00  0.00    -0.293 N 
ATOM     10  C21 UNL     1      12.648  12.260  34.527  0.00  0.00    +0.123 C 
ATOM     11  C22 UNL     1      11.391  12.416  33.664  0.00  0.00    +0.104 C 
ENDROOT
BRANCH   1  12
ATOM     12  C5  UNL     1      11.431  13.886  31.688  0.00  0.00    +0.143 C 
BRANCH  12  16
ATOM     13  C1  UNL     1       8.367  13.099  27.758  0.00  0.00    +0.089 C 
ATOM     14  C2  UNL     1       9.518  13.469  28.633  0.00  0.00    +0.135 A 
ATOM     15  C3  UNL     1       9.574  13.334  30.003  0.00  0.00    +0.072 A 
ATOM     16  C4  UNL     1      10.822  13.832  30.319  0.00  0.00    +0.098 A 
ATOM     17  N7  UNL     1      11.459  14.219  29.195  0.00  0.00    -0.082 NA
ATOM     18  O1  UNL     1      10.644  13.993  28.206  0.00  0.00    -0.360 OA
ENDBRANCH  12  16
ENDBRANCH   1  12
BRANCH   8  19
ATOM     19  C10 UNL     1      16.400   9.240  37.526  0.00  0.00    +0.082 C 
BRANCH  19  20
ATOM     20  C11 UNL     1      17.778   8.610  37.151  0.00  0.00    -0.031 C 
ATOM     21  C12 UNL     1      17.741   7.115  37.540  0.00  0.00    +0.011 C 
ATOM     22  C13 UNL     1      18.925   9.286  37.932  0.00  0.00    +0.011 C 
ATOM     23  C14 UNL     1      18.049   8.699  35.632  0.00  0.00    +0.011 C 
ENDBRANCH  19  20
ENDBRANCH   8  19
BRANCH   9  24
ATOM     24  C15 UNL     1      15.443  11.948  36.229  0.00  0.00    +0.189 C 
BRANCH  24  25
ATOM     25  C16 UNL     1      16.758  12.176  35.556  0.00  0.00    +0.099 A 
ATOM     26  N6  UNL     1      17.935  12.204  36.217  0.00  0.00    -0.247 NA
ATOM     27  C17 UNL     1      18.971  12.541  35.404  0.00  0.00    +0.049 A 
ATOM     28  C18 UNL     1      20.376  12.600  35.912  0.00  0.00    +0.066 C 
ATOM     29  C19 UNL     1      18.612  12.785  34.077  0.00  0.00    +0.009 A 
ATOM     30  C20 UNL     1      19.530  13.147  32.955  0.00  0.00    +0.053 C 
ATOM     31  S1  UNL     1      16.947  12.584  33.935  0.00  0.00    -0.075 S 
ENDBRANCH  24  25
ENDBRANCH   9  24
TORSDOF 6
ENDMDL
