REMARK  Name = /home/qwerty/github/datacon2025hack/step_04_hit_selection/docking/ligands/lig_455.pdb
REMARK  12 active torsions:
REMARK  status: ('A' for Active; 'I' for Inactive)
REMARK    1  A    between atoms: C1_1  and  C2_2
REMARK    2  A    between atoms: C2_2  and  C3_3
REMARK    3  A    between atoms: C2_2  and  N1_4
REMARK    4  A    between atoms: C4_5  and  C5_7
REMARK    5  A    between atoms: C8_13  and  C9_14
REMARK    6  A    between atoms: C11_16  and  C12_17
REMARK    7  A    between atoms: N5_19  and  C14_20
REMARK    8  A    between atoms: C14_20  and  C15_21
REMARK    9  A    between atoms: C15_21  and  C16_22
REMARK   10  A    between atoms: C15_21  and  N6_29
REMARK   11  A    between atoms: N6_29  and  C22_30
REMARK   12  A    between atoms: N6_29  and  C23_31
REMARK                            x       y       z     vdW  Elec       q    Type
REMARK                         _______ _______ _______ _____ _____    ______ ____
ROOT
ATOM      1  C5  UNL     1      -0.654  -2.187   1.139  0.00  0.00    +0.221 A 
ATOM      2  N2  UNL     1       0.119  -3.240   0.811  0.00  0.00    -0.123 NA
ATOM      3  N3  UNL     1       1.336  -2.776   0.584  0.00  0.00    -0.113 NA
ATOM      4  C6  UNL     1       1.292  -1.445   0.782  0.00  0.00    +0.220 A 
ATOM      5  N4  UNL     1       2.400  -0.580   0.476  0.00  0.00    -0.299 N 
ATOM      6  C7  UNL     1       2.774   0.519   1.378  0.00  0.00    +0.111 C 
ATOM      7  C8  UNL     1       4.300   0.707   1.383  0.00  0.00    +0.004 C 
ATOM      8  C9  UNL     1       4.710   1.817   2.357  0.00  0.00    +0.009 C 
ATOM      9  C10 UNL     1       4.846   0.984  -0.041  0.00  0.00    +0.009 C 
ATOM     10  C11 UNL     1       3.975   0.374  -1.168  0.00  0.00    +0.004 C 
ATOM     11  C12 UNL     1       4.811   0.080  -2.416  0.00  0.00    +0.009 C 
ATOM     12  C13 UNL     1       3.234  -0.888  -0.694  0.00  0.00    +0.111 C 
ATOM     13  N5  UNL     1       0.051  -1.029   1.132  0.00  0.00    -0.290 N 
ENDROOT
BRANCH   1  15
ATOM     14  N1  UNL     1      -2.874  -3.254   0.623  0.00  0.00    -0.306 N 
ATOM     15  C4  UNL     1      -2.102  -2.313   1.382  0.00  0.00    +0.282 C 
ATOM     16  O1  UNL     1      -2.658  -1.599   2.261  0.00  0.00    -0.267 OA
ATOM     17  H8  UNL     1      -2.385  -3.833  -0.098  0.00  0.00    +0.149 HD
BRANCH  14  19
ATOM     18  C1  UNL     1      -4.937  -3.917  -0.544  0.00  0.00    +0.027 C 
ATOM     19  C2  UNL     1      -4.333  -3.336   0.740  0.00  0.00    +0.067 C 
ATOM     20  C3  UNL     1      -4.713  -4.194   1.951  0.00  0.00    +0.027 C 
ENDBRANCH  14  19
ENDBRANCH   1  15
BRANCH  13  21
ATOM     21  C14 UNL     1      -0.477   0.343   1.122  0.00  0.00    +0.150 C 
BRANCH  21  22
ATOM     22  C15 UNL     1      -0.573   0.882  -0.324  0.00  0.00    +0.106 C 
BRANCH  22  23
ATOM     23  C16 UNL     1      -0.910   2.371  -0.384  0.00  0.00    -0.028 A 
ATOM     24  C17 UNL     1      -1.907   2.946   0.431  0.00  0.00    +0.008 A 
ATOM     25  C18 UNL     1      -2.192   4.312   0.346  0.00  0.00    +0.038 A 
ATOM     26  C19 UNL     1      -1.493   5.121  -0.552  0.00  0.00    +0.123 A 
ATOM     27  F1  UNL     1      -1.776   6.445  -0.634  0.00  0.00    -0.205 F 
ATOM     28  C20 UNL     1      -0.506   4.564  -1.368  0.00  0.00    +0.038 A 
ATOM     29  C21 UNL     1      -0.217   3.199  -1.288  0.00  0.00    +0.008 A 
ENDBRANCH  22  23
BRANCH  22  30
ATOM     30  N6  UNL     1      -1.465   0.028  -1.157  0.00  0.00    -0.300 NA
ATOM     31  C22 UNL     1      -2.906   0.253  -0.943  0.00  0.00    +0.105 C 
ATOM     32  C23 UNL     1      -1.142   0.135  -2.590  0.00  0.00    +0.105 C 
ENDBRANCH  22  30
ENDBRANCH  21  22
ENDBRANCH  13  21
TORSDOF 6
