MODEL 1
REMARK VINA RESULT:    -5.639      0.000      0.000
REMARK INTER + INTRA:          -7.446
REMARK INTER:                  -6.958
REMARK INTRA:                  -0.488
REMARK UNBOUND:                -0.488
REMARK  Name = /home/qwerty/github/datacon2025hack/step_04_hit_selection/docking/ligands/lig_794.pdb
REMARK  6 active torsions:
REMARK  status: ('A' for Active; 'I' for Inactive)
REMARK    1  A    between atoms: C1_1  and  N1_2
REMARK    2  A    between atoms: N1_2  and  C2_3
REMARK    3  A    between atoms: N1_2  and  C3_4
REMARK    4  A    between atoms: C6_7  and  C7_8
REMARK    5  A    between atoms: C9_12  and  N3_13
REMARK    6  A    between atoms: C10_14  and  C11_16
REMARK                            x       y       z     vdW  Elec       q    Type
REMARK                         _______ _______ _______ _____ _____    ______ ____
ROOT
ATOM      1  C7  UNL     1      21.800   2.729  26.401  0.00  0.00    +0.248 C 
ATOM      2  O1  UNL     1      22.904   2.940  25.831  0.00  0.00    -0.270 OA
ATOM      3  N2  UNL     1      20.630   2.556  25.594  0.00  0.00    -0.294 N 
ATOM      4  C8  UNL     1      19.224   2.128  25.742  0.00  0.00    +0.132 C 
ATOM      5  C9  UNL     1      18.917   2.090  24.276  0.00  0.00    +0.107 C 
ATOM      6  C16 UNL     1      20.340   2.531  24.149  0.00  0.00    +0.132 C 
ENDROOT
BRANCH   1  10
ATOM      7  C3  UNL     1      21.613   2.460  30.669  0.00  0.00    +0.121 A 
ATOM      8  C4  UNL     1      22.230   1.429  29.936  0.00  0.00    +0.044 A 
ATOM      9  C5  UNL     1      22.293   1.510  28.544  0.00  0.00    +0.018 A 
ATOM     10  C6  UNL     1      21.751   2.615  27.874  0.00  0.00    +0.055 A 
ATOM     11  C17 UNL     1      21.129   3.614  28.637  0.00  0.00    +0.126 A 
ATOM     12  N4  UNL     1      21.080   3.515  29.991  0.00  0.00    -0.240 NA
BRANCH   7  14
ATOM     13  C1  UNL     1      22.254   3.387  32.948  0.00  0.00    +0.130 C 
ATOM     14  N1  UNL     1      21.525   2.422  32.114  0.00  0.00    -0.321 N 
ATOM     15  C2  UNL     1      20.686   1.400  32.750  0.00  0.00    +0.130 C 
ENDBRANCH   7  14
ENDBRANCH   1  10
BRANCH   5  16
ATOM     16  N3  UNL     1      18.697   0.739  23.755  0.00  0.00    -0.309 N 
ATOM     17  C10 UNL     1      17.404   0.312  23.308  0.00  0.00    +0.217 C 
ATOM     18  O2  UNL     1      16.449   1.136  23.252  0.00  0.00    -0.275 OA
ATOM     19  H12 UNL     1      19.473   0.039  23.763  0.00  0.00    +0.149 HD
BRANCH  17  20
ATOM     20  C11 UNL     1      17.213  -1.107  22.819  0.00  0.00    +0.082 C 
ATOM     21  C12 UNL     1      15.803  -1.536  22.681  0.00  0.00    +0.021 C 
ATOM     22  C13 UNL     1      16.682  -2.269  23.732  0.00  0.00    -0.017 C 
ATOM     23  C14 UNL     1      15.621  -2.523  24.838  0.00  0.00    +0.008 C 
ATOM     24  C15 UNL     1      16.821  -1.740  25.188  0.00  0.00    +0.008 C 
ENDBRANCH  17  20
ENDBRANCH   5  16
TORSDOF 4
ENDMDL
MODEL 2
REMARK VINA RESULT:    -5.621      3.924     10.322
REMARK INTER + INTRA:          -7.424
REMARK INTER:                  -7.032
REMARK INTRA:                  -0.392
REMARK UNBOUND:                -0.488
REMARK  Name = /home/qwerty/github/datacon2025hack/step_04_hit_selection/docking/ligands/lig_794.pdb
REMARK  6 active torsions:
REMARK  status: ('A' for Active; 'I' for Inactive)
REMARK    1  A    between atoms: C1_1  and  N1_2
REMARK    2  A    between atoms: N1_2  and  C2_3
REMARK    3  A    between atoms: N1_2  and  C3_4
REMARK    4  A    between atoms: C6_7  and  C7_8
REMARK    5  A    between atoms: C9_12  and  N3_13
REMARK    6  A    between atoms: C10_14  and  C11_16
REMARK                            x       y       z     vdW  Elec       q    Type
REMARK                         _______ _______ _______ _____ _____    ______ ____
ROOT
ATOM      1  C7  UNL     1      20.383   1.308  31.875  0.00  0.00    +0.248 C 
ATOM      2  O1  UNL     1      20.550   0.243  32.526  0.00  0.00    -0.270 OA
ATOM      3  N2  UNL     1      20.214   2.535  32.592  0.00  0.00    -0.294 N 
ATOM      4  C8  UNL     1      20.175   3.988  32.327  0.00  0.00    +0.132 C 
ATOM      5  C9  UNL     1      20.174   4.410  33.764  0.00  0.00    +0.107 C 
ATOM      6  C16 UNL     1      20.205   2.935  34.011  0.00  0.00    +0.132 C 
ENDROOT
BRANCH   1  10
ATOM      7  C3  UNL     1      20.409   1.222  27.595  0.00  0.00    +0.121 A 
ATOM      8  C4  UNL     1      21.613   1.034  28.299  0.00  0.00    +0.044 A 
ATOM      9  C5  UNL     1      21.612   1.064  29.695  0.00  0.00    +0.018 A 
ATOM     10  C6  UNL     1      20.416   1.270  30.398  0.00  0.00    +0.055 A 
ATOM     11  C17 UNL     1      19.239   1.471  29.661  0.00  0.00    +0.126 A 
ATOM     12  N4  UNL     1      19.264   1.437  28.303  0.00  0.00    -0.240 NA
BRANCH   7  14
ATOM     13  C1  UNL     1      19.593   0.173  25.428  0.00  0.00    +0.130 C 
ATOM     14  N1  UNL     1      20.358   1.198  26.148  0.00  0.00    -0.321 N 
ATOM     15  C2  UNL     1      21.086   2.225  25.394  0.00  0.00    +0.130 C 
ENDBRANCH   7  14
ENDBRANCH   1  10
BRANCH   5  16
ATOM     16  N3  UNL     1      21.408   5.078  34.183  0.00  0.00    -0.309 N 
ATOM     17  C10 UNL     1      21.459   6.495  34.386  0.00  0.00    +0.217 C 
ATOM     18  O2  UNL     1      20.404   7.184  34.313  0.00  0.00    -0.275 OA
ATOM     19  H12 UNL     1      22.295   4.532  34.279  0.00  0.00    +0.149 HD
BRANCH  17  20
ATOM     20  C11 UNL     1      22.767   7.148  34.776  0.00  0.00    +0.082 C 
ATOM     21  C12 UNL     1      23.797   6.220  35.298  0.00  0.00    +0.021 C 
ATOM     22  C13 UNL     1      23.242   7.304  36.265  0.00  0.00    -0.017 C 
ATOM     23  C14 UNL     1      23.259   6.506  37.598  0.00  0.00    +0.008 C 
ATOM     24  C15 UNL     1      21.972   7.052  37.127  0.00  0.00    +0.008 C 
ENDBRANCH  17  20
ENDBRANCH   5  16
TORSDOF 4
ENDMDL
MODEL 3
REMARK VINA RESULT:    -5.593      4.022      9.739
REMARK INTER + INTRA:          -7.389
REMARK INTER:                  -6.950
REMARK INTRA:                  -0.439
REMARK UNBOUND:                -0.488
REMARK  Name = /home/qwerty/github/datacon2025hack/step_04_hit_selection/docking/ligands/lig_794.pdb
REMARK  6 active torsions:
REMARK  status: ('A' for Active; 'I' for Inactive)
REMARK    1  A    between atoms: C1_1  and  N1_2
REMARK    2  A    between atoms: N1_2  and  C2_3
REMARK    3  A    between atoms: N1_2  and  C3_4
REMARK    4  A    between atoms: C6_7  and  C7_8
REMARK    5  A    between atoms: C9_12  and  N3_13
REMARK    6  A    between atoms: C10_14  and  C11_16
REMARK                            x       y       z     vdW  Elec       q    Type
REMARK                         _______ _______ _______ _____ _____    ______ ____
ROOT
ATOM      1  C7  UNL     1      21.325   1.479  29.900  0.00  0.00    +0.248 C 
ATOM      2  O1  UNL     1      21.570   0.250  30.032  0.00  0.00    -0.270 OA
ATOM      3  N2  UNL     1      21.067   2.260  31.071  0.00  0.00    -0.294 N 
ATOM      4  C8  UNL     1      20.921   3.678  31.459  0.00  0.00    +0.132 C 
ATOM      5  C9  UNL     1      20.891   3.434  32.936  0.00  0.00    +0.107 C 
ATOM      6  C16 UNL     1      21.031   2.004  32.523  0.00  0.00    +0.132 C 
ENDROOT
BRANCH   1  10
ATOM      7  C3  UNL     1      21.348   3.255  26.005  0.00  0.00    +0.121 A 
ATOM      8  C4  UNL     1      22.567   2.885  26.605  0.00  0.00    +0.044 A 
ATOM      9  C5  UNL     1      22.566   2.308  27.876  0.00  0.00    +0.018 A 
ATOM     10  C6  UNL     1      21.358   2.087  28.552  0.00  0.00    +0.055 A 
ATOM     11  C17 UNL     1      20.166   2.484  27.929  0.00  0.00    +0.126 A 
ATOM     12  N4  UNL     1      20.190   3.044  26.692  0.00  0.00    -0.240 NA
BRANCH   7  14
ATOM     13  C1  UNL     1      22.038   5.086  24.381  0.00  0.00    +0.130 C 
ATOM     14  N1  UNL     1      21.297   3.855  24.688  0.00  0.00    -0.321 N 
ATOM     15  C2  UNL     1      20.491   3.213  23.644  0.00  0.00    +0.130 C 
ENDBRANCH   7  14
ENDBRANCH   1  10
BRANCH   5  16
ATOM     16  N3  UNL     1      22.074   3.936  33.640  0.00  0.00    -0.309 N 
ATOM     17  C10 UNL     1      22.100   5.247  34.217  0.00  0.00    +0.217 C 
ATOM     18  O2  UNL     1      21.056   5.956  34.225  0.00  0.00    -0.275 OA
ATOM     19  H12 UNL     1      22.948   3.363  33.674  0.00  0.00    +0.149 HD
BRANCH  17  20
ATOM     20  C11 UNL     1      23.359   5.740  34.896  0.00  0.00    +0.082 C 
ATOM     21  C12 UNL     1      23.403   7.198  35.149  0.00  0.00    +0.021 C 
ATOM     22  C13 UNL     1      24.450   6.603  34.167  0.00  0.00    -0.017 C 
ATOM     23  C14 UNL     1      24.558   7.772  33.150  0.00  0.00    +0.008 C 
ATOM     24  C15 UNL     1      24.146   6.447  32.649  0.00  0.00    +0.008 C 
ENDBRANCH  17  20
ENDBRANCH   5  16
TORSDOF 4
ENDMDL
MODEL 4
REMARK VINA RESULT:    -5.535     14.167     16.775
REMARK INTER + INTRA:          -7.318
REMARK INTER:                  -6.827
REMARK INTRA:                  -0.491
REMARK UNBOUND:                -0.488
REMARK  Name = /home/qwerty/github/datacon2025hack/step_04_hit_selection/docking/ligands/lig_794.pdb
REMARK  6 active torsions:
REMARK  status: ('A' for Active; 'I' for Inactive)
REMARK    1  A    between atoms: C1_1  and  N1_2
REMARK    2  A    between atoms: N1_2  and  C2_3
REMARK    3  A    between atoms: N1_2  and  C3_4
REMARK    4  A    between atoms: C6_7  and  C7_8
REMARK    5  A    between atoms: C9_12  and  N3_13
REMARK    6  A    between atoms: C10_14  and  C11_16
REMARK                            x       y       z     vdW  Elec       q    Type
REMARK                         _______ _______ _______ _____ _____    ______ ____
ROOT
ATOM      1  C7  UNL     1      11.629  14.182  28.419  0.00  0.00    +0.248 C 
ATOM      2  O1  UNL     1      11.683  15.302  27.845  0.00  0.00    -0.270 OA
ATOM      3  N2  UNL     1      12.453  13.954  29.566  0.00  0.00    -0.294 N 
ATOM      4  C8  UNL     1      12.620  12.955  30.642  0.00  0.00    +0.132 C 
ATOM      5  C9  UNL     1      13.595  13.755  31.450  0.00  0.00    +0.107 C 
ATOM      6  C16 UNL     1      13.418  14.750  30.347  0.00  0.00    +0.132 C 
ENDROOT
BRANCH   1  10
ATOM      7  C3  UNL     1       8.952  11.173  26.967  0.00  0.00    +0.121 A 
ATOM      8  C4  UNL     1       8.445  12.241  27.731  0.00  0.00    +0.044 A 
ATOM      9  C5  UNL     1       9.313  13.224  28.209  0.00  0.00    +0.018 A 
ATOM     10  C6  UNL     1      10.684  13.157  27.925  0.00  0.00    +0.055 A 
ATOM     11  C17 UNL     1      11.155  12.069  27.176  0.00  0.00    +0.126 A 
ATOM     12  N4  UNL     1      10.292  11.124  26.720  0.00  0.00    -0.240 NA
BRANCH   7  14
ATOM     13  C1  UNL     1       7.810  10.019  25.010  0.00  0.00    +0.130 C 
ATOM     14  N1  UNL     1       8.092  10.131  26.447  0.00  0.00    -0.321 N 
ATOM     15  C2  UNL     1       7.497   9.168  27.380  0.00  0.00    +0.130 C 
ENDBRANCH   7  14
ENDBRANCH   1  10
BRANCH   5  16
ATOM     16  N3  UNL     1      13.054  14.228  32.727  0.00  0.00    -0.309 N 
ATOM     17  C10 UNL     1      13.480  13.664  33.973  0.00  0.00    +0.217 C 
ATOM     18  O2  UNL     1      14.418  12.819  33.998  0.00  0.00    -0.275 OA
ATOM     19  H12 UNL     1      12.294  14.945  32.742  0.00  0.00    +0.149 HD
BRANCH  17  20
ATOM     20  C11 UNL     1      12.862  14.152  35.264  0.00  0.00    +0.082 C 
ATOM     21  C12 UNL     1      13.183  13.337  36.458  0.00  0.00    +0.021 C 
ATOM     22  C13 UNL     1      11.698  13.398  36.002  0.00  0.00    -0.017 C 
ATOM     23  C14 UNL     1      11.252  11.952  36.352  0.00  0.00    +0.008 C 
ATOM     24  C15 UNL     1      11.128  12.401  34.952  0.00  0.00    +0.008 C 
ENDBRANCH  17  20
ENDBRANCH   5  16
TORSDOF 4
ENDMDL
MODEL 5
REMARK VINA RESULT:    -5.405     13.345     14.976
REMARK INTER + INTRA:          -7.157
REMARK INTER:                  -6.654
REMARK INTRA:                  -0.504
REMARK UNBOUND:                -0.488
REMARK  Name = /home/qwerty/github/datacon2025hack/step_04_hit_selection/docking/ligands/lig_794.pdb
REMARK  6 active torsions:
REMARK  status: ('A' for Active; 'I' for Inactive)
REMARK    1  A    between atoms: C1_1  and  N1_2
REMARK    2  A    between atoms: N1_2  and  C2_3
REMARK    3  A    between atoms: N1_2  and  C3_4
REMARK    4  A    between atoms: C6_7  and  C7_8
REMARK    5  A    between atoms: C9_12  and  N3_13
REMARK    6  A    between atoms: C10_14  and  C11_16
REMARK                            x       y       z     vdW  Elec       q    Type
REMARK                         _______ _______ _______ _____ _____    ______ ____
ROOT
ATOM      1  C7  UNL     1      14.149  14.358  35.224  0.00  0.00    +0.248 C 
ATOM      2  O1  UNL     1      13.817  15.386  35.874  0.00  0.00    -0.270 OA
ATOM      3  N2  UNL     1      13.269  13.871  34.207  0.00  0.00    -0.294 N 
ATOM      4  C8  UNL     1      13.269  12.887  33.106  0.00  0.00    +0.132 C 
ATOM      5  C9  UNL     1      11.959  13.310  32.516  0.00  0.00    +0.107 C 
ATOM      6  C16 UNL     1      11.974  14.294  33.642  0.00  0.00    +0.132 C 
ENDROOT
BRANCH   1  10
ATOM      7  C3  UNL     1      17.895  12.462  36.062  0.00  0.00    +0.121 A 
ATOM      8  C4  UNL     1      17.768  13.268  34.915  0.00  0.00    +0.044 A 
ATOM      9  C5  UNL     1      16.548  13.887  34.635  0.00  0.00    +0.018 A 
ATOM     10  C6  UNL     1      15.454  13.717  35.495  0.00  0.00    +0.055 A 
ATOM     11  C17 UNL     1      15.614  12.893  36.618  0.00  0.00    +0.126 A 
ATOM     12  N4  UNL     1      16.810  12.301  36.871  0.00  0.00    -0.240 NA
BRANCH   7  14
ATOM     13  C1  UNL     1      19.153  10.472  37.022  0.00  0.00    +0.130 C 
ATOM     14  N1  UNL     1      19.139  11.801  36.396  0.00  0.00    -0.321 N 
ATOM     15  C2  UNL     1      20.407  12.475  36.096  0.00  0.00    +0.130 C 
ENDBRANCH   7  14
ENDBRANCH   1  10
BRANCH   5  16
ATOM     16  N3  UNL     1      12.084  13.952  31.205  0.00  0.00    -0.309 N 
ATOM     17  C10 UNL     1      11.127  13.718  30.164  0.00  0.00    +0.217 C 
ATOM     18  O2  UNL     1      10.092  13.034  30.398  0.00  0.00    -0.275 OA
ATOM     19  H12 UNL     1      12.916  14.546  30.987  0.00  0.00    +0.149 HD
BRANCH  17  20
ATOM     20  C11 UNL     1      11.320  14.368  28.812  0.00  0.00    +0.082 C 
ATOM     21  C12 UNL     1      10.356  13.943  27.771  0.00  0.00    +0.021 C 
ATOM     22  C13 UNL     1      11.856  13.596  27.553  0.00  0.00    -0.017 C 
ATOM     23  C14 UNL     1      11.713  12.217  26.854  0.00  0.00    +0.008 C 
ATOM     24  C15 UNL     1      12.478  12.285  28.113  0.00  0.00    +0.008 C 
ENDBRANCH  17  20
ENDBRANCH   5  16
TORSDOF 4
ENDMDL
MODEL 6
REMARK VINA RESULT:    -5.379      6.736     10.593
REMARK INTER + INTRA:          -7.125
REMARK INTER:                  -6.901
REMARK INTRA:                  -0.225
REMARK UNBOUND:                -0.488
REMARK  Name = /home/qwerty/github/datacon2025hack/step_04_hit_selection/docking/ligands/lig_794.pdb
REMARK  6 active torsions:
REMARK  status: ('A' for Active; 'I' for Inactive)
REMARK    1  A    between atoms: C1_1  and  N1_2
REMARK    2  A    between atoms: N1_2  and  C2_3
REMARK    3  A    between atoms: N1_2  and  C3_4
REMARK    4  A    between atoms: C6_7  and  C7_8
REMARK    5  A    between atoms: C9_12  and  N3_13
REMARK    6  A    between atoms: C10_14  and  C11_16
REMARK                            x       y       z     vdW  Elec       q    Type
REMARK                         _______ _______ _______ _____ _____    ______ ____
ROOT
ATOM      1  C7  UNL     1      13.552   4.142  20.233  0.00  0.00    +0.248 C 
ATOM      2  O1  UNL     1      14.240   5.151  19.920  0.00  0.00    -0.270 OA
ATOM      3  N2  UNL     1      14.190   2.863  20.286  0.00  0.00    -0.294 N 
ATOM      4  C8  UNL     1      13.903   1.489  20.749  0.00  0.00    +0.132 C 
ATOM      5  C9  UNL     1      15.292   0.964  20.553  0.00  0.00    +0.107 C 
ATOM      6  C16 UNL     1      15.560   2.357  20.081  0.00  0.00    +0.132 C 
ENDROOT
BRANCH   1  10
ATOM      7  C3  UNL     1       9.433   4.596  21.304  0.00  0.00    +0.121 A 
ATOM      8  C4  UNL     1       9.988   5.432  20.318  0.00  0.00    +0.044 A 
ATOM      9  C5  UNL     1      11.331   5.291  19.966  0.00  0.00    +0.018 A 
ATOM     10  C6  UNL     1      12.126   4.315  20.583  0.00  0.00    +0.055 A 
ATOM     11  C17 UNL     1      11.542   3.512  21.574  0.00  0.00    +0.126 A 
ATOM     12  N4  UNL     1      10.233   3.667  21.900  0.00  0.00    -0.240 NA
BRANCH   7  14
ATOM     13  C1  UNL     1       7.086   5.498  20.924  0.00  0.00    +0.130 C 
ATOM     14  N1  UNL     1       8.045   4.702  21.702  0.00  0.00    -0.321 N 
ATOM     15  C2  UNL     1       7.593   3.996  22.906  0.00  0.00    +0.130 C 
ENDBRANCH   7  14
ENDBRANCH   1  10
BRANCH   5  16
ATOM     16  N3  UNL     1      15.984   0.649  21.805  0.00  0.00    -0.309 N 
ATOM     17  C10 UNL     1      16.454  -0.675  22.086  0.00  0.00    +0.217 C 
ATOM     18  O2  UNL     1      16.376  -1.575  21.206  0.00  0.00    -0.275 OA
ATOM     19  H12 UNL     1      16.089   1.379  22.545  0.00  0.00    +0.149 HD
BRANCH  17  20
ATOM     20  C11 UNL     1      17.125  -0.963  23.411  0.00  0.00    +0.082 C 
ATOM     21  C12 UNL     1      17.317  -2.400  23.714  0.00  0.00    +0.021 C 
ATOM     22  C13 UNL     1      16.371  -1.586  24.641  0.00  0.00    -0.017 C 
ATOM     23  C14 UNL     1      15.308  -2.673  24.959  0.00  0.00    +0.008 C 
ATOM     24  C15 UNL     1      14.859  -1.422  24.318  0.00  0.00    +0.008 C 
ENDBRANCH  17  20
ENDBRANCH   5  16
TORSDOF 4
ENDMDL
MODEL 7
REMARK VINA RESULT:    -5.359      6.409      9.381
REMARK INTER + INTRA:          -7.100
REMARK INTER:                  -6.615
REMARK INTRA:                  -0.485
REMARK UNBOUND:                -0.488
REMARK  Name = /home/qwerty/github/datacon2025hack/step_04_hit_selection/docking/ligands/lig_794.pdb
REMARK  6 active torsions:
REMARK  status: ('A' for Active; 'I' for Inactive)
REMARK    1  A    between atoms: C1_1  and  N1_2
REMARK    2  A    between atoms: N1_2  and  C2_3
REMARK    3  A    between atoms: N1_2  and  C3_4
REMARK    4  A    between atoms: C6_7  and  C7_8
REMARK    5  A    between atoms: C9_12  and  N3_13
REMARK    6  A    between atoms: C10_14  and  C11_16
REMARK                            x       y       z     vdW  Elec       q    Type
REMARK                         _______ _______ _______ _____ _____    ______ ____
ROOT
ATOM      1  C7  UNL     1      14.691   1.476  20.581  0.00  0.00    +0.248 C 
ATOM      2  O1  UNL     1      14.995   1.047  19.436  0.00  0.00    -0.270 OA
ATOM      3  N2  UNL     1      13.845   2.625  20.684  0.00  0.00    -0.294 N 
ATOM      4  C8  UNL     1      13.088   3.368  21.713  0.00  0.00    +0.132 C 
ATOM      5  C9  UNL     1      12.367   4.269  20.758  0.00  0.00    +0.107 C 
ATOM      6  C16 UNL     1      13.148   3.511  19.732  0.00  0.00    +0.132 C 
ENDROOT
BRANCH   1  10
ATOM      7  C3  UNL     1      16.146  -0.568  24.049  0.00  0.00    +0.121 A 
ATOM      8  C4  UNL     1      14.819  -0.777  23.628  0.00  0.00    +0.044 A 
ATOM      9  C5  UNL     1      14.338  -0.111  22.499  0.00  0.00    +0.018 A 
ATOM     10  C6  UNL     1      15.172   0.756  21.779  0.00  0.00    +0.055 A 
ATOM     11  C17 UNL     1      16.482   0.951  22.239  0.00  0.00    +0.126 A 
ATOM     12  N4  UNL     1      16.930   0.293  23.340  0.00  0.00    -0.240 NA
BRANCH   7  14
ATOM     13  C1  UNL     1      17.558  -2.414  25.080  0.00  0.00    +0.130 C 
ATOM     14  N1  UNL     1      16.691  -1.236  25.212  0.00  0.00    -0.321 N 
ATOM     15  C2  UNL     1      16.371  -0.718  26.547  0.00  0.00    +0.130 C 
ENDBRANCH   7  14
ENDBRANCH   1  10
BRANCH   5  16
ATOM     16  N3  UNL     1      10.928   4.009  20.676  0.00  0.00    -0.309 N 
ATOM     17  C10 UNL     1       9.967   5.010  21.034  0.00  0.00    +0.217 C 
ATOM     18  O2  UNL     1      10.346   6.178  21.324  0.00  0.00    -0.275 OA
ATOM     19  H12 UNL     1      10.579   3.059  20.414  0.00  0.00    +0.149 HD
BRANCH  17  20
ATOM     20  C11 UNL     1       8.491   4.682  20.976  0.00  0.00    +0.082 C 
ATOM     21  C12 UNL     1       7.612   5.625  21.705  0.00  0.00    +0.021 C 
ATOM     22  C13 UNL     1       7.675   4.156  22.211  0.00  0.00    -0.017 C 
ATOM     23  C14 UNL     1       7.547   4.395  23.740  0.00  0.00    +0.008 C 
ATOM     24  C15 UNL     1       8.746   3.695  23.241  0.00  0.00    +0.008 C 
ENDBRANCH  17  20
ENDBRANCH   5  16
TORSDOF 4
ENDMDL
MODEL 8
REMARK VINA RESULT:    -5.359     10.848     13.910
REMARK INTER + INTRA:          -7.100
REMARK INTER:                  -6.608
REMARK INTRA:                  -0.492
REMARK UNBOUND:                -0.488
REMARK  Name = /home/qwerty/github/datacon2025hack/step_04_hit_selection/docking/ligands/lig_794.pdb
REMARK  6 active torsions:
REMARK  status: ('A' for Active; 'I' for Inactive)
REMARK    1  A    between atoms: C1_1  and  N1_2
REMARK    2  A    between atoms: N1_2  and  C2_3
REMARK    3  A    between atoms: N1_2  and  C3_4
REMARK    4  A    between atoms: C6_7  and  C7_8
REMARK    5  A    between atoms: C9_12  and  N3_13
REMARK    6  A    between atoms: C10_14  and  C11_16
REMARK                            x       y       z     vdW  Elec       q    Type
REMARK                         _______ _______ _______ _____ _____    ______ ____
ROOT
ATOM      1  C7  UNL     1      17.364   8.020  37.487  0.00  0.00    +0.248 C 
ATOM      2  O1  UNL     1      16.681   7.022  37.842  0.00  0.00    -0.270 OA
ATOM      3  N2  UNL     1      18.783   7.876  37.366  0.00  0.00    -0.294 N 
ATOM      4  C8  UNL     1      19.941   8.627  36.841  0.00  0.00    +0.132 C 
ATOM      5  C9  UNL     1      20.934   7.516  36.999  0.00  0.00    +0.107 C 
ATOM      6  C16 UNL     1      19.750   6.776  37.535  0.00  0.00    +0.132 C 
ENDROOT
BRANCH   1  10
ATOM      7  C3  UNL     1      15.344  11.659  36.485  0.00  0.00    +0.121 A 
ATOM      8  C4  UNL     1      16.205  11.628  37.599  0.00  0.00    +0.044 A 
ATOM      9  C5  UNL     1      16.864  10.444  37.932  0.00  0.00    +0.018 A 
ATOM     10  C6  UNL     1      16.681   9.289  37.159  0.00  0.00    +0.055 A 
ATOM     11  C17 UNL     1      15.802   9.354  36.067  0.00  0.00    +0.126 A 
ATOM     12  N4  UNL     1      15.171  10.517  35.761  0.00  0.00    -0.240 NA
BRANCH   7  14
ATOM     13  C1  UNL     1      15.292  13.906  35.297  0.00  0.00    +0.130 C 
ATOM     14  N1  UNL     1      14.639  12.863  36.099  0.00  0.00    -0.321 N 
ATOM     15  C2  UNL     1      13.243  13.036  36.516  0.00  0.00    +0.130 C 
ENDBRANCH   7  14
ENDBRANCH   1  10
BRANCH   5  16
ATOM     16  N3  UNL     1      21.412   6.969  35.727  0.00  0.00    -0.309 N 
ATOM     17  C10 UNL     1      22.808   6.756  35.483  0.00  0.00    +0.217 C 
ATOM     18  O2  UNL     1      23.647   6.934  36.409  0.00  0.00    -0.275 OA
ATOM     19  H12 UNL     1      20.740   6.785  34.947  0.00  0.00    +0.149 HD
BRANCH  17  20
ATOM     20  C11 UNL     1      23.260   6.230  34.139  0.00  0.00    +0.082 C 
ATOM     21  C12 UNL     1      24.725   6.232  33.927  0.00  0.00    +0.021 C 
ATOM     22  C13 UNL     1      23.861   7.146  33.013  0.00  0.00    -0.017 C 
ATOM     23  C14 UNL     1      24.827   8.351  32.850  0.00  0.00    +0.008 C 
ATOM     24  C15 UNL     1      23.493   8.599  33.429  0.00  0.00    +0.008 C 
ENDBRANCH  17  20
ENDBRANCH   5  16
TORSDOF 4
ENDMDL
MODEL 9
REMARK VINA RESULT:    -5.218     13.422     14.503
REMARK INTER + INTRA:          -6.926
REMARK INTER:                  -6.476
REMARK INTRA:                  -0.449
REMARK UNBOUND:                -0.488
REMARK  Name = /home/qwerty/github/datacon2025hack/step_04_hit_selection/docking/ligands/lig_794.pdb
REMARK  6 active torsions:
REMARK  status: ('A' for Active; 'I' for Inactive)
REMARK    1  A    between atoms: C1_1  and  N1_2
REMARK    2  A    between atoms: N1_2  and  C2_3
REMARK    3  A    between atoms: N1_2  and  C3_4
REMARK    4  A    between atoms: C6_7  and  C7_8
REMARK    5  A    between atoms: C9_12  and  N3_13
REMARK    6  A    between atoms: C10_14  and  C11_16
REMARK                            x       y       z     vdW  Elec       q    Type
REMARK                         _______ _______ _______ _____ _____    ______ ____
ROOT
ATOM      1  C7  UNL     1       9.806  13.103  28.683  0.00  0.00    +0.248 C 
ATOM      2  O1  UNL     1       8.963  13.789  29.321  0.00  0.00    -0.270 OA
ATOM      3  N2  UNL     1       9.364  11.923  28.006  0.00  0.00    -0.294 N 
ATOM      4  C8  UNL     1       9.872  10.938  27.029  0.00  0.00    +0.132 C 
ATOM      5  C9  UNL     1       8.565  10.239  26.815  0.00  0.00    +0.107 C 
ATOM      6  C16 UNL     1       8.071  11.240  27.811  0.00  0.00    +0.132 C 
ENDROOT
BRANCH   1  10
ATOM      7  C3  UNL     1      13.892  14.367  28.511  0.00  0.00    +0.121 A 
ATOM      8  C4  UNL     1      12.925  15.046  27.747  0.00  0.00    +0.044 A 
ATOM      9  C5  UNL     1      11.591  14.637  27.797  0.00  0.00    +0.018 A 
ATOM     10  C6  UNL     1      11.210  13.561  28.610  0.00  0.00    +0.055 A 
ATOM     11  C17 UNL     1      12.206  12.898  29.344  0.00  0.00    +0.126 A 
ATOM     12  N4  UNL     1      13.497  13.313  29.280  0.00  0.00    -0.240 NA
BRANCH   7  14
ATOM     13  C1  UNL     1      16.272  14.027  27.682  0.00  0.00    +0.130 C 
ATOM     14  N1  UNL     1      15.288  14.754  28.494  0.00  0.00    -0.321 N 
ATOM     15  C2  UNL     1      15.719  15.900  29.304  0.00  0.00    +0.130 C 
ENDBRANCH   7  14
ENDBRANCH   1  10
BRANCH   5  16
ATOM     16  N3  UNL     1       7.998  10.446  25.480  0.00  0.00    -0.309 N 
ATOM     17  C10 UNL     1       8.105   9.445  24.461  0.00  0.00    +0.217 C 
ATOM     18  O2  UNL     1       8.596   8.314  24.732  0.00  0.00    -0.275 OA
ATOM     19  H12 UNL     1       7.561  11.362  25.231  0.00  0.00    +0.149 HD
BRANCH  17  20
ATOM     20  C11 UNL     1       7.543   9.719  23.083  0.00  0.00    +0.082 C 
ATOM     21  C12 UNL     1       7.799   8.659  22.081  0.00  0.00    +0.021 C 
ATOM     22  C13 UNL     1       8.441  10.054  21.838  0.00  0.00    -0.017 C 
ATOM     23  C14 UNL     1       9.784   9.621  21.189  0.00  0.00    +0.008 C 
ATOM     24  C15 UNL     1       9.833  10.423  22.426  0.00  0.00    +0.008 C 
ENDBRANCH  17  20
ENDBRANCH   5  16
TORSDOF 4
ENDMDL
