REMARK  Name = /home/qwerty/github/datacon2025hack/step_04_hit_selection/docking/ligands/lig_293.pdb
REMARK  7 active torsions:
REMARK  status: ('A' for Active; 'I' for Inactive)
REMARK    1  A    between atoms: C1_1  and  N1_2
REMARK    2  A    between atoms: N1_2  and  C2_3
REMARK    3  A    between atoms: N1_2  and  S1_4
REMARK    4  A    between atoms: S1_4  and  C3_7
REMARK    5  A    between atoms: C6_10  and  N2_11
REMARK    6  A    between atoms: C11_17  and  C12_18
REMARK    7  A    between atoms: N3_20  and  C13_21
REMARK                            x       y       z     vdW  Elec       q    Type
REMARK                         _______ _______ _______ _____ _____    ______ ____
ROOT
ATOM      1  C3  UNL     1      -3.664   1.142   1.451  0.00  0.00    +0.106 A 
ATOM      2  C4  UNL     1      -4.333  -0.072   1.267  0.00  0.00    +0.030 A 
ATOM      3  C5  UNL     1      -3.656  -1.177   0.751  0.00  0.00    +0.026 A 
ATOM      4  C6  UNL     1      -2.295  -1.091   0.420  0.00  0.00    +0.042 A 
ATOM      5  C11 UNL     1      -1.605   0.128   0.631  0.00  0.00    +0.060 A 
ATOM      6  C25 UNL     1      -2.304   1.239   1.131  0.00  0.00    +0.043 A 
ENDROOT
BRANCH   4   7
ATOM      7  N2  UNL     1      -1.656  -2.219  -0.207  0.00  0.00    -0.325 N 
ATOM      8  C7  UNL     1      -1.081  -2.111  -1.549  0.00  0.00    +0.133 C 
ATOM      9  C8  UNL     1      -1.582  -3.281  -2.403  0.00  0.00    +0.178 C 
ATOM     10  O3  UNL     1      -1.337  -4.517  -1.755  0.00  0.00    -0.377 OA
ATOM     11  C9  UNL     1      -2.089  -4.595  -0.557  0.00  0.00    +0.178 C 
ATOM     12  C10 UNL     1      -1.627  -3.530   0.443  0.00  0.00    +0.133 C 
ENDBRANCH   4   7
BRANCH   5  13
ATOM     13  C12 UNL     1      -0.161   0.265   0.351  0.00  0.00    +0.250 C 
ATOM     14  O4  UNL     1       0.243   1.265  -0.302  0.00  0.00    -0.270 OA
ATOM     15  N3  UNL     1       0.767  -0.728   0.819  0.00  0.00    -0.281 N 
ATOM     16  H17 UNL     1       0.391  -1.534   1.366  0.00  0.00    +0.155 HD
BRANCH  15  17
ATOM     17  C13 UNL     1       2.150  -0.779   0.435  0.00  0.00    +0.034 A 
ATOM     18  C14 UNL     1       2.738  -2.037   0.149  0.00  0.00    +0.025 A 
ATOM     19  C15 UNL     1       4.093  -2.137  -0.215  0.00  0.00    +0.028 A 
ATOM     20  C16 UNL     1       4.842  -0.964  -0.271  0.00  0.00    +0.048 A 
ATOM     21  N4  UNL     1       6.150  -0.847  -0.590  0.00  0.00    -0.354 N 
ATOM     22  C17 UNL     1       6.411   0.475  -0.490  0.00  0.00    +0.047 A 
ATOM     23  C18 UNL     1       7.629   1.113  -0.722  0.00  0.00    +0.026 A 
ATOM     24  C19 UNL     1       7.681   2.510  -0.563  0.00  0.00    +0.002 A 
ATOM     25  C20 UNL     1       6.530   3.234  -0.179  0.00  0.00    +0.001 A 
ATOM     26  C21 UNL     1       5.311   2.569   0.051  0.00  0.00    +0.010 A 
ATOM     27  C22 UNL     1       5.289   1.186  -0.114  0.00  0.00    +0.007 A 
ATOM     28  C23 UNL     1       4.280   0.260   0.025  0.00  0.00    +0.009 A 
ATOM     29  C24 UNL     1       2.943   0.392   0.389  0.00  0.00    +0.034 A 
ATOM     30  H20 UNL     1       6.813  -1.610  -0.853  0.00  0.00    +0.166 HD
ENDBRANCH  15  17
ENDBRANCH   5  13
BRANCH   1  31
ATOM     31  S1  UNL     1      -4.531   2.549   2.073  0.00  0.00    +0.060 S 
ATOM     32  O1  UNL     1      -5.640   2.087   2.978  0.00  0.00    -0.153 OA
ATOM     33  O2  UNL     1      -3.589   3.390   2.888  0.00  0.00    -0.153 OA
BRANCH  31  35
ATOM     34  C1  UNL     1      -6.115   2.693  -0.028  0.00  0.00    +0.131 C 
ATOM     35  N1  UNL     1      -5.203   3.512   0.780  0.00  0.00    -0.183 NA
ATOM     36  C2  UNL     1      -4.122   4.043  -0.059  0.00  0.00    +0.131 C 
ENDBRANCH  31  35
ENDBRANCH   1  31
TORSDOF 5
