REMARK  Name = /home/qwerty/github/datacon2025hack/step_04_hit_selection/docking/ligands/lig_55.pdb
REMARK  6 active torsions:
REMARK  status: ('A' for Active; 'I' for Inactive)
REMARK    1  A    between atoms: C1_1  and  C2_2
REMARK    2  A    between atoms: C2_2  and  C3_3
REMARK    3  A    between atoms: C2_2  and  N2_9
REMARK    4  A    between atoms: C10_12  and  N3_13
REMARK    5  A    between atoms: N4_16  and  C12_17
REMARK    6  A    between atoms: C15_21  and  C16_22
REMARK                            x       y       z     vdW  Elec       q    Type
REMARK                         _______ _______ _______ _____ _____    ______ ____
ROOT
ATOM      1  N3  UNL     1       0.087  -0.799  -1.383  0.00  0.00    -0.296 N 
ATOM      2  C11 UNL     1      -1.240  -0.351  -1.067  0.00  0.00    +0.300 C 
ATOM      3  O1  UNL     1      -1.413   0.631  -0.290  0.00  0.00    -0.253 OA
ATOM      4  N4  UNL     1      -2.371  -1.016  -1.648  0.00  0.00    -0.296 N 
ATOM      5  H14 UNL     1       0.197  -1.653  -1.984  0.00  0.00    +0.151 HD
ATOM      6  H15 UNL     1      -2.201  -1.873  -2.229  0.00  0.00    +0.151 HD
ENDROOT
BRANCH   1  10
ATOM      7  N2  UNL     1       3.693   0.679   0.119  0.00  0.00    -0.296 NA
ATOM      8  C8  UNL     1       3.721   0.416  -1.341  0.00  0.00    +0.087 C 
ATOM      9  C9  UNL     1       2.461  -0.323  -1.840  0.00  0.00    +0.038 C 
ATOM     10  C10 UNL     1       1.284  -0.122  -0.875  0.00  0.00    +0.077 C 
ATOM     11  C22 UNL     1       1.642  -0.653   0.531  0.00  0.00    +0.038 C 
ATOM     12  C23 UNL     1       3.135  -0.468   0.866  0.00  0.00    +0.087 C 
BRANCH   7  14
ATOM     13  C1  UNL     1       4.829   2.024   1.884  0.00  0.00    +0.029 C 
ATOM     14  C2  UNL     1       5.006   1.175   0.615  0.00  0.00    +0.084 C 
BRANCH  14  15
ATOM     15  C3  UNL     1       6.060   0.080   0.774  0.00  0.00    -0.028 A 
ATOM     16  C4  UNL     1       6.984  -0.146  -0.263  0.00  0.00    +0.025 A 
ATOM     17  C5  UNL     1       7.932  -1.163  -0.140  0.00  0.00    +0.111 A 
ATOM     18  N1  UNL     1       7.969  -1.931   0.982  0.00  0.00    -0.263 NA
ATOM     19  C6  UNL     1       7.095  -1.741   2.004  0.00  0.00    +0.111 A 
ATOM     20  C7  UNL     1       6.130  -0.734   1.922  0.00  0.00    +0.025 A 
ENDBRANCH  14  15
ENDBRANCH   7  14
ENDBRANCH   1  10
BRANCH   4  21
ATOM     21  C12 UNL     1      -3.749  -0.604  -1.368  0.00  0.00    +0.079 C 
ATOM     22  C13 UNL     1      -4.666  -0.983  -2.529  0.00  0.00    +0.050 C 
ATOM     23  C14 UNL     1      -6.107  -0.606  -2.178  0.00  0.00    +0.162 C 
ATOM     24  O2  UNL     1      -6.564  -1.247  -0.993  0.00  0.00    -0.370 OA
ATOM     25  C15 UNL     1      -5.751  -0.980   0.149  0.00  0.00    +0.168 C 
ATOM     26  C21 UNL     1      -4.255  -1.287  -0.099  0.00  0.00    +0.060 C 
BRANCH  25  27
ATOM     27  C16 UNL     1      -5.994   0.393   0.753  0.00  0.00    +0.070 A 
ATOM     28  C17 UNL     1      -5.453   0.716   2.011  0.00  0.00    +0.026 A 
ATOM     29  C18 UNL     1      -5.705   1.972   2.568  0.00  0.00    +0.003 A 
ATOM     30  C19 UNL     1      -6.503   2.889   1.882  0.00  0.00    +0.020 A 
ATOM     31  C20 UNL     1      -7.042   2.532   0.646  0.00  0.00    +0.111 A 
ATOM     32  N5  UNL     1      -6.784   1.306   0.119  0.00  0.00    -0.257 NA
ENDBRANCH  25  27
ENDBRANCH   4  21
TORSDOF 5
