MODEL 1
REMARK VINA RESULT:    -6.616      0.000      0.000
REMARK INTER + INTRA:          -8.692
REMARK INTER:                  -7.970
REMARK INTRA:                  -0.722
REMARK UNBOUND:                -0.722
REMARK  Name = /home/qwerty/github/datacon2025hack/step_04_hit_selection/docking/ligands/lig_112.pdb
REMARK  7 active torsions:
REMARK  status: ('A' for Active; 'I' for Inactive)
REMARK    1  A    between atoms: C1_1  and  C2_2
REMARK    2  A    between atoms: C4_4  and  O1_5
REMARK    3  A    between atoms: C6_8  and  C7_9
REMARK    4  A    between atoms: C9_13  and  N3_14
REMARK    5  A    between atoms: C10_15  and  C11_17
REMARK    6  A    between atoms: C11_17  and  C12_18
REMARK    7  A    between atoms: C18_24  and  C19_25
REMARK                            x       y       z     vdW  Elec       q    Type
REMARK                         _______ _______ _______ _____ _____    ______ ____
ROOT
ATOM      1  C7  UNL     1      20.229   2.629  27.716  0.00  0.00    +0.249 C 
ATOM      2  O2  UNL     1      20.358   3.882  27.701  0.00  0.00    -0.270 OA
ATOM      3  N2  UNL     1      19.991   1.915  26.487  0.00  0.00    -0.293 N 
ATOM      4  C8  UNL     1      19.887   0.465  26.400  0.00  0.00    +0.130 C 
ATOM      5  C9  UNL     1      19.512   0.163  24.946  0.00  0.00    +0.092 C 
ATOM      6  C17 UNL     1      19.918   1.420  24.169  0.00  0.00    +0.046 C 
ATOM      7  C18 UNL     1      19.879   2.564  25.186  0.00  0.00    +0.075 C 
ATOM      8  C19 UNL     1      18.570   3.358  25.089  0.00  0.00    +0.028 C 
ENDROOT
BRANCH   1  15
ATOM      9  C1  UNL     1      22.786   1.477  28.675  0.00  0.00    +0.045 C 
ATOM     10  C2  UNL     1      21.515   1.361  29.473  0.00  0.00    -0.032 A 
ATOM     11  C3  UNL     1      21.523   0.677  30.697  0.00  0.00    +0.071 A 
ATOM     12  C4  UNL     1      20.343   0.571  31.443  0.00  0.00    +0.213 A 
ATOM     13  N1  UNL     1      19.195   1.124  30.974  0.00  0.00    -0.221 NA
ATOM     14  C5  UNL     1      19.149   1.786  29.789  0.00  0.00    +0.128 A 
ATOM     15  C6  UNL     1      20.305   1.921  29.007  0.00  0.00    +0.058 A 
BRANCH  12  16
ATOM     16  O1  UNL     1      20.331  -0.097  32.664  0.00  0.00    -0.492 OA
ATOM     17  H5  UNL     1      20.769   0.298  33.489  0.00  0.00    +0.294 HD
ENDBRANCH  12  16
ENDBRANCH   1  15
BRANCH   5  18
ATOM     18  N3  UNL     1      18.071  -0.075  24.810  0.00  0.00    -0.310 N 
ATOM     19  C10 UNL     1      17.503  -1.389  24.921  0.00  0.00    +0.220 C 
ATOM     20  O3  UNL     1      18.254  -2.376  25.157  0.00  0.00    -0.275 OA
ATOM     21  H10 UNL     1      17.436   0.725  24.585  0.00  0.00    +0.149 HD
BRANCH  19  22
ATOM     22  C11 UNL     1      16.024  -1.609  24.650  0.00  0.00    +0.051 C 
ATOM     23  C12 UNL     1      15.721  -1.164  23.205  0.00  0.00    +0.021 C 
ATOM     24  C13 UNL     1      15.588  -3.085  24.852  0.00  0.00    +0.043 C 
ATOM     25  C14 UNL     1      14.267  -2.984  25.524  0.00  0.00    -0.030 C 
ATOM     26  C15 UNL     1      14.023  -1.761  25.960  0.00  0.00    -0.030 C 
ATOM     27  C16 UNL     1      15.136  -0.825  25.648  0.00  0.00    +0.043 C 
ENDBRANCH  19  22
ENDBRANCH   5  18
TORSDOF 4
ENDMDL
MODEL 2
REMARK VINA RESULT:    -6.267     13.999     16.645
REMARK INTER + INTRA:          -8.272
REMARK INTER:                  -7.545
REMARK INTRA:                  -0.727
REMARK UNBOUND:                -0.722
REMARK  Name = /home/qwerty/github/datacon2025hack/step_04_hit_selection/docking/ligands/lig_112.pdb
REMARK  7 active torsions:
REMARK  status: ('A' for Active; 'I' for Inactive)
REMARK    1  A    between atoms: C1_1  and  C2_2
REMARK    2  A    between atoms: C4_4  and  O1_5
REMARK    3  A    between atoms: C6_8  and  C7_9
REMARK    4  A    between atoms: C9_13  and  N3_14
REMARK    5  A    between atoms: C10_15  and  C11_17
REMARK    6  A    between atoms: C11_17  and  C12_18
REMARK    7  A    between atoms: C18_24  and  C19_25
REMARK                            x       y       z     vdW  Elec       q    Type
REMARK                         _______ _______ _______ _____ _____    ______ ____
ROOT
ATOM      1  C7  UNL     1      11.361  12.345  29.348  0.00  0.00    +0.249 C 
ATOM      2  O2  UNL     1      12.191  12.132  28.424  0.00  0.00    -0.270 OA
ATOM      3  N2  UNL     1      11.712  13.210  30.445  0.00  0.00    -0.293 N 
ATOM      4  C8  UNL     1      10.798  13.559  31.524  0.00  0.00    +0.130 C 
ATOM      5  C9  UNL     1      11.623  14.386  32.514  0.00  0.00    +0.092 C 
ATOM      6  C17 UNL     1      12.821  14.889  31.701  0.00  0.00    +0.046 C 
ATOM      7  C18 UNL     1      13.004  13.875  30.567  0.00  0.00    +0.075 C 
ATOM      8  C19 UNL     1      14.105  12.858  30.895  0.00  0.00    +0.028 C 
ENDROOT
BRANCH   1  15
ATOM      9  C1  UNL     1       9.070  13.605  27.953  0.00  0.00    +0.045 C 
ATOM     10  C2  UNL     1       8.946  12.269  28.636  0.00  0.00    -0.032 A 
ATOM     11  C3  UNL     1       7.713  11.600  28.635  0.00  0.00    +0.071 A 
ATOM     12  C4  UNL     1       7.596  10.356  29.267  0.00  0.00    +0.213 A 
ATOM     13  N1  UNL     1       8.673   9.807  29.884  0.00  0.00    -0.221 NA
ATOM     14  C5  UNL     1       9.879  10.431  29.912  0.00  0.00    +0.128 A 
ATOM     15  C6  UNL     1      10.048  11.677  29.291  0.00  0.00    +0.058 A 
BRANCH  12  16
ATOM     16  O1  UNL     1       6.383   9.673  29.271  0.00  0.00    -0.492 OA
ATOM     17  H5  UNL     1       6.344   8.662  29.194  0.00  0.00    +0.294 HD
ENDBRANCH  12  16
ENDBRANCH   1  15
BRANCH   5  18
ATOM     18  N3  UNL     1      12.082  13.562  33.638  0.00  0.00    -0.310 N 
ATOM     19  C10 UNL     1      11.287  13.376  34.820  0.00  0.00    +0.220 C 
ATOM     20  O3  UNL     1      10.151  13.920  34.899  0.00  0.00    -0.275 OA
ATOM     21  H10 UNL     1      13.033  13.128  33.603  0.00  0.00    +0.149 HD
BRANCH  19  22
ATOM     22  C11 UNL     1      11.851  12.618  36.010  0.00  0.00    +0.051 C 
ATOM     23  C12 UNL     1      13.159  13.307  36.451  0.00  0.00    +0.021 C 
ATOM     24  C13 UNL     1      10.861  12.548  37.202  0.00  0.00    +0.043 C 
ATOM     25  C14 UNL     1      11.013  11.163  37.719  0.00  0.00    -0.030 C 
ATOM     26  C15 UNL     1      11.692  10.394  36.886  0.00  0.00    -0.030 C 
ATOM     27  C16 UNL     1      12.120  11.131  35.668  0.00  0.00    +0.043 C 
ENDBRANCH  19  22
ENDBRANCH   5  18
TORSDOF 4
ENDMDL
MODEL 3
REMARK VINA RESULT:    -6.264      5.188     10.076
REMARK INTER + INTRA:          -8.267
REMARK INTER:                  -7.547
REMARK INTRA:                  -0.720
REMARK UNBOUND:                -0.722
REMARK  Name = /home/qwerty/github/datacon2025hack/step_04_hit_selection/docking/ligands/lig_112.pdb
REMARK  7 active torsions:
REMARK  status: ('A' for Active; 'I' for Inactive)
REMARK    1  A    between atoms: C1_1  and  C2_2
REMARK    2  A    between atoms: C4_4  and  O1_5
REMARK    3  A    between atoms: C6_8  and  C7_9
REMARK    4  A    between atoms: C9_13  and  N3_14
REMARK    5  A    between atoms: C10_15  and  C11_17
REMARK    6  A    between atoms: C11_17  and  C12_18
REMARK    7  A    between atoms: C18_24  and  C19_25
REMARK                            x       y       z     vdW  Elec       q    Type
REMARK                         _______ _______ _______ _____ _____    ______ ____
ROOT
ATOM      1  C7  UNL     1      20.162   2.904  30.179  0.00  0.00    +0.249 C 
ATOM      2  O2  UNL     1      18.941   2.595  30.190  0.00  0.00    -0.270 OA
ATOM      3  N2  UNL     1      20.811   3.318  31.397  0.00  0.00    -0.293 N 
ATOM      4  C8  UNL     1      22.229   3.636  31.490  0.00  0.00    +0.130 C 
ATOM      5  C9  UNL     1      22.447   4.138  32.920  0.00  0.00    +0.092 C 
ATOM      6  C17 UNL     1      21.249   3.601  33.710  0.00  0.00    +0.046 C 
ATOM      7  C18 UNL     1      20.130   3.411  32.682  0.00  0.00    +0.075 C 
ATOM      8  C19 UNL     1      19.152   4.594  32.690  0.00  0.00    +0.028 C 
ENDROOT
BRANCH   1  15
ATOM      9  C1  UNL     1      21.740   0.512  29.419  0.00  0.00    +0.045 C 
ATOM     10  C2  UNL     1      21.658   1.725  28.530  0.00  0.00    -0.032 A 
ATOM     11  C3  UNL     1      22.356   1.743  27.314  0.00  0.00    +0.071 A 
ATOM     12  C4  UNL     1      22.279   2.867  26.483  0.00  0.00    +0.213 A 
ATOM     13  N1  UNL     1      21.535   3.938  26.863  0.00  0.00    -0.221 NA
ATOM     14  C5  UNL     1      20.853   3.958  28.037  0.00  0.00    +0.128 A 
ATOM     15  C6  UNL     1      20.897   2.854  28.901  0.00  0.00    +0.058 A 
BRANCH  12  16
ATOM     16  O1  UNL     1      22.959   2.903  25.269  0.00  0.00    -0.492 OA
ATOM     17  H5  UNL     1      23.545   2.132  24.967  0.00  0.00    +0.294 HD
ENDBRANCH  12  16
ENDBRANCH   1  15
BRANCH   5  18
ATOM     18  N3  UNL     1      22.471   5.605  32.969  0.00  0.00    -0.310 N 
ATOM     19  C10 UNL     1      23.688   6.352  32.816  0.00  0.00    +0.220 C 
ATOM     20  O3  UNL     1      24.775   5.740  32.618  0.00  0.00    -0.275 OA
ATOM     21  H10 UNL     1      21.586   6.128  33.161  0.00  0.00    +0.149 HD
BRANCH  19  22
ATOM     22  C11 UNL     1      23.688   7.861  32.996  0.00  0.00    +0.051 C 
ATOM     23  C12 UNL     1      22.913   8.198  34.286  0.00  0.00    +0.021 C 
ATOM     24  C13 UNL     1      25.118   8.458  33.066  0.00  0.00    +0.043 C 
ATOM     25  C14 UNL     1      25.026   9.713  32.275  0.00  0.00    -0.030 C 
ATOM     26  C15 UNL     1      23.906   9.779  31.577  0.00  0.00    -0.030 C 
ATOM     27  C16 UNL     1      23.048   8.583  31.784  0.00  0.00    +0.043 C 
ENDBRANCH  19  22
ENDBRANCH   5  18
TORSDOF 4
ENDMDL
MODEL 4
REMARK VINA RESULT:    -6.136     12.530     14.511
REMARK INTER + INTRA:          -8.113
REMARK INTER:                  -7.409
REMARK INTRA:                  -0.703
REMARK UNBOUND:                -0.722
REMARK  Name = /home/qwerty/github/datacon2025hack/step_04_hit_selection/docking/ligands/lig_112.pdb
REMARK  7 active torsions:
REMARK  status: ('A' for Active; 'I' for Inactive)
REMARK    1  A    between atoms: C1_1  and  C2_2
REMARK    2  A    between atoms: C4_4  and  O1_5
REMARK    3  A    between atoms: C6_8  and  C7_9
REMARK    4  A    between atoms: C9_13  and  N3_14
REMARK    5  A    between atoms: C10_15  and  C11_17
REMARK    6  A    between atoms: C11_17  and  C12_18
REMARK    7  A    between atoms: C18_24  and  C19_25
REMARK                            x       y       z     vdW  Elec       q    Type
REMARK                         _______ _______ _______ _____ _____    ______ ____
ROOT
ATOM      1  C7  UNL     1      10.108  10.405  28.290  0.00  0.00    +0.249 C 
ATOM      2  O2  UNL     1      10.581   9.704  29.224  0.00  0.00    -0.270 OA
ATOM      3  N2  UNL     1       9.140   9.839  27.385  0.00  0.00    -0.293 N 
ATOM      4  C8  UNL     1       8.497  10.590  26.315  0.00  0.00    +0.130 C 
ATOM      5  C9  UNL     1       7.652   9.573  25.545  0.00  0.00    +0.092 C 
ATOM      6  C17 UNL     1       7.461   8.406  26.519  0.00  0.00    +0.046 C 
ATOM      7  C18 UNL     1       8.657   8.467  27.475  0.00  0.00    +0.075 C 
ATOM      8  C19 UNL     1       9.757   7.479  27.063  0.00  0.00    +0.028 C 
ENDROOT
BRANCH   1  15
ATOM      9  C1  UNL     1       8.610  12.669  29.479  0.00  0.00    +0.045 C 
ATOM     10  C2  UNL     1       9.873  12.881  28.688  0.00  0.00    -0.032 A 
ATOM     11  C3  UNL     1      10.356  14.182  28.487  0.00  0.00    +0.071 A 
ATOM     12  C4  UNL     1      11.532  14.383  27.754  0.00  0.00    +0.213 A 
ATOM     13  N1  UNL     1      12.196  13.317  27.236  0.00  0.00    -0.221 NA
ATOM     14  C5  UNL     1      11.752  12.045  27.405  0.00  0.00    +0.128 A 
ATOM     15  C6  UNL     1      10.581  11.793  28.133  0.00  0.00    +0.058 A 
BRANCH  12  16
ATOM     16  O1  UNL     1      12.032  15.666  27.549  0.00  0.00    -0.492 OA
ATOM     17  H5  UNL     1      11.455  16.403  27.159  0.00  0.00    +0.294 HD
ENDBRANCH  12  16
ENDBRANCH   1  15
BRANCH   5  18
ATOM     18  N3  UNL     1       8.345   9.115  24.334  0.00  0.00    -0.310 N 
ATOM     19  C10 UNL     1       8.234   9.814  23.084  0.00  0.00    +0.220 C 
ATOM     20  O3  UNL     1       7.534  10.862  23.015  0.00  0.00    -0.275 OA
ATOM     21  H10 UNL     1       8.907   8.233  24.365  0.00  0.00    +0.149 HD
BRANCH  19  22
ATOM     22  C11 UNL     1       8.867   9.239  21.828  0.00  0.00    +0.051 C 
ATOM     23  C12 UNL     1       8.002   8.057  21.343  0.00  0.00    +0.021 C 
ATOM     24  C13 UNL     1       9.014  10.288  20.695  0.00  0.00    +0.043 C 
ATOM     25  C14 UNL     1      10.347  10.000  20.105  0.00  0.00    -0.030 C 
ATOM     26  C15 UNL     1      11.057   9.180  20.858  0.00  0.00    -0.030 C 
ATOM     27  C16 UNL     1      10.321   8.768  22.083  0.00  0.00    +0.043 C 
ENDBRANCH  19  22
ENDBRANCH   5  18
TORSDOF 4
ENDMDL
MODEL 5
REMARK VINA RESULT:    -6.105      5.099      9.886
REMARK INTER + INTRA:          -8.076
REMARK INTER:                  -7.375
REMARK INTRA:                  -0.702
REMARK UNBOUND:                -0.722
REMARK  Name = /home/qwerty/github/datacon2025hack/step_04_hit_selection/docking/ligands/lig_112.pdb
REMARK  7 active torsions:
REMARK  status: ('A' for Active; 'I' for Inactive)
REMARK    1  A    between atoms: C1_1  and  C2_2
REMARK    2  A    between atoms: C4_4  and  O1_5
REMARK    3  A    between atoms: C6_8  and  C7_9
REMARK    4  A    between atoms: C9_13  and  N3_14
REMARK    5  A    between atoms: C10_15  and  C11_17
REMARK    6  A    between atoms: C11_17  and  C12_18
REMARK    7  A    between atoms: C18_24  and  C19_25
REMARK                            x       y       z     vdW  Elec       q    Type
REMARK                         _______ _______ _______ _____ _____    ______ ____
ROOT
ATOM      1  C7  UNL     1      20.215   2.676  29.967  0.00  0.00    +0.249 C 
ATOM      2  O2  UNL     1      19.004   2.349  29.847  0.00  0.00    -0.270 OA
ATOM      3  N2  UNL     1      20.786   2.858  31.277  0.00  0.00    -0.293 N 
ATOM      4  C8  UNL     1      22.187   3.178  31.512  0.00  0.00    +0.130 C 
ATOM      5  C9  UNL     1      22.314   3.399  33.022  0.00  0.00    +0.092 C 
ATOM      6  C17 UNL     1      21.091   2.698  33.623  0.00  0.00    +0.046 C 
ATOM      7  C18 UNL     1      20.034   2.691  32.515  0.00  0.00    +0.075 C 
ATOM      8  C19 UNL     1      19.024   3.833  32.692  0.00  0.00    +0.028 C 
ENDROOT
BRANCH   1  15
ATOM      9  C1  UNL     1      21.844   0.483  28.817  0.00  0.00    +0.045 C 
ATOM     10  C2  UNL     1      21.804   1.853  28.194  0.00  0.00    -0.032 A 
ATOM     11  C3  UNL     1      22.568   2.117  27.047  0.00  0.00    +0.071 A 
ATOM     12  C4  UNL     1      22.530   3.389  26.464  0.00  0.00    +0.213 A 
ATOM     13  N1  UNL     1      21.761   4.363  27.015  0.00  0.00    -0.221 NA
ATOM     14  C5  UNL     1      21.016   4.144  28.129  0.00  0.00    +0.128 A 
ATOM     15  C6  UNL     1      21.018   2.886  28.748  0.00  0.00    +0.058 A 
BRANCH  12  16
ATOM     16  O1  UNL     1      23.275   3.670  25.321  0.00  0.00    -0.492 OA
ATOM     17  H5  UNL     1      22.919   4.278  24.593  0.00  0.00    +0.294 HD
ENDBRANCH  12  16
ENDBRANCH   1  15
BRANCH   5  18
ATOM     18  N3  UNL     1      22.294   4.829  33.352  0.00  0.00    -0.310 N 
ATOM     19  C10 UNL     1      23.477   5.640  33.293  0.00  0.00    +0.220 C 
ATOM     20  O3  UNL     1      24.571   5.122  32.933  0.00  0.00    -0.275 OA
ATOM     21  H10 UNL     1      21.403   5.269  33.680  0.00  0.00    +0.149 HD
BRANCH  19  22
ATOM     22  C11 UNL     1      23.438   7.085  33.761  0.00  0.00    +0.051 C 
ATOM     23  C12 UNL     1      24.677   7.813  33.200  0.00  0.00    +0.021 C 
ATOM     24  C13 UNL     1      22.146   7.824  33.322  0.00  0.00    +0.043 C 
ATOM     25  C14 UNL     1      21.777   8.642  34.507  0.00  0.00    -0.030 C 
ATOM     26  C15 UNL     1      22.460   8.294  35.583  0.00  0.00    -0.030 C 
ATOM     27  C16 UNL     1      23.412   7.187  35.306  0.00  0.00    +0.043 C 
ENDBRANCH  19  22
ENDBRANCH   5  18
TORSDOF 4
ENDMDL
MODEL 6
REMARK VINA RESULT:    -5.915     13.914     16.665
REMARK INTER + INTRA:          -7.847
REMARK INTER:                  -7.075
REMARK INTRA:                  -0.772
REMARK UNBOUND:                -0.722
REMARK  Name = /home/qwerty/github/datacon2025hack/step_04_hit_selection/docking/ligands/lig_112.pdb
REMARK  7 active torsions:
REMARK  status: ('A' for Active; 'I' for Inactive)
REMARK    1  A    between atoms: C1_1  and  C2_2
REMARK    2  A    between atoms: C4_4  and  O1_5
REMARK    3  A    between atoms: C6_8  and  C7_9
REMARK    4  A    between atoms: C9_13  and  N3_14
REMARK    5  A    between atoms: C10_15  and  C11_17
REMARK    6  A    between atoms: C11_17  and  C12_18
REMARK    7  A    between atoms: C18_24  and  C19_25
REMARK                            x       y       z     vdW  Elec       q    Type
REMARK                         _______ _______ _______ _____ _____    ______ ____
ROOT
ATOM      1  C7  UNL     1      11.015  13.416  29.373  0.00  0.00    +0.249 C 
ATOM      2  O2  UNL     1      11.472  13.681  28.229  0.00  0.00    -0.270 OA
ATOM      3  N2  UNL     1      11.597  14.031  30.539  0.00  0.00    -0.293 N 
ATOM      4  C8  UNL     1      11.098  13.829  31.893  0.00  0.00    +0.130 C 
ATOM      5  C9  UNL     1      12.081  14.563  32.809  0.00  0.00    +0.092 C 
ATOM      6  C17 UNL     1      12.796  15.563  31.895  0.00  0.00    +0.046 C 
ATOM      7  C18 UNL     1      12.715  14.964  30.487  0.00  0.00    +0.075 C 
ATOM      8  C19 UNL     1      14.011  14.234  30.110  0.00  0.00    +0.028 C 
ENDROOT
BRANCH   1  15
ATOM      9  C1  UNL     1      11.526  10.546  29.906  0.00  0.00    +0.045 C 
ATOM     10  C2  UNL     1      10.131  11.086  29.735  0.00  0.00    -0.032 A 
ATOM     11  C3  UNL     1       9.035  10.214  29.811  0.00  0.00    +0.071 A 
ATOM     12  C4  UNL     1       7.737  10.713  29.656  0.00  0.00    +0.213 A 
ATOM     13  N1  UNL     1       7.545  12.037  29.425  0.00  0.00    -0.221 NA
ATOM     14  C5  UNL     1       8.583  12.908  29.337  0.00  0.00    +0.128 A 
ATOM     15  C6  UNL     1       9.902  12.457  29.489  0.00  0.00    +0.058 A 
BRANCH  12  16
ATOM     16  O1  UNL     1       6.635   9.866  29.735  0.00  0.00    -0.492 OA
ATOM     17  H5  UNL     1       5.794  10.038  29.195  0.00  0.00    +0.294 HD
ENDBRANCH  12  16
ENDBRANCH   1  15
BRANCH   5  18
ATOM     18  N3  UNL     1      13.050  13.633  33.401  0.00  0.00    -0.310 N 
ATOM     19  C10 UNL     1      13.735  13.927  34.629  0.00  0.00    +0.220 C 
ATOM     20  O3  UNL     1      13.495  15.008  35.234  0.00  0.00    -0.275 OA
ATOM     21  H10 UNL     1      13.283  12.745  32.900  0.00  0.00    +0.149 HD
BRANCH  19  22
ATOM     22  C11 UNL     1      14.820  12.994  35.141  0.00  0.00    +0.051 C 
ATOM     23  C12 UNL     1      15.481  12.302  33.931  0.00  0.00    +0.021 C 
ATOM     24  C13 UNL     1      15.896  13.730  35.984  0.00  0.00    +0.043 C 
ATOM     25  C14 UNL     1      16.177  12.796  37.106  0.00  0.00    -0.030 C 
ATOM     26  C15 UNL     1      15.284  11.826  37.181  0.00  0.00    -0.030 C 
ATOM     27  C16 UNL     1      14.250  11.935  36.118  0.00  0.00    +0.043 C 
ENDBRANCH  19  22
ENDBRANCH   5  18
TORSDOF 4
ENDMDL
MODEL 7
REMARK VINA RESULT:    -5.879      6.122      8.703
REMARK INTER + INTRA:          -7.804
REMARK INTER:                  -7.069
REMARK INTRA:                  -0.735
REMARK UNBOUND:                -0.722
REMARK  Name = /home/qwerty/github/datacon2025hack/step_04_hit_selection/docking/ligands/lig_112.pdb
REMARK  7 active torsions:
REMARK  status: ('A' for Active; 'I' for Inactive)
REMARK    1  A    between atoms: C1_1  and  C2_2
REMARK    2  A    between atoms: C4_4  and  O1_5
REMARK    3  A    between atoms: C6_8  and  C7_9
REMARK    4  A    between atoms: C9_13  and  N3_14
REMARK    5  A    between atoms: C10_15  and  C11_17
REMARK    6  A    between atoms: C11_17  and  C12_18
REMARK    7  A    between atoms: C18_24  and  C19_25
REMARK                            x       y       z     vdW  Elec       q    Type
REMARK                         _______ _______ _______ _____ _____    ______ ____
ROOT
ATOM      1  C7  UNL     1      16.035   2.284  21.425  0.00  0.00    +0.249 C 
ATOM      2  O2  UNL     1      17.124   2.918  21.412  0.00  0.00    -0.270 OA
ATOM      3  N2  UNL     1      14.859   2.859  20.823  0.00  0.00    -0.293 N 
ATOM      4  C8  UNL     1      13.576   2.175  20.740  0.00  0.00    +0.130 C 
ATOM      5  C9  UNL     1      12.602   3.194  20.143  0.00  0.00    +0.092 C 
ATOM      6  C17 UNL     1      13.495   4.229  19.451  0.00  0.00    +0.046 C 
ATOM      7  C18 UNL     1      14.840   4.167  20.181  0.00  0.00    +0.075 C 
ATOM      8  C19 UNL     1      14.964   5.283  21.227  0.00  0.00    +0.028 C 
ENDROOT
BRANCH   1  15
ATOM      9  C1  UNL     1      16.590  -0.201  19.908  0.00  0.00    +0.045 C 
ATOM     10  C2  UNL     1      16.244  -0.226  21.373  0.00  0.00    -0.032 A 
ATOM     11  C3  UNL     1      16.161  -1.454  22.046  0.00  0.00    +0.071 A 
ATOM     12  C4  UNL     1      15.843  -1.480  23.410  0.00  0.00    +0.213 A 
ATOM     13  N1  UNL     1      15.607  -0.318  24.071  0.00  0.00    -0.221 NA
ATOM     14  C5  UNL     1      15.670   0.887  23.449  0.00  0.00    +0.128 A 
ATOM     15  C6  UNL     1      15.989   0.966  22.086  0.00  0.00    +0.058 A 
BRANCH  12  16
ATOM     16  O1  UNL     1      15.762  -2.687  24.098  0.00  0.00    -0.492 OA
ATOM     17  H5  UNL     1      16.385  -3.460  23.888  0.00  0.00    +0.294 HD
ENDBRANCH  12  16
ENDBRANCH   1  15
BRANCH   5  18
ATOM     18  N3  UNL     1      11.798   3.836  21.191  0.00  0.00    -0.310 N 
ATOM     19  C10 UNL     1      10.594   3.240  21.698  0.00  0.00    +0.220 C 
ATOM     20  O3  UNL     1      10.213   2.124  21.248  0.00  0.00    -0.275 OA
ATOM     21  H10 UNL     1      12.083   4.774  21.555  0.00  0.00    +0.149 HD
BRANCH  19  22
ATOM     22  C11 UNL     1       9.728   3.995  22.692  0.00  0.00    +0.051 C 
ATOM     23  C12 UNL     1      10.371   5.373  22.953  0.00  0.00    +0.021 C 
ATOM     24  C13 UNL     1       8.267   4.177  22.200  0.00  0.00    +0.043 C 
ATOM     25  C14 UNL     1       7.444   3.949  23.416  0.00  0.00    -0.030 C 
ATOM     26  C15 UNL     1       8.149   3.426  24.402  0.00  0.00    -0.030 C 
ATOM     27  C16 UNL     1       9.572   3.217  24.023  0.00  0.00    +0.043 C 
ENDBRANCH  19  22
ENDBRANCH   5  18
TORSDOF 4
ENDMDL
MODEL 8
REMARK VINA RESULT:    -5.784     12.027     14.495
REMARK INTER + INTRA:          -7.690
REMARK INTER:                  -7.015
REMARK INTRA:                  -0.674
REMARK UNBOUND:                -0.722
REMARK  Name = /home/qwerty/github/datacon2025hack/step_04_hit_selection/docking/ligands/lig_112.pdb
REMARK  7 active torsions:
REMARK  status: ('A' for Active; 'I' for Inactive)
REMARK    1  A    between atoms: C1_1  and  C2_2
REMARK    2  A    between atoms: C4_4  and  O1_5
REMARK    3  A    between atoms: C6_8  and  C7_9
REMARK    4  A    between atoms: C9_13  and  N3_14
REMARK    5  A    between atoms: C10_15  and  C11_17
REMARK    6  A    between atoms: C11_17  and  C12_18
REMARK    7  A    between atoms: C18_24  and  C19_25
REMARK                            x       y       z     vdW  Elec       q    Type
REMARK                         _______ _______ _______ _____ _____    ______ ____
ROOT
ATOM      1  C7  UNL     1      16.202  11.912  34.775  0.00  0.00    +0.249 C 
ATOM      2  O2  UNL     1      16.138  12.785  33.869  0.00  0.00    -0.270 OA
ATOM      3  N2  UNL     1      17.405  11.773  35.557  0.00  0.00    -0.293 N 
ATOM      4  C8  UNL     1      17.549  10.834  36.660  0.00  0.00    +0.130 C 
ATOM      5  C9  UNL     1      19.009  10.943  37.109  0.00  0.00    +0.092 C 
ATOM      6  C17 UNL     1      19.482  12.298  36.573  0.00  0.00    +0.046 C 
ATOM      7  C18 UNL     1      18.593  12.596  35.362  0.00  0.00    +0.075 C 
ATOM      8  C19 UNL     1      19.293  12.230  34.046  0.00  0.00    +0.028 C 
ENDROOT
BRANCH   1  15
ATOM      9  C1  UNL     1      14.149  12.585  36.805  0.00  0.00    +0.045 C 
ATOM     10  C2  UNL     1      14.059  11.337  35.968  0.00  0.00    -0.032 A 
ATOM     11  C3  UNL     1      12.988  10.451  36.155  0.00  0.00    +0.071 A 
ATOM     12  C4  UNL     1      12.899   9.292  35.376  0.00  0.00    +0.213 A 
ATOM     13  N1  UNL     1      13.854   9.026  34.448  0.00  0.00    -0.221 NA
ATOM     14  C5  UNL     1      14.909   9.857  34.246  0.00  0.00    +0.128 A 
ATOM     15  C6  UNL     1      15.040  11.033  34.999  0.00  0.00    +0.058 A 
BRANCH  12  16
ATOM     16  O1  UNL     1      11.840   8.403  35.541  0.00  0.00    -0.492 OA
ATOM     17  H5  UNL     1      10.963   8.696  35.958  0.00  0.00    +0.294 HD
ENDBRANCH  12  16
ENDBRANCH   1  15
BRANCH   5  18
ATOM     18  N3  UNL     1      19.820   9.860  36.540  0.00  0.00    -0.310 N 
ATOM     19  C10 UNL     1      19.834   8.541  37.108  0.00  0.00    +0.220 C 
ATOM     20  O3  UNL     1      19.119   8.289  38.118  0.00  0.00    -0.275 OA
ATOM     21  H10 UNL     1      20.440  10.057  35.722  0.00  0.00    +0.149 HD
BRANCH  19  22
ATOM     22  C11 UNL     1      20.780   7.484  36.564  0.00  0.00    +0.051 C 
ATOM     23  C12 UNL     1      19.940   6.313  36.014  0.00  0.00    +0.021 C 
ATOM     24  C13 UNL     1      21.717   8.030  35.455  0.00  0.00    +0.043 C 
ATOM     25  C14 UNL     1      23.031   7.399  35.748  0.00  0.00    -0.030 C 
ATOM     26  C15 UNL     1      23.054   6.831  36.940  0.00  0.00    -0.030 C 
ATOM     27  C16 UNL     1      21.757   6.975  37.653  0.00  0.00    +0.043 C 
ENDBRANCH  19  22
ENDBRANCH   5  18
TORSDOF 4
ENDMDL
MODEL 9
REMARK VINA RESULT:    -5.699     10.121     13.249
REMARK INTER + INTRA:          -7.587
REMARK INTER:                  -6.881
REMARK INTRA:                  -0.706
REMARK UNBOUND:                -0.722
REMARK  Name = /home/qwerty/github/datacon2025hack/step_04_hit_selection/docking/ligands/lig_112.pdb
REMARK  7 active torsions:
REMARK  status: ('A' for Active; 'I' for Inactive)
REMARK    1  A    between atoms: C1_1  and  C2_2
REMARK    2  A    between atoms: C4_4  and  O1_5
REMARK    3  A    between atoms: C6_8  and  C7_9
REMARK    4  A    between atoms: C9_13  and  N3_14
REMARK    5  A    between atoms: C10_15  and  C11_17
REMARK    6  A    between atoms: C11_17  and  C12_18
REMARK    7  A    between atoms: C18_24  and  C19_25
REMARK                            x       y       z     vdW  Elec       q    Type
REMARK                         _______ _______ _______ _____ _____    ______ ____
ROOT
ATOM      1  C7  UNL     1      18.671   9.242  37.046  0.00  0.00    +0.249 C 
ATOM      2  O2  UNL     1      18.662   9.014  38.285  0.00  0.00    -0.270 OA
ATOM      3  N2  UNL     1      19.123   8.226  36.130  0.00  0.00    -0.293 N 
ATOM      4  C8  UNL     1      19.113   8.379  34.682  0.00  0.00    +0.130 C 
ATOM      5  C9  UNL     1      19.787   7.121  34.127  0.00  0.00    +0.092 C 
ATOM      6  C17 UNL     1      19.687   6.093  35.259  0.00  0.00    +0.046 C 
ATOM      7  C18 UNL     1      19.591   6.911  36.551  0.00  0.00    +0.075 C 
ATOM      8  C19 UNL     1      20.953   7.021  37.249  0.00  0.00    +0.028 C 
ENDROOT
BRANCH   1  15
ATOM      9  C1  UNL     1      15.807   9.806  36.529  0.00  0.00    +0.045 C 
ATOM     10  C2  UNL     1      16.874  10.845  36.307  0.00  0.00    -0.032 A 
ATOM     11  C3  UNL     1      16.518  12.114  35.825  0.00  0.00    +0.071 A 
ATOM     12  C4  UNL     1      17.508  13.083  35.621  0.00  0.00    +0.213 A 
ATOM     13  N1  UNL     1      18.807  12.788  35.881  0.00  0.00    -0.221 NA
ATOM     14  C5  UNL     1      19.188  11.568  36.340  0.00  0.00    +0.128 A 
ATOM     15  C6  UNL     1      18.234  10.565  36.564  0.00  0.00    +0.058 A 
BRANCH  12  16
ATOM     16  O1  UNL     1      17.175  14.350  35.150  0.00  0.00    -0.492 OA
ATOM     17  H5  UNL     1      17.801  15.140  35.266  0.00  0.00    +0.294 HD
ENDBRANCH  12  16
ENDBRANCH   1  15
BRANCH   5  18
ATOM     18  N3  UNL     1      21.193   7.376  33.795  0.00  0.00    -0.310 N 
ATOM     19  C10 UNL     1      21.603   7.783  32.480  0.00  0.00    +0.220 C 
ATOM     20  O3  UNL     1      20.734   7.945  31.578  0.00  0.00    -0.275 OA
ATOM     21  H10 UNL     1      21.930   7.220  34.521  0.00  0.00    +0.149 HD
BRANCH  19  22
ATOM     22  C11 UNL     1      23.079   7.917  32.146  0.00  0.00    +0.051 C 
ATOM     23  C12 UNL     1      23.682   6.502  32.029  0.00  0.00    +0.021 C 
ATOM     24  C13 UNL     1      23.329   8.709  30.835  0.00  0.00    +0.043 C 
ATOM     25  C14 UNL     1      24.509   9.559  31.145  0.00  0.00    -0.030 C 
ATOM     26  C15 UNL     1      24.782   9.576  32.437  0.00  0.00    -0.030 C 
ATOM     27  C16 UNL     1      23.839   8.735  33.219  0.00  0.00    +0.043 C 
ENDBRANCH  19  22
ENDBRANCH   5  18
TORSDOF 4
ENDMDL
