MODEL 1
REMARK VINA RESULT:    -6.374      0.000      0.000
REMARK INTER + INTRA:          -8.471
REMARK INTER:                  -7.865
REMARK INTRA:                  -0.607
REMARK UNBOUND:                -0.607
REMARK  Name = /home/qwerty/github/datacon2025hack/step_04_hit_selection/docking/ligands/lig_109.pdb
REMARK  5 active torsions:
REMARK  status: ('A' for Active; 'I' for Inactive)
REMARK    1  A    between atoms: C1_1  and  C2_2
REMARK    2  A    between atoms: C2_2  and  N1_3
REMARK    3  A    between atoms: C2_2  and  C12_15
REMARK    4  A    between atoms: C3_4  and  C4_6
REMARK    5  A    between atoms: C15_18  and  N2_19
REMARK                            x       y       z     vdW  Elec       q    Type
REMARK                         _______ _______ _______ _____ _____    ______ ____
ROOT
ATOM      1  C1  UNL     1      14.464  16.253  36.413  0.00  0.00    +0.033 C 
ATOM      2  C2  UNL     1      13.888  14.907  35.959  0.00  0.00    +0.100 C 
ENDROOT
BRANCH   2   3
ATOM      3  C12 UNL     1      14.892  13.802  36.201  0.00  0.00    -0.027 A 
ATOM      4  C13 UNL     1      14.536  12.678  36.962  0.00  0.00    +0.007 A 
ATOM      5  C14 UNL     1      15.462  11.659  37.201  0.00  0.00    +0.028 A 
ATOM      6  C15 UNL     1      16.771  11.745  36.686  0.00  0.00    +0.067 A 
ATOM      7  C18 UNL     1      17.127  12.880  35.937  0.00  0.00    +0.028 A 
ATOM      8  C19 UNL     1      16.201  13.897  35.699  0.00  0.00    +0.007 A 
BRANCH   6   9
ATOM      9  N2  UNL     1      17.740  10.703  36.922  0.00  0.00    -0.220 N 
ATOM     10  C16 UNL     1      18.789  10.348  36.152  0.00  0.00    +0.225 A 
ATOM     11  N3  UNL     1      19.479   9.331  36.703  0.00  0.00    -0.222 NA
ATOM     12  C17 UNL     1      18.794   9.093  37.841  0.00  0.00    +0.245 A 
ATOM     13  N4  UNL     1      17.740   9.918  37.987  0.00  0.00    -0.154 NA
ENDBRANCH   6   9
ENDBRANCH   2   3
BRANCH   2  14
ATOM     14  N1  UNL     1      13.513  14.957  34.541  0.00  0.00    -0.304 N 
ATOM     15  C3  UNL     1      12.369  14.246  34.037  0.00  0.00    +0.251 C 
ATOM     16  O1  UNL     1      11.593  13.660  34.840  0.00  0.00    -0.270 OA
ATOM     17  H5  UNL     1      14.087  15.532  33.886  0.00  0.00    +0.150 HD
BRANCH  15  18
ATOM     18  C4  UNL     1      12.079  14.187  32.593  0.00  0.00    +0.074 A 
ATOM     19  C5  UNL     1      10.930  13.676  31.986  0.00  0.00    +0.024 A 
ATOM     20  C6  UNL     1      10.960  13.770  30.588  0.00  0.00    -0.036 A 
ATOM     21  C7  UNL     1      12.103  14.391  30.101  0.00  0.00    -0.006 A 
ATOM     22  S1  UNL     1      13.110  14.771  31.389  0.00  0.00    -0.088 S 
ATOM     23  C8  UNL     1      12.423  14.549  28.646  0.00  0.00    +0.043 C 
ATOM     24  C9  UNL     1      11.151  14.416  27.791  0.00  0.00    +0.005 C 
ATOM     25  C10 UNL     1      10.306  13.206  28.229  0.00  0.00    +0.005 C 
ATOM     26  C11 UNL     1       9.833  13.351  29.687  0.00  0.00    +0.036 C 
ENDBRANCH  15  18
ENDBRANCH   2  14
TORSDOF 4
ENDMDL
MODEL 2
REMARK VINA RESULT:    -6.304      5.372      9.886
REMARK INTER + INTRA:          -8.385
REMARK INTER:                  -7.767
REMARK INTRA:                  -0.618
REMARK UNBOUND:                -0.607
REMARK  Name = /home/qwerty/github/datacon2025hack/step_04_hit_selection/docking/ligands/lig_109.pdb
REMARK  5 active torsions:
REMARK  status: ('A' for Active; 'I' for Inactive)
REMARK    1  A    between atoms: C1_1  and  C2_2
REMARK    2  A    between atoms: C2_2  and  N1_3
REMARK    3  A    between atoms: C2_2  and  C12_15
REMARK    4  A    between atoms: C3_4  and  C4_6
REMARK    5  A    between atoms: C15_18  and  N2_19
REMARK                            x       y       z     vdW  Elec       q    Type
REMARK                         _______ _______ _______ _____ _____    ______ ____
ROOT
ATOM      1  C1  UNL     1       6.976  14.177  29.726  0.00  0.00    +0.033 C 
ATOM      2  C2  UNL     1       8.332  13.639  29.257  0.00  0.00    +0.100 C 
ENDROOT
BRANCH   2   3
ATOM      3  C12 UNL     1       8.189  12.213  28.773  0.00  0.00    -0.027 A 
ATOM      4  C13 UNL     1       8.402  11.901  27.421  0.00  0.00    +0.007 A 
ATOM      5  C14 UNL     1       8.258  10.588  26.964  0.00  0.00    +0.028 A 
ATOM      6  C15 UNL     1       7.893   9.556  27.851  0.00  0.00    +0.067 A 
ATOM      7  C18 UNL     1       7.665   9.877  29.200  0.00  0.00    +0.028 A 
ATOM      8  C19 UNL     1       7.809  11.189  29.657  0.00  0.00    +0.007 A 
BRANCH   6   9
ATOM      9  N2  UNL     1       7.740   8.195  27.397  0.00  0.00    -0.220 N 
ATOM     10  C16 UNL     1       8.164   7.648  26.240  0.00  0.00    +0.225 A 
ATOM     11  N3  UNL     1       7.845   6.342  26.169  0.00  0.00    -0.222 NA
ATOM     12  C17 UNL     1       7.208   6.131  27.341  0.00  0.00    +0.245 A 
ATOM     13  N4  UNL     1       7.139   7.245  28.094  0.00  0.00    -0.154 NA
ENDBRANCH   6   9
ENDBRANCH   2   3
BRANCH   2  14
ATOM     14  N1  UNL     1       9.322  13.716  30.338  0.00  0.00    -0.304 N 
ATOM     15  C3  UNL     1      10.722  13.896  30.068  0.00  0.00    +0.251 C 
ATOM     16  O1  UNL     1      11.109  14.114  28.888  0.00  0.00    -0.270 OA
ATOM     17  H5  UNL     1       8.995  13.648  31.327  0.00  0.00    +0.150 HD
BRANCH  15  18
ATOM     18  C4  UNL     1      11.725  13.833  31.147  0.00  0.00    +0.074 A 
ATOM     19  C5  UNL     1      11.540  14.170  32.489  0.00  0.00    +0.024 A 
ATOM     20  C6  UNL     1      12.694  13.995  33.263  0.00  0.00    -0.036 A 
ATOM     21  C7  UNL     1      13.767  13.480  32.547  0.00  0.00    -0.006 A 
ATOM     22  S1  UNL     1      13.314  13.298  30.941  0.00  0.00    -0.088 S 
ATOM     23  C8  UNL     1      15.138  13.271  33.113  0.00  0.00    +0.043 C 
ATOM     24  C9  UNL     1      15.089  13.204  34.649  0.00  0.00    +0.005 C 
ATOM     25  C10 UNL     1      14.219  14.334  35.230  0.00  0.00    +0.005 C 
ATOM     26  C11 UNL     1      12.762  14.225  34.746  0.00  0.00    +0.036 C 
ENDBRANCH  15  18
ENDBRANCH   2  14
TORSDOF 4
ENDMDL
MODEL 3
REMARK VINA RESULT:    -6.280     11.629     15.547
REMARK INTER + INTRA:          -8.355
REMARK INTER:                  -7.745
REMARK INTRA:                  -0.611
REMARK UNBOUND:                -0.607
REMARK  Name = /home/qwerty/github/datacon2025hack/step_04_hit_selection/docking/ligands/lig_109.pdb
REMARK  5 active torsions:
REMARK  status: ('A' for Active; 'I' for Inactive)
REMARK    1  A    between atoms: C1_1  and  C2_2
REMARK    2  A    between atoms: C2_2  and  N1_3
REMARK    3  A    between atoms: C2_2  and  C12_15
REMARK    4  A    between atoms: C3_4  and  C4_6
REMARK    5  A    between atoms: C15_18  and  N2_19
REMARK                            x       y       z     vdW  Elec       q    Type
REMARK                         _______ _______ _______ _____ _____    ______ ____
ROOT
ATOM      1  C1  UNL     1      24.342   0.314  29.259  0.00  0.00    +0.033 C 
ATOM      2  C2  UNL     1      22.929   0.818  29.573  0.00  0.00    +0.100 C 
ENDROOT
BRANCH   2   3
ATOM      3  C12 UNL     1      22.271   1.344  28.317  0.00  0.00    -0.027 A 
ATOM      4  C13 UNL     1      21.179   0.665  27.754  0.00  0.00    +0.007 A 
ATOM      5  C14 UNL     1      20.574   1.137  26.586  0.00  0.00    +0.028 A 
ATOM      6  C15 UNL     1      21.053   2.300  25.950  0.00  0.00    +0.067 A 
ATOM      7  C18 UNL     1      22.157   2.967  26.509  0.00  0.00    +0.028 A 
ATOM      8  C19 UNL     1      22.760   2.495  27.677  0.00  0.00    +0.007 A 
BRANCH   6   9
ATOM      9  N2  UNL     1      20.442   2.803  24.744  0.00  0.00    -0.220 N 
ATOM     10  C16 UNL     1      19.234   2.496  24.230  0.00  0.00    +0.225 A 
ATOM     11  N3  UNL     1      19.000   3.172  23.088  0.00  0.00    -0.222 NA
ATOM     12  C17 UNL     1      20.127   3.900  22.943  0.00  0.00    +0.245 A 
ATOM     13  N4  UNL     1      21.008   3.687  23.939  0.00  0.00    -0.154 NA
ENDBRANCH   6   9
ENDBRANCH   2   3
BRANCH   2  14
ATOM     14  N1  UNL     1      22.969   1.860  30.605  0.00  0.00    -0.304 N 
ATOM     15  C3  UNL     1      21.840   2.126  31.455  0.00  0.00    +0.251 C 
ATOM     16  O1  UNL     1      20.829   1.374  31.405  0.00  0.00    -0.270 OA
ATOM     17  H5  UNL     1      23.845   2.415  30.729  0.00  0.00    +0.150 HD
BRANCH  15  18
ATOM     18  C4  UNL     1      21.837   3.264  32.393  0.00  0.00    +0.074 A 
ATOM     19  C5  UNL     1      22.881   4.159  32.633  0.00  0.00    +0.024 A 
ATOM     20  C6  UNL     1      22.558   5.135  33.585  0.00  0.00    -0.036 A 
ATOM     21  C7  UNL     1      21.255   5.038  34.055  0.00  0.00    -0.006 A 
ATOM     22  S1  UNL     1      20.516   3.708  33.347  0.00  0.00    -0.088 S 
ATOM     23  C8  UNL     1      20.679   5.905  35.133  0.00  0.00    +0.043 C 
ATOM     24  C9  UNL     1      21.496   7.200  35.284  0.00  0.00    +0.005 C 
ATOM     25  C10 UNL     1      23.008   6.909  35.306  0.00  0.00    +0.005 C 
ATOM     26  C11 UNL     1      23.472   6.256  33.991  0.00  0.00    +0.036 C 
ENDBRANCH  15  18
ENDBRANCH   2  14
TORSDOF 4
ENDMDL
MODEL 4
REMARK VINA RESULT:    -6.261      7.178     12.158
REMARK INTER + INTRA:          -8.331
REMARK INTER:                  -7.784
REMARK INTRA:                  -0.547
REMARK UNBOUND:                -0.607
REMARK  Name = /home/qwerty/github/datacon2025hack/step_04_hit_selection/docking/ligands/lig_109.pdb
REMARK  5 active torsions:
REMARK  status: ('A' for Active; 'I' for Inactive)
REMARK    1  A    between atoms: C1_1  and  C2_2
REMARK    2  A    between atoms: C2_2  and  N1_3
REMARK    3  A    between atoms: C2_2  and  C12_15
REMARK    4  A    between atoms: C3_4  and  C4_6
REMARK    5  A    between atoms: C15_18  and  N2_19
REMARK                            x       y       z     vdW  Elec       q    Type
REMARK                         _______ _______ _______ _____ _____    ______ ____
ROOT
ATOM      1  C1  UNL     1       7.524   8.602  27.145  0.00  0.00    +0.033 C 
ATOM      2  C2  UNL     1       7.802  10.036  26.683  0.00  0.00    +0.100 C 
ENDROOT
BRANCH   2   3
ATOM      3  C12 UNL     1       8.386  10.031  25.287  0.00  0.00    -0.027 A 
ATOM      4  C13 UNL     1       9.776   9.981  25.103  0.00  0.00    +0.007 A 
ATOM      5  C14 UNL     1      10.323   9.989  23.817  0.00  0.00    +0.028 A 
ATOM      6  C15 UNL     1       9.489  10.054  22.684  0.00  0.00    +0.067 A 
ATOM      7  C18 UNL     1       8.098  10.120  22.874  0.00  0.00    +0.028 A 
ATOM      8  C19 UNL     1       7.552  10.111  24.159  0.00  0.00    +0.007 A 
BRANCH   6   9
ATOM      9  N2  UNL     1      10.035  10.064  21.348  0.00  0.00    -0.220 N 
ATOM     10  C16 UNL     1      11.048   9.323  20.855  0.00  0.00    +0.225 A 
ATOM     11  N3  UNL     1      11.273   9.602  19.557  0.00  0.00    -0.222 NA
ATOM     12  C17 UNL     1      10.346  10.547  19.295  0.00  0.00    +0.245 A 
ATOM     13  N4  UNL     1       9.589  10.834  20.371  0.00  0.00    -0.154 NA
ENDBRANCH   6   9
ENDBRANCH   2   3
BRANCH   2  14
ATOM     14  N1  UNL     1       8.710  10.714  27.616  0.00  0.00    -0.304 N 
ATOM     15  C3  UNL     1       8.702  12.142  27.774  0.00  0.00    +0.251 C 
ATOM     16  O1  UNL     1       7.819  12.832  27.194  0.00  0.00    -0.270 OA
ATOM     17  H5  UNL     1       9.371  10.139  28.184  0.00  0.00    +0.150 HD
BRANCH  15  18
ATOM     18  C4  UNL     1       9.708  12.827  28.606  0.00  0.00    +0.074 A 
ATOM     19  C5  UNL     1       9.746  12.889  30.000  0.00  0.00    +0.024 A 
ATOM     20  C6  UNL     1      10.840  13.617  30.487  0.00  0.00    -0.036 A 
ATOM     21  C7  UNL     1      11.681  14.086  29.487  0.00  0.00    -0.006 A 
ATOM     22  S1  UNL     1      11.045  13.658  27.994  0.00  0.00    -0.088 S 
ATOM     23  C8  UNL     1      12.875  14.958  29.727  0.00  0.00    +0.043 C 
ATOM     24  C9  UNL     1      13.344  14.849  31.188  0.00  0.00    +0.005 C 
ATOM     25  C10 UNL     1      12.158  14.943  32.165  0.00  0.00    +0.005 C 
ATOM     26  C11 UNL     1      11.157  13.794  31.945  0.00  0.00    +0.036 C 
ENDBRANCH  15  18
ENDBRANCH   2  14
TORSDOF 4
ENDMDL
MODEL 5
REMARK VINA RESULT:    -6.223     11.690     15.458
REMARK INTER + INTRA:          -8.285
REMARK INTER:                  -7.711
REMARK INTRA:                  -0.574
REMARK UNBOUND:                -0.607
REMARK  Name = /home/qwerty/github/datacon2025hack/step_04_hit_selection/docking/ligands/lig_109.pdb
REMARK  5 active torsions:
REMARK  status: ('A' for Active; 'I' for Inactive)
REMARK    1  A    between atoms: C1_1  and  C2_2
REMARK    2  A    between atoms: C2_2  and  N1_3
REMARK    3  A    between atoms: C2_2  and  C12_15
REMARK    4  A    between atoms: C3_4  and  C4_6
REMARK    5  A    between atoms: C15_18  and  N2_19
REMARK                            x       y       z     vdW  Elec       q    Type
REMARK                         _______ _______ _______ _____ _____    ______ ____
ROOT
ATOM      1  C1  UNL     1      24.071   0.678  29.302  0.00  0.00    +0.033 C 
ATOM      2  C2  UNL     1      22.549   0.847  29.239  0.00  0.00    +0.100 C 
ENDROOT
BRANCH   2   3
ATOM      3  C12 UNL     1      22.154   1.551  27.960  0.00  0.00    -0.027 A 
ATOM      4  C13 UNL     1      21.059   1.093  27.211  0.00  0.00    +0.007 A 
ATOM      5  C14 UNL     1      20.696   1.730  26.020  0.00  0.00    +0.028 A 
ATOM      6  C15 UNL     1      21.426   2.839  25.550  0.00  0.00    +0.067 A 
ATOM      7  C18 UNL     1      22.531   3.284  26.296  0.00  0.00    +0.028 A 
ATOM      8  C19 UNL     1      22.893   2.647  27.485  0.00  0.00    +0.007 A 
BRANCH   6   9
ATOM      9  N2  UNL     1      21.067   3.509  24.324  0.00  0.00    -0.220 N 
ATOM     10  C16 UNL     1      20.205   3.101  23.370  0.00  0.00    +0.225 A 
ATOM     11  N3  UNL     1      20.120   3.997  22.369  0.00  0.00    -0.222 NA
ATOM     12  C17 UNL     1      20.973   4.964  22.768  0.00  0.00    +0.245 A 
ATOM     13  N4  UNL     1      21.552   4.682  23.951  0.00  0.00    -0.154 NA
ENDBRANCH   6   9
ENDBRANCH   2   3
BRANCH   2  14
ATOM     14  N1  UNL     1      22.062   1.593  30.405  0.00  0.00    -0.304 N 
ATOM     15  C3  UNL     1      20.918   1.156  31.158  0.00  0.00    +0.251 C 
ATOM     16  O1  UNL     1      20.384   0.045  30.895  0.00  0.00    -0.270 OA
ATOM     17  H5  UNL     1      22.568   2.458  30.699  0.00  0.00    +0.150 HD
BRANCH  15  18
ATOM     18  C4  UNL     1      20.351   1.982  32.240  0.00  0.00    +0.074 A 
ATOM     19  C5  UNL     1      19.677   1.532  33.376  0.00  0.00    +0.024 A 
ATOM     20  C6  UNL     1      19.265   2.574  34.218  0.00  0.00    -0.036 A 
ATOM     21  C7  UNL     1      19.652   3.830  33.772  0.00  0.00    -0.006 A 
ATOM     22  S1  UNL     1      20.450   3.667  32.304  0.00  0.00    -0.088 S 
ATOM     23  C8  UNL     1      19.273   5.117  34.439  0.00  0.00    +0.043 C 
ATOM     24  C9  UNL     1      18.865   4.872  35.901  0.00  0.00    +0.005 C 
ATOM     25  C10 UNL     1      17.906   3.674  36.021  0.00  0.00    +0.005 C 
ATOM     26  C11 UNL     1      18.570   2.373  35.535  0.00  0.00    +0.036 C 
ENDBRANCH  15  18
ENDBRANCH   2  14
TORSDOF 4
ENDMDL
MODEL 6
REMARK VINA RESULT:    -6.154     11.009     15.223
REMARK INTER + INTRA:          -8.200
REMARK INTER:                  -7.577
REMARK INTRA:                  -0.622
REMARK UNBOUND:                -0.607
REMARK  Name = /home/qwerty/github/datacon2025hack/step_04_hit_selection/docking/ligands/lig_109.pdb
REMARK  5 active torsions:
REMARK  status: ('A' for Active; 'I' for Inactive)
REMARK    1  A    between atoms: C1_1  and  C2_2
REMARK    2  A    between atoms: C2_2  and  N1_3
REMARK    3  A    between atoms: C2_2  and  C12_15
REMARK    4  A    between atoms: C3_4  and  C4_6
REMARK    5  A    between atoms: C15_18  and  N2_19
REMARK                            x       y       z     vdW  Elec       q    Type
REMARK                         _______ _______ _______ _____ _____    ______ ____
ROOT
ATOM      1  C1  UNL     1      11.045  10.091  19.489  0.00  0.00    +0.033 C 
ATOM      2  C2  UNL     1      10.444   8.902  20.246  0.00  0.00    +0.100 C 
ENDROOT
BRANCH   2   3
ATOM      3  C12 UNL     1      10.153   9.289  21.679  0.00  0.00    -0.027 A 
ATOM      4  C13 UNL     1      11.178   9.784  22.500  0.00  0.00    +0.007 A 
ATOM      5  C14 UNL     1      10.919  10.131  23.829  0.00  0.00    +0.028 A 
ATOM      6  C15 UNL     1       9.627   9.985  24.369  0.00  0.00    +0.067 A 
ATOM      7  C18 UNL     1       8.607   9.474  23.548  0.00  0.00    +0.028 A 
ATOM      8  C19 UNL     1       8.866   9.128  22.220  0.00  0.00    +0.007 A 
BRANCH   6   9
ATOM      9  N2  UNL     1       9.341  10.338  25.739  0.00  0.00    -0.220 N 
ATOM     10  C16 UNL     1      10.190  10.809  26.674  0.00  0.00    +0.225 A 
ATOM     11  N3  UNL     1       9.557  11.033  27.842  0.00  0.00    -0.222 NA
ATOM     12  C17 UNL     1       8.287  10.672  27.562  0.00  0.00    +0.245 A 
ATOM     13  N4  UNL     1       8.142  10.251  26.291  0.00  0.00    -0.154 NA
ENDBRANCH   6   9
ENDBRANCH   2   3
BRANCH   2  14
ATOM     14  N1  UNL     1      11.348   7.748  20.201  0.00  0.00    -0.304 N 
ATOM     15  C3  UNL     1      10.855   6.399  20.257  0.00  0.00    +0.251 C 
ATOM     16  O1  UNL     1       9.613   6.185  20.224  0.00  0.00    -0.270 OA
ATOM     17  H5  UNL     1      12.375   7.915  20.115  0.00  0.00    +0.150 HD
BRANCH  15  18
ATOM     18  C4  UNL     1      11.775   5.250  20.352  0.00  0.00    +0.074 A 
ATOM     19  C5  UNL     1      13.104   5.199  19.929  0.00  0.00    +0.024 A 
ATOM     20  C6  UNL     1      13.707   3.956  20.165  0.00  0.00    -0.036 A 
ATOM     21  C7  UNL     1      12.874   3.052  20.810  0.00  0.00    -0.006 A 
ATOM     22  S1  UNL     1      11.369   3.759  21.035  0.00  0.00    -0.088 S 
ATOM     23  C8  UNL     1      13.242   1.631  21.110  0.00  0.00    +0.043 C 
ATOM     24  C9  UNL     1      14.769   1.447  21.090  0.00  0.00    +0.005 C 
ATOM     25  C10 UNL     1      15.398   2.124  19.859  0.00  0.00    +0.005 C 
ATOM     26  C11 UNL     1      15.145   3.643  19.863  0.00  0.00    +0.036 C 
ENDBRANCH  15  18
ENDBRANCH   2  14
TORSDOF 4
ENDMDL
MODEL 7
REMARK VINA RESULT:    -6.147      7.178     11.485
REMARK INTER + INTRA:          -8.191
REMARK INTER:                  -7.667
REMARK INTRA:                  -0.524
REMARK UNBOUND:                -0.607
REMARK  Name = /home/qwerty/github/datacon2025hack/step_04_hit_selection/docking/ligands/lig_109.pdb
REMARK  5 active torsions:
REMARK  status: ('A' for Active; 'I' for Inactive)
REMARK    1  A    between atoms: C1_1  and  C2_2
REMARK    2  A    between atoms: C2_2  and  N1_3
REMARK    3  A    between atoms: C2_2  and  C12_15
REMARK    4  A    between atoms: C3_4  and  C4_6
REMARK    5  A    between atoms: C15_18  and  N2_19
REMARK                            x       y       z     vdW  Elec       q    Type
REMARK                         _______ _______ _______ _____ _____    ______ ____
ROOT
ATOM      1  C1  UNL     1      23.129   6.719  37.418  0.00  0.00    +0.033 C 
ATOM      2  C2  UNL     1      22.477   7.087  36.081  0.00  0.00    +0.100 C 
ENDROOT
BRANCH   2   3
ATOM      3  C12 UNL     1      21.348   8.070  36.303  0.00  0.00    -0.027 A 
ATOM      4  C13 UNL     1      20.292   7.749  37.169  0.00  0.00    +0.007 A 
ATOM      5  C14 UNL     1      19.239   8.646  37.369  0.00  0.00    +0.028 A 
ATOM      6  C15 UNL     1      19.218   9.887  36.700  0.00  0.00    +0.067 A 
ATOM      7  C18 UNL     1      20.271  10.197  35.822  0.00  0.00    +0.028 A 
ATOM      8  C19 UNL     1      21.322   9.299  35.623  0.00  0.00    +0.007 A 
BRANCH   6   9
ATOM      9  N2  UNL     1      18.140  10.826  36.894  0.00  0.00    -0.220 N 
ATOM     10  C16 UNL     1      16.990  10.648  37.575  0.00  0.00    +0.225 A 
ATOM     11  N3  UNL     1      16.226  11.757  37.544  0.00  0.00    -0.222 NA
ATOM     12  C17 UNL     1      16.973  12.608  36.811  0.00  0.00    +0.245 A 
ATOM     13  N4  UNL     1      18.135  12.058  36.412  0.00  0.00    -0.154 NA
ENDBRANCH   6   9
ENDBRANCH   2   3
BRANCH   2  14
ATOM     14  N1  UNL     1      21.983   5.886  35.397  0.00  0.00    -0.304 N 
ATOM     15  C3  UNL     1      22.617   5.377  34.212  0.00  0.00    +0.251 C 
ATOM     16  O1  UNL     1      23.694   5.893  33.808  0.00  0.00    -0.270 OA
ATOM     17  H5  UNL     1      21.155   5.386  35.790  0.00  0.00    +0.150 HD
BRANCH  15  18
ATOM     18  C4  UNL     1      22.035   4.255  33.453  0.00  0.00    +0.074 A 
ATOM     19  C5  UNL     1      22.540   3.677  32.287  0.00  0.00    +0.024 A 
ATOM     20  C6  UNL     1      21.750   2.621  31.812  0.00  0.00    -0.036 A 
ATOM     21  C7  UNL     1      20.658   2.340  32.622  0.00  0.00    -0.006 A 
ATOM     22  S1  UNL     1      20.626   3.435  33.895  0.00  0.00    -0.088 S 
ATOM     23  C8  UNL     1      19.612   1.316  32.305  0.00  0.00    +0.043 C 
ATOM     24  C9  UNL     1      20.142   0.294  31.285  0.00  0.00    +0.005 C 
ATOM     25  C10 UNL     1      20.865   0.990  30.118  0.00  0.00    +0.005 C 
ATOM     26  C11 UNL     1      22.089   1.785  30.610  0.00  0.00    +0.036 C 
ENDBRANCH  15  18
ENDBRANCH   2  14
TORSDOF 4
ENDMDL
MODEL 8
REMARK VINA RESULT:    -6.076     11.213     13.580
REMARK INTER + INTRA:          -8.104
REMARK INTER:                  -7.542
REMARK INTRA:                  -0.562
REMARK UNBOUND:                -0.607
REMARK  Name = /home/qwerty/github/datacon2025hack/step_04_hit_selection/docking/ligands/lig_109.pdb
REMARK  5 active torsions:
REMARK  status: ('A' for Active; 'I' for Inactive)
REMARK    1  A    between atoms: C1_1  and  C2_2
REMARK    2  A    between atoms: C2_2  and  N1_3
REMARK    3  A    between atoms: C2_2  and  C12_15
REMARK    4  A    between atoms: C3_4  and  C4_6
REMARK    5  A    between atoms: C15_18  and  N2_19
REMARK                            x       y       z     vdW  Elec       q    Type
REMARK                         _______ _______ _______ _____ _____    ______ ____
ROOT
ATOM      1  C1  UNL     1      20.319   0.299  31.296  0.00  0.00    +0.033 C 
ATOM      2  C2  UNL     1      21.419   1.259  30.830  0.00  0.00    +0.100 C 
ENDROOT
BRANCH   2   3
ATOM      3  C12 UNL     1      21.583   2.387  31.825  0.00  0.00    -0.027 A 
ATOM      4  C13 UNL     1      22.680   3.257  31.731  0.00  0.00    +0.007 A 
ATOM      5  C14 UNL     1      22.845   4.293  32.654  0.00  0.00    +0.028 A 
ATOM      6  C15 UNL     1      21.917   4.479  33.698  0.00  0.00    +0.067 A 
ATOM      7  C18 UNL     1      20.829   3.594  33.797  0.00  0.00    +0.028 A 
ATOM      8  C19 UNL     1      20.664   2.559  32.874  0.00  0.00    +0.007 A 
BRANCH   6   9
ATOM      9  N2  UNL     1      22.071   5.542  34.660  0.00  0.00    -0.220 N 
ATOM     10  C16 UNL     1      21.111   6.297  35.232  0.00  0.00    +0.225 A 
ATOM     11  N3  UNL     1      21.636   7.190  36.092  0.00  0.00    -0.222 NA
ATOM     12  C17 UNL     1      22.959   6.935  36.009  0.00  0.00    +0.245 A 
ATOM     13  N4  UNL     1      23.236   5.938  35.147  0.00  0.00    -0.154 NA
ENDBRANCH   6   9
ENDBRANCH   2   3
BRANCH   2  14
ATOM     14  N1  UNL     1      21.112   1.791  29.498  0.00  0.00    -0.304 N 
ATOM     15  C3  UNL     1      22.102   1.841  28.457  0.00  0.00    +0.251 C 
ATOM     16  O1  UNL     1      23.230   1.308  28.641  0.00  0.00    -0.270 OA
ATOM     17  H5  UNL     1      20.145   2.133  29.301  0.00  0.00    +0.150 HD
BRANCH  15  18
ATOM     18  C4  UNL     1      21.828   2.503  27.168  0.00  0.00    +0.074 A 
ATOM     19  C5  UNL     1      22.462   3.634  26.653  0.00  0.00    +0.024 A 
ATOM     20  C6  UNL     1      21.971   4.013  25.396  0.00  0.00    -0.036 A 
ATOM     21  C7  UNL     1      20.991   3.160  24.906  0.00  0.00    -0.006 A 
ATOM     22  S1  UNL     1      20.681   1.971  26.049  0.00  0.00    -0.088 S 
ATOM     23  C8  UNL     1      20.245   3.378  23.626  0.00  0.00    +0.043 C 
ATOM     24  C9  UNL     1      21.019   4.332  22.700  0.00  0.00    +0.005 C 
ATOM     25  C10 UNL     1      21.534   5.563  23.468  0.00  0.00    +0.005 C 
ATOM     26  C11 UNL     1      22.512   5.157  24.586  0.00  0.00    +0.036 C 
ENDBRANCH  15  18
ENDBRANCH   2  14
TORSDOF 4
ENDMDL
MODEL 9
REMARK VINA RESULT:    -5.998      2.898      8.840
REMARK INTER + INTRA:          -8.008
REMARK INTER:                  -7.449
REMARK INTRA:                  -0.559
REMARK UNBOUND:                -0.607
REMARK  Name = /home/qwerty/github/datacon2025hack/step_04_hit_selection/docking/ligands/lig_109.pdb
REMARK  5 active torsions:
REMARK  status: ('A' for Active; 'I' for Inactive)
REMARK    1  A    between atoms: C1_1  and  C2_2
REMARK    2  A    between atoms: C2_2  and  N1_3
REMARK    3  A    between atoms: C2_2  and  C12_15
REMARK    4  A    between atoms: C3_4  and  C4_6
REMARK    5  A    between atoms: C15_18  and  N2_19
REMARK                            x       y       z     vdW  Elec       q    Type
REMARK                         _______ _______ _______ _____ _____    ______ ____
ROOT
ATOM      1  C1  UNL     1      10.817  12.705  36.174  0.00  0.00    +0.033 C 
ATOM      2  C2  UNL     1      12.119  13.282  35.608  0.00  0.00    +0.100 C 
ENDROOT
BRANCH   2   3
ATOM      3  C12 UNL     1      11.980  13.523  34.121  0.00  0.00    -0.027 A 
ATOM      4  C13 UNL     1      12.347  14.759  33.568  0.00  0.00    +0.007 A 
ATOM      5  C14 UNL     1      12.209  14.994  32.197  0.00  0.00    +0.028 A 
ATOM      6  C15 UNL     1      11.694  13.994  31.347  0.00  0.00    +0.067 A 
ATOM      7  C18 UNL     1      11.313  12.763  31.909  0.00  0.00    +0.028 A 
ATOM      8  C19 UNL     1      11.452  12.530  33.279  0.00  0.00    +0.007 A 
BRANCH   6   9
ATOM      9  N2  UNL     1      11.545  14.218  29.930  0.00  0.00    -0.220 N 
ATOM     10  C16 UNL     1      10.571  13.769  29.112  0.00  0.00    +0.225 A 
ATOM     11  N3  UNL     1      10.762  14.189  27.846  0.00  0.00    -0.222 NA
ATOM     12  C17 UNL     1      11.897  14.912  27.945  0.00  0.00    +0.245 A 
ATOM     13  N4  UNL     1      12.381  14.938  29.201  0.00  0.00    -0.154 NA
ENDBRANCH   6   9
ENDBRANCH   2   3
BRANCH   2  14
ATOM     14  N1  UNL     1      13.245  12.382  35.878  0.00  0.00    -0.304 N 
ATOM     15  C3  UNL     1      14.436  12.840  36.542  0.00  0.00    +0.251 C 
ATOM     16  O1  UNL     1      14.478  14.008  37.015  0.00  0.00    -0.270 OA
ATOM     17  H5  UNL     1      13.173  11.382  35.589  0.00  0.00    +0.150 HD
BRANCH  15  18
ATOM     18  C4  UNL     1      15.617  11.969  36.686  0.00  0.00    +0.074 A 
ATOM     19  C5  UNL     1      15.642  10.658  37.164  0.00  0.00    +0.024 A 
ATOM     20  C6  UNL     1      16.928  10.102  37.172  0.00  0.00    -0.036 A 
ATOM     21  C7  UNL     1      17.900  10.952  36.661  0.00  0.00    -0.006 A 
ATOM     22  S1  UNL     1      17.188  12.416  36.256  0.00  0.00    -0.088 S 
ATOM     23  C8  UNL     1      19.365  10.637  36.628  0.00  0.00    +0.043 C 
ATOM     24  C9  UNL     1      19.598   9.121  36.741  0.00  0.00    +0.005 C 
ATOM     25  C10 UNL     1      18.740   8.504  37.860  0.00  0.00    +0.005 C 
ATOM     26  C11 UNL     1      17.237   8.690  37.582  0.00  0.00    +0.036 C 
ENDBRANCH  15  18
ENDBRANCH   2  14
TORSDOF 4
ENDMDL
