REMARK  Name = /home/qwerty/github/datacon2025hack/step_04_hit_selection/docking/ligands/lig_333.pdb
REMARK  5 active torsions:
REMARK  status: ('A' for Active; 'I' for Inactive)
REMARK    1  A    between atoms: C1_1  and  C2_2
REMARK    2  A    between atoms: C4_4  and  N1_5
REMARK    3  A    between atoms: C5_6  and  C6_8
REMARK    4  A    between atoms: C10_14  and  N3_15
REMARK    5  A    between atoms: C18_24  and  N4_25
REMARK                            x       y       z     vdW  Elec       q    Type
REMARK                         _______ _______ _______ _____ _____    ______ ____
ROOT
ATOM      1  N1  UNL     1      -1.914   0.724   1.267  0.00  0.00    -0.278 N 
ATOM      2  C5  UNL     1      -0.786   0.542   0.395  0.00  0.00    +0.303 C 
ATOM      3  O1  UNL     1      -0.936  -0.007  -0.730  0.00  0.00    -0.265 OA
ATOM      4  H5  UNL     1      -1.832   1.431   2.033  0.00  0.00    +0.155 HD
ENDROOT
BRANCH   2   5
ATOM      5  C6  UNL     1       0.554   1.002   0.810  0.00  0.00    +0.302 C 
ATOM      6  O2  UNL     1       0.755   1.303   2.018  0.00  0.00    -0.265 OA
ATOM      7  N2  UNL     1       1.646   1.063  -0.125  0.00  0.00    -0.292 N 
ATOM      8  C7  UNL     1       1.483   1.706  -1.436  0.00  0.00    +0.108 C 
ATOM      9  C8  UNL     1       2.076   0.830  -2.553  0.00  0.00    +0.021 C 
ATOM     10  C9  UNL     1       3.334   0.043  -2.121  0.00  0.00    +0.025 C 
ATOM     11  C10 UNL     1       3.984   0.630  -0.856  0.00  0.00    +0.093 C 
ATOM     12  C15 UNL     1       2.980   0.628   0.314  0.00  0.00    +0.130 C 
BRANCH  11  13
ATOM     13  N3  UNL     1       5.214  -0.091  -0.502  0.00  0.00    -0.297 N 
ATOM     14  C11 UNL     1       6.522   0.539  -0.452  0.00  0.00    +0.108 C 
ATOM     15  C12 UNL     1       7.517  -0.559  -0.027  0.00  0.00    +0.028 C 
ATOM     16  C13 UNL     1       6.732  -1.873   0.091  0.00  0.00    +0.097 C 
ATOM     17  C14 UNL     1       5.342  -1.470  -0.195  0.00  0.00    +0.216 C 
ATOM     18  O3  UNL     1       4.370  -2.271  -0.173  0.00  0.00    -0.276 OA
ENDBRANCH  11  13
ENDBRANCH   2   5
BRANCH   1  22
ATOM     19  C1  UNL     1      -6.836   0.909   1.794  0.00  0.00    +0.046 C 
ATOM     20  C2  UNL     1      -5.620   0.158   1.322  0.00  0.00    -0.023 A 
ATOM     21  C3  UNL     1      -4.358   0.758   1.466  0.00  0.00    +0.028 A 
ATOM     22  C4  UNL     1      -3.190   0.089   1.074  0.00  0.00    +0.034 A 
ATOM     23  C16 UNL     1      -3.288  -1.214   0.564  0.00  0.00    +0.025 A 
ATOM     24  C17 UNL     1      -4.537  -1.814   0.398  0.00  0.00    +0.030 A 
ATOM     25  C18 UNL     1      -5.713  -1.132   0.743  0.00  0.00    +0.072 A 
BRANCH  25  26
ATOM     26  N4  UNL     1      -6.977  -1.779   0.521  0.00  0.00    -0.200 N 
ATOM     27  C19 UNL     1      -8.081  -1.281  -0.063  0.00  0.00    +0.250 A 
ATOM     28  N5  UNL     1      -9.014  -2.245  -0.162  0.00  0.00    -0.116 NA
ATOM     29  N6  UNL     1      -8.455  -3.330   0.358  0.00  0.00    -0.023 NA
ATOM     30  N7  UNL     1      -7.224  -3.054   0.761  0.00  0.00    -0.039 NA
ENDBRANCH  25  26
ENDBRANCH   1  22
TORSDOF 4
