REMARK  Name = /home/qwerty/github/datacon2025hack/step_04_hit_selection/docking/ligands/lig_453.pdb
REMARK  5 active torsions:
REMARK  status: ('A' for Active; 'I' for Inactive)
REMARK    1  A    between atoms: C1_1  and  C2_2
REMARK    2  A    between atoms: C2_2  and  C3_3
REMARK    3  A    between atoms: C2_2  and  C4_4
REMARK    4  A    between atoms: C10_13  and  C11_15
REMARK    5  A    between atoms: C15_20  and  O2_21
REMARK                            x       y       z     vdW  Elec       q    Type
REMARK                         _______ _______ _______ _____ _____    ______ ____
ROOT
ATOM      1  C4  UNL     1       4.188   0.495   0.463  0.00  0.00    +0.132 A 
ATOM      2  N1  UNL     1       4.327   0.646  -0.882  0.00  0.00    -0.240 NA
ATOM      3  C5  UNL     1       3.319   0.323  -1.732  0.00  0.00    +0.119 A 
ATOM      4  C6  UNL     1       2.110  -0.172  -1.233  0.00  0.00    +0.009 A 
ATOM      5  C7  UNL     1       1.990  -0.340   0.159  0.00  0.00    +0.051 A 
ATOM      6  N2  UNL     1       3.023   0.010   0.969  0.00  0.00    -0.236 NA
ATOM      7  C8  UNL     1       0.709  -0.822   0.777  0.00  0.00    +0.075 C 
ATOM      8  C9  UNL     1      -0.091  -1.673  -0.206  0.00  0.00    +0.114 C 
ATOM      9  N3  UNL     1      -0.222  -0.957  -1.481  0.00  0.00    -0.293 N 
ATOM     10  C10 UNL     1      -1.480  -0.933  -2.184  0.00  0.00    +0.252 C 
ATOM     11  O1  UNL     1      -1.492  -0.975  -3.444  0.00  0.00    -0.270 OA
ATOM     12  C19 UNL     1       1.002  -0.553  -2.186  0.00  0.00    +0.146 C 
ENDROOT
BRANCH  10  13
ATOM     13  C11 UNL     1      -2.758  -0.778  -1.456  0.00  0.00    +0.098 A 
ATOM     14  C12 UNL     1      -2.851   0.198  -0.444  0.00  0.00    +0.023 A 
ATOM     15  C13 UNL     1      -4.067   0.377   0.208  0.00  0.00    -0.025 A 
ATOM     16  C14 UNL     1      -5.152  -0.376  -0.133  0.00  0.00    +0.048 A 
ATOM     17  N4  UNL     1      -5.080  -1.326  -1.099  0.00  0.00    -0.217 NA
ATOM     18  C15 UNL     1      -3.911  -1.554  -1.766  0.00  0.00    +0.225 A 
ATOM     19  C16 UNL     1      -6.353  -0.039   0.657  0.00  0.00    +0.056 C 
ATOM     20  C17 UNL     1      -5.868   1.086   1.595  0.00  0.00    +0.011 C 
ATOM     21  C18 UNL     1      -4.379   1.345   1.283  0.00  0.00    +0.037 C 
BRANCH  18  22
ATOM     22  O2  UNL     1      -3.883  -2.572  -2.719  0.00  0.00    -0.492 OA
ATOM     23  H14 UNL     1      -3.036  -2.875  -3.181  0.00  0.00    +0.294 HD
ENDBRANCH  18  22
ENDBRANCH  10  13
BRANCH   1  25
ATOM     24  C1  UNL     1       5.642   2.356   1.272  0.00  0.00    +0.015 C 
ATOM     25  C2  UNL     1       5.313   0.865   1.391  0.00  0.00    +0.051 C 
ATOM     26  C3  UNL     1       6.550   0.006   1.106  0.00  0.00    +0.015 C 
ENDBRANCH   1  25
TORSDOF 3
