MODEL 1
REMARK VINA RESULT:    -6.643      0.000      0.000
REMARK INTER + INTRA:          -8.973
REMARK INTER:                  -8.196
REMARK INTRA:                  -0.777
REMARK UNBOUND:                -0.777
REMARK  Name = /home/qwerty/github/datacon2025hack/step_04_hit_selection/docking/ligands/lig_333.pdb
REMARK  5 active torsions:
REMARK  status: ('A' for Active; 'I' for Inactive)
REMARK    1  A    between atoms: C1_1  and  C2_2
REMARK    2  A    between atoms: C4_4  and  N1_5
REMARK    3  A    between atoms: C5_6  and  C6_8
REMARK    4  A    between atoms: C10_14  and  N3_15
REMARK    5  A    between atoms: C18_24  and  N4_25
REMARK                            x       y       z     vdW  Elec       q    Type
REMARK                         _______ _______ _______ _____ _____    ______ ____
ROOT
ATOM      1  N1  UNL     1      17.179   1.585  26.302  0.00  0.00    -0.278 N 
ATOM      2  C5  UNL     1      16.168   0.583  26.098  0.00  0.00    +0.303 C 
ATOM      3  O1  UNL     1      16.287  -0.554  26.628  0.00  0.00    -0.265 OA
ATOM      4  H5  UNL     1      16.924   2.583  26.119  0.00  0.00    +0.155 HD
ENDROOT
BRANCH   2   5
ATOM      5  C6  UNL     1      14.983   0.883  25.271  0.00  0.00    +0.302 C 
ATOM      6  O2  UNL     1      13.935   1.310  25.828  0.00  0.00    -0.265 OA
ATOM      7  N2  UNL     1      15.018   0.749  23.839  0.00  0.00    -0.292 N 
ATOM      8  C7  UNL     1      15.544  -0.468  23.207  0.00  0.00    +0.108 C 
ATOM      9  C8  UNL     1      16.499  -0.117  22.053  0.00  0.00    +0.021 C 
ATOM     10  C9  UNL     1      16.093   1.159  21.280  0.00  0.00    +0.025 C 
ATOM     11  C10 UNL     1      14.621   1.539  21.514  0.00  0.00    +0.093 C 
ATOM     12  C15 UNL     1      14.359   1.773  23.015  0.00  0.00    +0.130 C 
BRANCH  11  13
ATOM     13  N3  UNL     1      14.239   2.714  20.718  0.00  0.00    -0.297 N 
ATOM     14  C11 UNL     1      15.201   3.656  20.172  0.00  0.00    +0.108 C 
ATOM     15  C12 UNL     1      14.385   4.712  19.401  0.00  0.00    +0.028 C 
ATOM     16  C13 UNL     1      12.899   4.378  19.593  0.00  0.00    +0.097 C 
ATOM     17  C14 UNL     1      12.926   3.135  20.387  0.00  0.00    +0.216 C 
ATOM     18  O3  UNL     1      11.887   2.516  20.739  0.00  0.00    -0.276 OA
ENDBRANCH  11  13
ENDBRANCH   2   5
BRANCH   1  22
ATOM     19  C1  UNL     1      20.058   1.327  30.325  0.00  0.00    +0.046 C 
ATOM     20  C2  UNL     1      19.915   1.181  28.833  0.00  0.00    -0.023 A 
ATOM     21  C3  UNL     1      18.657   1.406  28.251  0.00  0.00    +0.028 A 
ATOM     22  C4  UNL     1      18.475   1.317  26.864  0.00  0.00    +0.034 A 
ATOM     23  C16 UNL     1      19.580   1.033  26.047  0.00  0.00    +0.025 A 
ATOM     24  C17 UNL     1      20.832   0.788  26.615  0.00  0.00    +0.030 A 
ATOM     25  C18 UNL     1      21.010   0.829  28.006  0.00  0.00    +0.072 A 
BRANCH  25  26
ATOM     26  N4  UNL     1      22.310   0.536  28.544  0.00  0.00    -0.200 N 
ATOM     27  C19 UNL     1      22.840  -0.663  28.846  0.00  0.00    +0.250 A 
ATOM     28  N5  UNL     1      24.119  -0.506  29.233  0.00  0.00    -0.116 NA
ATOM     29  N6  UNL     1      24.355   0.796  29.149  0.00  0.00    -0.023 NA
ATOM     30  N7  UNL     1      23.269   1.425  28.725  0.00  0.00    -0.039 NA
ENDBRANCH  25  26
ENDBRANCH   1  22
TORSDOF 4
ENDMDL
MODEL 2
REMARK VINA RESULT:    -6.513      7.861     12.318
REMARK INTER + INTRA:          -8.813
REMARK INTER:                  -7.996
REMARK INTRA:                  -0.817
REMARK UNBOUND:                -0.777
REMARK  Name = /home/qwerty/github/datacon2025hack/step_04_hit_selection/docking/ligands/lig_333.pdb
REMARK  5 active torsions:
REMARK  status: ('A' for Active; 'I' for Inactive)
REMARK    1  A    between atoms: C1_1  and  C2_2
REMARK    2  A    between atoms: C4_4  and  N1_5
REMARK    3  A    between atoms: C5_6  and  C6_8
REMARK    4  A    between atoms: C10_14  and  N3_15
REMARK    5  A    between atoms: C18_24  and  N4_25
REMARK                            x       y       z     vdW  Elec       q    Type
REMARK                         _______ _______ _______ _____ _____    ______ ____
ROOT
ATOM      1  N1  UNL     1      20.952   5.890  31.532  0.00  0.00    -0.278 N 
ATOM      2  C5  UNL     1      21.798   7.041  31.699  0.00  0.00    +0.303 C 
ATOM      3  O1  UNL     1      22.941   7.071  31.167  0.00  0.00    -0.265 OA
ATOM      4  H5  UNL     1      19.929   6.004  31.713  0.00  0.00    +0.155 HD
ENDROOT
BRANCH   2   5
ATOM      5  C6  UNL     1      21.330   8.197  32.490  0.00  0.00    +0.302 C 
ATOM      6  O2  UNL     1      20.878   9.210  31.890  0.00  0.00    -0.265 OA
ATOM      7  N2  UNL     1      21.332   8.168  33.928  0.00  0.00    -0.292 N 
ATOM      8  C7  UNL     1      22.522   7.736  34.674  0.00  0.00    +0.108 C 
ATOM      9  C8  UNL     1      22.139   6.752  35.794  0.00  0.00    +0.021 C 
ATOM     10  C9  UNL     1      20.769   7.055  36.442  0.00  0.00    +0.025 C 
ATOM     11  C10 UNL     1      20.298   8.494  36.167  0.00  0.00    +0.093 C 
ATOM     12  C15 UNL     1      20.187   8.742  34.650  0.00  0.00    +0.130 C 
BRANCH  11  13
ATOM     13  N3  UNL     1      19.028   8.781  36.847  0.00  0.00    -0.297 N 
ATOM     14  C11 UNL     1      18.059   7.756  37.193  0.00  0.00    +0.108 C 
ATOM     15  C12 UNL     1      16.895   8.479  37.900  0.00  0.00    +0.028 C 
ATOM     16  C13 UNL     1      17.204   9.983  37.877  0.00  0.00    +0.097 C 
ATOM     17  C14 UNL     1      18.532  10.052  37.237  0.00  0.00    +0.216 C 
ATOM     18  O3  UNL     1      19.157  11.129  37.052  0.00  0.00    -0.276 OA
ENDBRANCH  11  13
ENDBRANCH   2   5
BRANCH   1  22
ATOM     19  C1  UNL     1      21.620   2.949  27.603  0.00  0.00    +0.046 C 
ATOM     20  C2  UNL     1      21.746   3.160  29.088  0.00  0.00    -0.023 A 
ATOM     21  C3  UNL     1      21.341   4.391  29.631  0.00  0.00    +0.028 A 
ATOM     22  C4  UNL     1      21.405   4.629  31.011  0.00  0.00    +0.034 A 
ATOM     23  C16 UNL     1      21.847   3.603  31.861  0.00  0.00    +0.025 A 
ATOM     24  C17 UNL     1      22.269   2.383  31.332  0.00  0.00    +0.030 A 
ATOM     25  C18 UNL     1      22.254   2.156  29.948  0.00  0.00    +0.072 A 
BRANCH  25  26
ATOM     26  N4  UNL     1      22.731   0.895  29.450  0.00  0.00    -0.200 N 
ATOM     27  C19 UNL     1      23.993   0.534  29.158  0.00  0.00    +0.250 A 
ATOM     28  N5  UNL     1      24.023  -0.766  28.813  0.00  0.00    -0.116 NA
ATOM     29  N6  UNL     1      22.768  -1.185  28.912  0.00  0.00    -0.023 NA
ATOM     30  N7  UNL     1      21.990  -0.188  29.305  0.00  0.00    -0.039 NA
ENDBRANCH  25  26
ENDBRANCH   1  22
TORSDOF 4
ENDMDL
MODEL 3
REMARK VINA RESULT:    -6.352     13.479     17.438
REMARK INTER + INTRA:          -8.614
REMARK INTER:                  -8.535
REMARK INTRA:                  -0.079
REMARK UNBOUND:                -0.777
REMARK  Name = /home/qwerty/github/datacon2025hack/step_04_hit_selection/docking/ligands/lig_333.pdb
REMARK  5 active torsions:
REMARK  status: ('A' for Active; 'I' for Inactive)
REMARK    1  A    between atoms: C1_1  and  C2_2
REMARK    2  A    between atoms: C4_4  and  N1_5
REMARK    3  A    between atoms: C5_6  and  C6_8
REMARK    4  A    between atoms: C10_14  and  N3_15
REMARK    5  A    between atoms: C18_24  and  N4_25
REMARK                            x       y       z     vdW  Elec       q    Type
REMARK                         _______ _______ _______ _____ _____    ______ ____
ROOT
ATOM      1  N1  UNL     1      16.314  11.996  37.219  0.00  0.00    -0.278 N 
ATOM      2  C5  UNL     1      17.024  10.944  36.545  0.00  0.00    +0.303 C 
ATOM      3  O1  UNL     1      16.629  10.530  35.422  0.00  0.00    -0.265 OA
ATOM      4  H5  UNL     1      16.814  12.519  37.974  0.00  0.00    +0.155 HD
ENDROOT
BRANCH   2   5
ATOM      5  C6  UNL     1      18.224  10.345  37.163  0.00  0.00    +0.302 C 
ATOM      6  O2  UNL     1      18.112   9.730  38.258  0.00  0.00    -0.265 OA
ATOM      7  N2  UNL     1      19.507  10.405  36.514  0.00  0.00    -0.292 N 
ATOM      8  C7  UNL     1      20.025  11.671  35.979  0.00  0.00    +0.108 C 
ATOM      9  C8  UNL     1      20.596  11.476  34.564  0.00  0.00    +0.021 C 
ATOM     10  C9  UNL     1      21.272  10.102  34.353  0.00  0.00    +0.025 C 
ATOM     11  C10 UNL     1      21.635   9.420  35.683  0.00  0.00    +0.093 C 
ATOM     12  C15 UNL     1      20.373   9.217  36.546  0.00  0.00    +0.130 C 
BRANCH  11  13
ATOM     13  N3  UNL     1      22.336   8.148  35.459  0.00  0.00    -0.297 N 
ATOM     14  C11 UNL     1      22.853   7.739  34.165  0.00  0.00    +0.108 C 
ATOM     15  C12 UNL     1      23.521   6.366  34.378  0.00  0.00    +0.028 C 
ATOM     16  C13 UNL     1      23.296   5.966  35.843  0.00  0.00    +0.097 C 
ATOM     17  C14 UNL     1      22.588   7.128  36.412  0.00  0.00    +0.216 C 
ATOM     18  O3  UNL     1      22.240   7.203  37.620  0.00  0.00    -0.276 OA
ENDBRANCH  11  13
ENDBRANCH   2   5
BRANCH   1  22
ATOM     19  C1  UNL     1      11.440  11.144  36.990  0.00  0.00    +0.046 C 
ATOM     20  C2  UNL     1      12.600  12.062  36.712  0.00  0.00    -0.023 A 
ATOM     21  C3  UNL     1      13.888  11.658  37.100  0.00  0.00    +0.028 A 
ATOM     22  C4  UNL     1      15.008  12.459  36.835  0.00  0.00    +0.034 A 
ATOM     23  C16 UNL     1      14.835  13.665  36.139  0.00  0.00    +0.025 A 
ATOM     24  C17 UNL     1      13.559  14.086  35.765  0.00  0.00    +0.030 A 
ATOM     25  C18 UNL     1      12.429  13.313  36.070  0.00  0.00    +0.072 A 
BRANCH  25  26
ATOM     26  N4  UNL     1      11.133  13.807  35.694  0.00  0.00    -0.200 N 
ATOM     27  C19 UNL     1      10.049  13.989  36.470  0.00  0.00    +0.250 A 
ATOM     28  N5  UNL     1       9.069  14.563  35.750  0.00  0.00    -0.116 NA
ATOM     29  N6  UNL     1       9.578  14.734  34.537  0.00  0.00    -0.023 NA
ATOM     30  N7  UNL     1      10.825  14.288  34.504  0.00  0.00    -0.039 NA
ENDBRANCH  25  26
ENDBRANCH   1  22
TORSDOF 4
ENDMDL
MODEL 4
REMARK VINA RESULT:    -6.319      5.499      7.048
REMARK INTER + INTRA:          -8.573
REMARK INTER:                  -7.796
REMARK INTRA:                  -0.777
REMARK UNBOUND:                -0.777
REMARK  Name = /home/qwerty/github/datacon2025hack/step_04_hit_selection/docking/ligands/lig_333.pdb
REMARK  5 active torsions:
REMARK  status: ('A' for Active; 'I' for Inactive)
REMARK    1  A    between atoms: C1_1  and  C2_2
REMARK    2  A    between atoms: C4_4  and  N1_5
REMARK    3  A    between atoms: C5_6  and  C6_8
REMARK    4  A    between atoms: C10_14  and  N3_15
REMARK    5  A    between atoms: C18_24  and  N4_25
REMARK                            x       y       z     vdW  Elec       q    Type
REMARK                         _______ _______ _______ _____ _____    ______ ____
ROOT
ATOM      1  N1  UNL     1      15.710   3.539  21.473  0.00  0.00    -0.278 N 
ATOM      2  C5  UNL     1      15.324   2.445  20.625  0.00  0.00    +0.303 C 
ATOM      3  O1  UNL     1      16.194   1.820  19.960  0.00  0.00    -0.265 OA
ATOM      4  H5  UNL     1      15.045   3.834  22.225  0.00  0.00    +0.155 HD
ENDROOT
BRANCH   2   5
ATOM      5  C6  UNL     1      13.906   2.044  20.531  0.00  0.00    +0.302 C 
ATOM      6  O2  UNL     1      13.605   0.823  20.624  0.00  0.00    -0.265 OA
ATOM      7  N2  UNL     1      12.860   3.021  20.388  0.00  0.00    -0.292 N 
ATOM      8  C7  UNL     1      12.954   4.087  19.381  0.00  0.00    +0.108 C 
ATOM      9  C8  UNL     1      12.579   5.449  19.988  0.00  0.00    +0.021 C 
ATOM     10  C9  UNL     1      11.472   5.364  21.063  0.00  0.00    +0.025 C 
ATOM     11  C10 UNL     1      10.674   4.052  20.977  0.00  0.00    +0.093 C 
ATOM     12  C15 UNL     1      11.613   2.841  21.145  0.00  0.00    +0.130 C 
BRANCH  11  13
ATOM     13  N3  UNL     1       9.585   4.021  21.962  0.00  0.00    -0.297 N 
ATOM     14  C11 UNL     1       9.777   3.643  23.352  0.00  0.00    +0.108 C 
ATOM     15  C12 UNL     1       8.397   3.763  24.029  0.00  0.00    +0.028 C 
ATOM     16  C13 UNL     1       7.383   4.153  22.945  0.00  0.00    +0.097 C 
ATOM     17  C14 UNL     1       8.214   4.306  21.736  0.00  0.00    +0.216 C 
ATOM     18  O3  UNL     1       7.751   4.651  20.616  0.00  0.00    -0.276 OA
ENDBRANCH  11  13
ENDBRANCH   2   5
BRANCH   1  22
ATOM     19  C1  UNL     1      20.358   3.718  23.175  0.00  0.00    +0.046 C 
ATOM     20  C2  UNL     1      19.301   4.275  22.260  0.00  0.00    -0.023 A 
ATOM     21  C3  UNL     1      18.034   3.669  22.245  0.00  0.00    +0.028 A 
ATOM     22  C4  UNL     1      17.003   4.168  21.437  0.00  0.00    +0.034 A 
ATOM     23  C16 UNL     1      17.237   5.312  20.660  0.00  0.00    +0.025 A 
ATOM     24  C17 UNL     1      18.497   5.912  20.651  0.00  0.00    +0.030 A 
ATOM     25  C18 UNL     1      19.547   5.389  21.420  0.00  0.00    +0.072 A 
BRANCH  25  26
ATOM     26  N4  UNL     1      20.836   6.022  21.350  0.00  0.00    -0.200 N 
ATOM     27  C19 UNL     1      21.313   7.033  22.097  0.00  0.00    +0.250 A 
ATOM     28  N5  UNL     1      22.600   7.261  21.779  0.00  0.00    -0.116 NA
ATOM     29  N6  UNL     1      22.894   6.370  20.841  0.00  0.00    -0.023 NA
ATOM     30  N7  UNL     1      21.835   5.615  20.589  0.00  0.00    -0.039 NA
ENDBRANCH  25  26
ENDBRANCH   1  22
TORSDOF 4
ENDMDL
MODEL 5
REMARK VINA RESULT:    -6.282     13.153     14.298
REMARK INTER + INTRA:          -8.528
REMARK INTER:                  -7.859
REMARK INTRA:                  -0.669
REMARK UNBOUND:                -0.777
REMARK  Name = /home/qwerty/github/datacon2025hack/step_04_hit_selection/docking/ligands/lig_333.pdb
REMARK  5 active torsions:
REMARK  status: ('A' for Active; 'I' for Inactive)
REMARK    1  A    between atoms: C1_1  and  C2_2
REMARK    2  A    between atoms: C4_4  and  N1_5
REMARK    3  A    between atoms: C5_6  and  C6_8
REMARK    4  A    between atoms: C10_14  and  N3_15
REMARK    5  A    between atoms: C18_24  and  N4_25
REMARK                            x       y       z     vdW  Elec       q    Type
REMARK                         _______ _______ _______ _____ _____    ______ ____
ROOT
ATOM      1  N1  UNL     1      10.459  13.804  30.650  0.00  0.00    -0.278 N 
ATOM      2  C5  UNL     1      10.197  12.580  29.943  0.00  0.00    +0.303 C 
ATOM      3  O1  UNL     1      10.522  11.472  30.450  0.00  0.00    -0.265 OA
ATOM      4  H5  UNL     1       9.925  14.657  30.366  0.00  0.00    +0.155 HD
ENDROOT
BRANCH   2   5
ATOM      5  C6  UNL     1       9.542  12.612  28.621  0.00  0.00    +0.302 C 
ATOM      6  O2  UNL     1       9.793  13.564  27.832  0.00  0.00    -0.265 OA
ATOM      7  N2  UNL     1       8.664  11.555  28.195  0.00  0.00    -0.292 N 
ATOM      8  C7  UNL     1       7.588  11.069  29.070  0.00  0.00    +0.108 C 
ATOM      9  C8  UNL     1       7.559   9.531  29.100  0.00  0.00    +0.021 C 
ATOM     10  C9  UNL     1       7.948   8.877  27.755  0.00  0.00    +0.025 C 
ATOM     11  C10 UNL     1       7.835   9.859  26.575  0.00  0.00    +0.093 C 
ATOM     12  C15 UNL     1       8.744  11.082  26.805  0.00  0.00    +0.130 C 
BRANCH  11  13
ATOM     13  N3  UNL     1       8.144   9.200  25.299  0.00  0.00    -0.297 N 
ATOM     14  C11 UNL     1       8.906   7.967  25.201  0.00  0.00    +0.108 C 
ATOM     15  C12 UNL     1       8.981   7.621  23.701  0.00  0.00    +0.028 C 
ATOM     16  C13 UNL     1       8.291   8.755  22.930  0.00  0.00    +0.097 C 
ATOM     17  C14 UNL     1       7.800   9.647  23.997  0.00  0.00    +0.216 C 
ATOM     18  O3  UNL     1       7.145  10.700  23.773  0.00  0.00    -0.276 OA
ENDBRANCH  11  13
ENDBRANCH   2   5
BRANCH   1  22
ATOM     19  C1  UNL     1      10.868  14.059  35.580  0.00  0.00    +0.046 C 
ATOM     20  C2  UNL     1      11.539  14.025  34.233  0.00  0.00    -0.023 A 
ATOM     21  C3  UNL     1      10.741  13.902  33.084  0.00  0.00    +0.028 A 
ATOM     22  C4  UNL     1      11.312  13.899  31.803  0.00  0.00    +0.034 A 
ATOM     23  C16 UNL     1      12.700  14.057  31.674  0.00  0.00    +0.025 A 
ATOM     24  C17 UNL     1      13.506  14.161  32.809  0.00  0.00    +0.030 A 
ATOM     25  C18 UNL     1      12.947  14.116  34.094  0.00  0.00    +0.072 A 
BRANCH  25  26
ATOM     26  N4  UNL     1      13.822  14.192  35.231  0.00  0.00    -0.200 N 
ATOM     27  C19 UNL     1      14.534  13.207  35.807  0.00  0.00    +0.250 A 
ATOM     28  N5  UNL     1      15.302  13.718  36.786  0.00  0.00    -0.116 NA
ATOM     29  N6  UNL     1      15.052  15.021  36.786  0.00  0.00    -0.023 NA
ATOM     30  N7  UNL     1      14.168  15.310  35.843  0.00  0.00    -0.039 NA
ENDBRANCH  25  26
ENDBRANCH   1  22
TORSDOF 4
ENDMDL
MODEL 6
REMARK VINA RESULT:    -6.250      4.761      7.305
REMARK INTER + INTRA:          -8.488
REMARK INTER:                  -7.701
REMARK INTRA:                  -0.787
REMARK UNBOUND:                -0.777
REMARK  Name = /home/qwerty/github/datacon2025hack/step_04_hit_selection/docking/ligands/lig_333.pdb
REMARK  5 active torsions:
REMARK  status: ('A' for Active; 'I' for Inactive)
REMARK    1  A    between atoms: C1_1  and  C2_2
REMARK    2  A    between atoms: C4_4  and  N1_5
REMARK    3  A    between atoms: C5_6  and  C6_8
REMARK    4  A    between atoms: C10_14  and  N3_15
REMARK    5  A    between atoms: C18_24  and  N4_25
REMARK                            x       y       z     vdW  Elec       q    Type
REMARK                         _______ _______ _______ _____ _____    ______ ____
ROOT
ATOM      1  N1  UNL     1      21.246   2.028  30.340  0.00  0.00    -0.278 N 
ATOM      2  C5  UNL     1      22.286   1.356  29.610  0.00  0.00    +0.303 C 
ATOM      3  O1  UNL     1      23.471   1.366  30.041  0.00  0.00    -0.265 OA
ATOM      4  H5  UNL     1      20.256   1.759  30.141  0.00  0.00    +0.155 HD
ENDROOT
BRANCH   2   5
ATOM      5  C6  UNL     1      21.972   0.645  28.355  0.00  0.00    +0.302 C 
ATOM      6  O2  UNL     1      22.167  -0.599  28.286  0.00  0.00    -0.265 OA
ATOM      7  N2  UNL     1      21.399   1.335  27.230  0.00  0.00    -0.292 N 
ATOM      8  C7  UNL     1      21.975   2.596  26.743  0.00  0.00    +0.108 C 
ATOM      9  C8  UNL     1      20.873   3.638  26.486  0.00  0.00    +0.021 C 
ATOM     10  C9  UNL     1      19.552   3.027  25.966  0.00  0.00    +0.025 C 
ATOM     11  C10 UNL     1      19.749   1.615  25.389  0.00  0.00    +0.093 C 
ATOM     12  C15 UNL     1      20.334   0.674  26.461  0.00  0.00    +0.130 C 
BRANCH  11  13
ATOM     13  N3  UNL     1      18.496   1.081  24.840  0.00  0.00    -0.297 N 
ATOM     14  C11 UNL     1      17.813  -0.078  25.389  0.00  0.00    +0.108 C 
ATOM     15  C12 UNL     1      16.546  -0.282  24.535  0.00  0.00    +0.028 C 
ATOM     16  C13 UNL     1      16.571   0.769  23.416  0.00  0.00    +0.097 C 
ATOM     17  C14 UNL     1      17.783   1.557  23.709  0.00  0.00    +0.216 C 
ATOM     18  O3  UNL     1      18.148   2.548  23.023  0.00  0.00    -0.276 OA
ENDBRANCH  11  13
ENDBRANCH   2   5
BRANCH   1  22
ATOM     19  C1  UNL     1      22.546   6.593  31.760  0.00  0.00    +0.046 C 
ATOM     20  C2  UNL     1      22.124   5.199  32.139  0.00  0.00    -0.023 A 
ATOM     21  C3  UNL     1      21.851   4.274  31.117  0.00  0.00    +0.028 A 
ATOM     22  C4  UNL     1      21.487   2.954  31.414  0.00  0.00    +0.034 A 
ATOM     23  C16 UNL     1      21.432   2.546  32.755  0.00  0.00    +0.025 A 
ATOM     24  C17 UNL     1      21.682   3.459  33.781  0.00  0.00    +0.030 A 
ATOM     25  C18 UNL     1      21.999   4.794  33.492  0.00  0.00    +0.072 A 
BRANCH  25  26
ATOM     26  N4  UNL     1      22.215   5.705  34.583  0.00  0.00    -0.200 N 
ATOM     27  C19 UNL     1      21.304   6.407  35.279  0.00  0.00    +0.250 A 
ATOM     28  N5  UNL     1      21.911   7.064  36.283  0.00  0.00    -0.116 NA
ATOM     29  N6  UNL     1      23.194   6.741  36.190  0.00  0.00    -0.023 NA
ATOM     30  N7  UNL     1      23.378   5.914  35.172  0.00  0.00    -0.039 NA
ENDBRANCH  25  26
ENDBRANCH   1  22
TORSDOF 4
ENDMDL
MODEL 7
REMARK VINA RESULT:    -6.195     11.351     15.415
REMARK INTER + INTRA:          -8.420
REMARK INTER:                  -7.786
REMARK INTRA:                  -0.633
REMARK UNBOUND:                -0.777
REMARK  Name = /home/qwerty/github/datacon2025hack/step_04_hit_selection/docking/ligands/lig_333.pdb
REMARK  5 active torsions:
REMARK  status: ('A' for Active; 'I' for Inactive)
REMARK    1  A    between atoms: C1_1  and  C2_2
REMARK    2  A    between atoms: C4_4  and  N1_5
REMARK    3  A    between atoms: C5_6  and  C6_8
REMARK    4  A    between atoms: C10_14  and  N3_15
REMARK    5  A    between atoms: C18_24  and  N4_25
REMARK                            x       y       z     vdW  Elec       q    Type
REMARK                         _______ _______ _______ _____ _____    ______ ____
ROOT
ATOM      1  N1  UNL     1       8.038  10.417  26.306  0.00  0.00    -0.278 N 
ATOM      2  C5  UNL     1       9.115  11.015  27.047  0.00  0.00    +0.303 C 
ATOM      3  O1  UNL     1      10.300  10.926  26.628  0.00  0.00    -0.265 OA
ATOM      4  H5  UNL     1       7.066  10.753  26.497  0.00  0.00    +0.155 HD
ENDROOT
BRANCH   2   5
ATOM      5  C6  UNL     1       8.837  11.743  28.302  0.00  0.00    +0.302 C 
ATOM      6  O2  UNL     1       7.824  11.430  28.984  0.00  0.00    -0.265 OA
ATOM      7  N2  UNL     1       9.727  12.764  28.786  0.00  0.00    -0.292 N 
ATOM      8  C7  UNL     1      10.204  13.834  27.899  0.00  0.00    +0.108 C 
ATOM      9  C8  UNL     1      11.720  14.042  28.057  0.00  0.00    +0.021 C 
ATOM     10  C9  UNL     1      12.229  13.816  29.499  0.00  0.00    +0.025 C 
ATOM     11  C10 UNL     1      11.095  13.885  30.536  0.00  0.00    +0.093 C 
ATOM     12  C15 UNL     1      10.019  12.826  30.226  0.00  0.00    +0.130 C 
BRANCH  11  13
ATOM     13  N3  UNL     1      11.610  13.735  31.904  0.00  0.00    -0.297 N 
ATOM     14  C11 UNL     1      11.520  12.498  32.659  0.00  0.00    +0.108 C 
ATOM     15  C12 UNL     1      12.189  12.771  34.021  0.00  0.00    +0.028 C 
ATOM     16  C13 UNL     1      12.602  14.249  34.045  0.00  0.00    +0.097 C 
ATOM     17  C14 UNL     1      12.225  14.733  32.703  0.00  0.00    +0.216 C 
ATOM     18  O3  UNL     1      12.426  15.913  32.310  0.00  0.00    -0.276 OA
ENDBRANCH  11  13
ENDBRANCH   2   5
BRANCH   1  22
ATOM     19  C1  UNL     1       8.224   9.585  21.427  0.00  0.00    +0.046 C 
ATOM     20  C2  UNL     1       8.323   9.046  22.828  0.00  0.00    -0.023 A 
ATOM     21  C3  UNL     1       8.175   9.935  23.906  0.00  0.00    +0.028 A 
ATOM     22  C4  UNL     1       8.226   9.481  25.231  0.00  0.00    +0.034 A 
ATOM     23  C16 UNL     1       8.390   8.110  25.477  0.00  0.00    +0.025 A 
ATOM     24  C17 UNL     1       8.558   7.218  24.416  0.00  0.00    +0.030 A 
ATOM     25  C18 UNL     1       8.557   7.673  23.089  0.00  0.00    +0.072 A 
BRANCH  25  26
ATOM     26  N4  UNL     1       8.767   6.721  22.033  0.00  0.00    -0.200 N 
ATOM     27  C19 UNL     1       9.926   6.346  21.463  0.00  0.00    +0.250 A 
ATOM     28  N5  UNL     1       9.696   5.358  20.580  0.00  0.00    -0.116 NA
ATOM     29  N6  UNL     1       8.389   5.134  20.634  0.00  0.00    -0.023 NA
ATOM     30  N7  UNL     1       7.829   5.948  21.517  0.00  0.00    -0.039 NA
ENDBRANCH  25  26
ENDBRANCH   1  22
TORSDOF 4
ENDMDL
MODEL 8
REMARK VINA RESULT:    -6.173      4.625     10.975
REMARK INTER + INTRA:          -8.393
REMARK INTER:                  -7.616
REMARK INTRA:                  -0.778
REMARK UNBOUND:                -0.777
REMARK  Name = /home/qwerty/github/datacon2025hack/step_04_hit_selection/docking/ligands/lig_333.pdb
REMARK  5 active torsions:
REMARK  status: ('A' for Active; 'I' for Inactive)
REMARK    1  A    between atoms: C1_1  and  C2_2
REMARK    2  A    between atoms: C4_4  and  N1_5
REMARK    3  A    between atoms: C5_6  and  C6_8
REMARK    4  A    between atoms: C10_14  and  N3_15
REMARK    5  A    between atoms: C18_24  and  N4_25
REMARK                            x       y       z     vdW  Elec       q    Type
REMARK                         _______ _______ _______ _____ _____    ______ ____
ROOT
ATOM      1  N1  UNL     1      13.833   4.995  21.362  0.00  0.00    -0.278 N 
ATOM      2  C5  UNL     1      14.270   4.335  20.162  0.00  0.00    +0.303 C 
ATOM      3  O1  UNL     1      13.939   4.787  19.033  0.00  0.00    -0.265 OA
ATOM      4  H5  UNL     1      14.351   4.795  22.247  0.00  0.00    +0.155 HD
ENDROOT
BRANCH   2   5
ATOM      5  C6  UNL     1      15.112   3.125  20.246  0.00  0.00    +0.302 C 
ATOM      6  O2  UNL     1      16.246   3.125  19.696  0.00  0.00    -0.265 OA
ATOM      7  N2  UNL     1      14.685   1.968  20.987  0.00  0.00    -0.292 N 
ATOM      8  C7  UNL     1      13.341   1.405  20.801  0.00  0.00    +0.108 C 
ATOM      9  C8  UNL     1      12.683   1.100  22.157  0.00  0.00    +0.021 C 
ATOM     10  C9  UNL     1      13.681   0.627  23.238  0.00  0.00    +0.025 C 
ATOM     11  C10 UNL     1      15.005   0.130  22.633  0.00  0.00    +0.093 C 
ATOM     12  C15 UNL     1      15.671   1.248  21.806  0.00  0.00    +0.130 C 
BRANCH  11  13
ATOM     13  N3  UNL     1      15.912  -0.376  23.671  0.00  0.00    -0.297 N 
ATOM     14  C11 UNL     1      15.829   0.021  25.066  0.00  0.00    +0.108 C 
ATOM     15  C12 UNL     1      16.942  -0.749  25.804  0.00  0.00    +0.028 C 
ATOM     16  C13 UNL     1      17.723  -1.552  24.754  0.00  0.00    +0.097 C 
ATOM     17  C14 UNL     1      16.999  -1.272  23.499  0.00  0.00    +0.216 C 
ATOM     18  O3  UNL     1      17.318  -1.774  22.389  0.00  0.00    -0.276 OA
ENDBRANCH  11  13
ENDBRANCH   2   5
BRANCH   1  22
ATOM     19  C1  UNL     1       9.090   6.226  20.639  0.00  0.00    +0.046 C 
ATOM     20  C2  UNL     1      10.478   6.639  21.047  0.00  0.00    -0.023 A 
ATOM     21  C3  UNL     1      11.496   5.671  21.056  0.00  0.00    +0.028 A 
ATOM     22  C4  UNL     1      12.813   6.009  21.395  0.00  0.00    +0.034 A 
ATOM     23  C16 UNL     1      13.120   7.344  21.696  0.00  0.00    +0.025 A 
ATOM     24  C17 UNL     1      12.115   8.312  21.710  0.00  0.00    +0.030 A 
ATOM     25  C18 UNL     1      10.786   7.972  21.418  0.00  0.00    +0.072 A 
BRANCH  25  26
ATOM     26  N4  UNL     1       9.781   8.998  21.479  0.00  0.00    -0.200 N 
ATOM     27  C19 UNL     1       9.005   9.349  22.520  0.00  0.00    +0.250 A 
ATOM     28  N5  UNL     1       8.265  10.423  22.191  0.00  0.00    -0.116 NA
ATOM     29  N6  UNL     1       8.613  10.721  20.946  0.00  0.00    -0.023 NA
ATOM     30  N7  UNL     1       9.533   9.869  20.518  0.00  0.00    -0.039 NA
ENDBRANCH  25  26
ENDBRANCH   1  22
TORSDOF 4
ENDMDL
MODEL 9
REMARK VINA RESULT:    -6.168      5.077      6.874
REMARK INTER + INTRA:          -8.387
REMARK INTER:                  -7.712
REMARK INTRA:                  -0.675
REMARK UNBOUND:                -0.777
REMARK  Name = /home/qwerty/github/datacon2025hack/step_04_hit_selection/docking/ligands/lig_333.pdb
REMARK  5 active torsions:
REMARK  status: ('A' for Active; 'I' for Inactive)
REMARK    1  A    between atoms: C1_1  and  C2_2
REMARK    2  A    between atoms: C4_4  and  N1_5
REMARK    3  A    between atoms: C5_6  and  C6_8
REMARK    4  A    between atoms: C10_14  and  N3_15
REMARK    5  A    between atoms: C18_24  and  N4_25
REMARK                            x       y       z     vdW  Elec       q    Type
REMARK                         _______ _______ _______ _____ _____    ______ ____
ROOT
ATOM      1  N1  UNL     1      21.014   2.934  29.120  0.00  0.00    -0.278 N 
ATOM      2  C5  UNL     1      21.883   2.133  28.302  0.00  0.00    +0.303 C 
ATOM      3  O1  UNL     1      23.021   1.796  28.726  0.00  0.00    -0.265 OA
ATOM      4  H5  UNL     1      19.994   2.943  28.889  0.00  0.00    +0.155 HD
ENDROOT
BRANCH   2   5
ATOM      5  C6  UNL     1      21.445   1.697  26.961  0.00  0.00    +0.302 C 
ATOM      6  O2  UNL     1      20.916   0.561  26.825  0.00  0.00    -0.265 OA
ATOM      7  N2  UNL     1      21.562   2.564  25.818  0.00  0.00    -0.292 N 
ATOM      8  C7  UNL     1      22.820   3.265  25.527  0.00  0.00    +0.108 C 
ATOM      9  C8  UNL     1      22.557   4.742  25.186  0.00  0.00    +0.021 C 
ATOM     10  C9  UNL     1      21.234   4.975  24.421  0.00  0.00    +0.025 C 
ATOM     11  C10 UNL     1      20.700   3.687  23.772  0.00  0.00    +0.093 C 
ATOM     12  C15 UNL     1      20.461   2.605  24.844  0.00  0.00    +0.130 C 
BRANCH  11  13
ATOM     13  N3  UNL     1      19.480   3.944  22.996  0.00  0.00    -0.297 N 
ATOM     14  C11 UNL     1      18.153   3.556  23.442  0.00  0.00    +0.108 C 
ATOM     15  C12 UNL     1      17.173   4.026  22.349  0.00  0.00    +0.028 C 
ATOM     16  C13 UNL     1      18.006   4.635  21.212  0.00  0.00    +0.097 C 
ATOM     17  C14 UNL     1      19.389   4.556  21.719  0.00  0.00    +0.216 C 
ATOM     18  O3  UNL     1      20.386   4.984  21.080  0.00  0.00    -0.276 OA
ENDBRANCH  11  13
ENDBRANCH   2   5
BRANCH   1  22
ATOM     19  C1  UNL     1      22.375   7.176  31.286  0.00  0.00    +0.046 C 
ATOM     20  C2  UNL     1      22.111   5.699  31.403  0.00  0.00    -0.023 A 
ATOM     21  C3  UNL     1      21.667   5.000  30.267  0.00  0.00    +0.028 A 
ATOM     22  C4  UNL     1      21.437   3.618  30.312  0.00  0.00    +0.034 A 
ATOM     23  C16 UNL     1      21.692   2.922  31.503  0.00  0.00    +0.025 A 
ATOM     24  C17 UNL     1      22.115   3.607  32.643  0.00  0.00    +0.030 A 
ATOM     25  C18 UNL     1      22.300   4.997  32.619  0.00  0.00    +0.072 A 
BRANCH  25  26
ATOM     26  N4  UNL     1      22.703   5.661  33.828  0.00  0.00    -0.200 N 
ATOM     27  C19 UNL     1      21.957   5.964  34.905  0.00  0.00    +0.250 A 
ATOM     28  N5  UNL     1      22.739   6.496  35.861  0.00  0.00    -0.116 NA
ATOM     29  N6  UNL     1      23.964   6.499  35.353  0.00  0.00    -0.023 NA
ATOM     30  N7  UNL     1      23.946   5.987  34.131  0.00  0.00    -0.039 NA
ENDBRANCH  25  26
ENDBRANCH   1  22
TORSDOF 4
ENDMDL
