MODEL 1
REMARK VINA RESULT:    -6.581      0.000      0.000
REMARK INTER + INTRA:          -8.821
REMARK INTER:                  -8.697
REMARK INTRA:                  -0.124
REMARK UNBOUND:                -0.124
REMARK  Name = /home/qwerty/github/datacon2025hack/step_04_hit_selection/docking/ligands/lig_65.pdb
REMARK  7 active torsions:
REMARK  status: ('A' for Active; 'I' for Inactive)
REMARK    1  A    between atoms: C1_1  and  O1_2
REMARK    2  A    between atoms: O1_2  and  C2_3
REMARK    3  A    between atoms: C2_3  and  C3_5
REMARK    4  A    between atoms: C3_5  and  C4_6
REMARK    5  A    between atoms: C7_9  and  N1_10
REMARK    6  A    between atoms: N1_10  and  C8_11
REMARK    7  A    between atoms: C9_12  and  N2_13
REMARK                            x       y       z     vdW  Elec       q    Type
REMARK                         _______ _______ _______ _____ _____    ______ ____
ROOT
ATOM      1  C4  UNL     1      13.419  12.003  36.789  0.00  0.00    -0.030 A 
ATOM      2  C5  UNL     1      14.346  10.953  36.868  0.00  0.00    +0.006 A 
ATOM      3  C6  UNL     1      15.711  11.225  36.986  0.00  0.00    +0.023 A 
ATOM      4  C7  UNL     1      16.174  12.549  37.008  0.00  0.00    +0.031 A 
ATOM      5  C14 UNL     1      15.243  13.600  36.917  0.00  0.00    +0.023 A 
ATOM      6  C15 UNL     1      13.878  13.328  36.798  0.00  0.00    +0.006 A 
ENDROOT
BRANCH   1   7
ATOM      7  C3  UNL     1      11.953  11.710  36.621  0.00  0.00    +0.093 C 
ATOM      8  C16 UNL     1      11.541  10.242  36.615  0.00  0.00    +0.024 C 
ATOM      9  C17 UNL     1      11.240  11.110  37.827  0.00  0.00    +0.024 C 
BRANCH   7  10
ATOM     10  C2  UNL     1      11.135  12.634  35.776  0.00  0.00    +0.317 C 
ATOM     11  O2  UNL     1      11.290  12.639  34.524  0.00  0.00    -0.250 OA
BRANCH  10  13
ATOM     12  C1  UNL     1       9.517  14.500  35.661  0.00  0.00    +0.280 C 
ATOM     13  O1  UNL     1      10.239  13.513  36.388  0.00  0.00    -0.467 OA
ENDBRANCH  10  13
ENDBRANCH   7  10
ENDBRANCH   1   7
BRANCH   4  14
ATOM     14  N1  UNL     1      17.585  12.801  37.139  0.00  0.00    -0.312 N 
ATOM     15  H6  UNL     1      17.910  13.501  37.845  0.00  0.00    +0.152 HD
BRANCH  14  16
ATOM     16  C8  UNL     1      18.578  12.210  36.287  0.00  0.00    +0.071 A 
ATOM     17  C9  UNL     1      19.295  11.073  36.719  0.00  0.00    +0.050 A 
ATOM     18  C10 UNL     1      20.256  10.499  35.874  0.00  0.00    +0.063 A 
ATOM     19  C11 UNL     1      20.503  11.041  34.611  0.00  0.00    +0.127 A 
ATOM     20  F1  UNL     1      21.438  10.480  33.804  0.00  0.00    -0.205 F 
ATOM     21  C12 UNL     1      19.787  12.157  34.177  0.00  0.00    +0.060 A 
ATOM     22  C13 UNL     1      18.823  12.741  35.006  0.00  0.00    +0.067 A 
ATOM     23 CL1  UNL     1      17.906  14.117  34.399  0.00  0.00    -0.081 Cl
BRANCH  17  24
ATOM     24  N2  UNL     1      19.074  10.509  38.018  0.00  0.00    -0.356 N 
ATOM     25  H7  UNL     1      19.055   9.473  38.151  0.00  0.00    +0.142 HD
ATOM     26  H8  UNL     1      18.945  11.109  38.863  0.00  0.00    +0.142 HD
ENDBRANCH  17  24
ENDBRANCH  14  16
ENDBRANCH   4  14
TORSDOF 6
ENDMDL
MODEL 2
REMARK VINA RESULT:    -6.293      5.935      9.895
REMARK INTER + INTRA:          -8.441
REMARK INTER:                  -7.897
REMARK INTRA:                  -0.544
REMARK UNBOUND:                -0.124
REMARK  Name = /home/qwerty/github/datacon2025hack/step_04_hit_selection/docking/ligands/lig_65.pdb
REMARK  7 active torsions:
REMARK  status: ('A' for Active; 'I' for Inactive)
REMARK    1  A    between atoms: C1_1  and  O1_2
REMARK    2  A    between atoms: O1_2  and  C2_3
REMARK    3  A    between atoms: C2_3  and  C3_5
REMARK    4  A    between atoms: C3_5  and  C4_6
REMARK    5  A    between atoms: C7_9  and  N1_10
REMARK    6  A    between atoms: N1_10  and  C8_11
REMARK    7  A    between atoms: C9_12  and  N2_13
REMARK                            x       y       z     vdW  Elec       q    Type
REMARK                         _______ _______ _______ _____ _____    ______ ____
ROOT
ATOM      1  C4  UNL     1      22.947   7.335  34.549  0.00  0.00    -0.030 A 
ATOM      2  C5  UNL     1      22.198   8.502  34.341  0.00  0.00    +0.006 A 
ATOM      3  C6  UNL     1      21.416   9.032  35.371  0.00  0.00    +0.023 A 
ATOM      4  C7  UNL     1      21.357   8.395  36.619  0.00  0.00    +0.031 A 
ATOM      5  C14 UNL     1      22.101   7.218  36.822  0.00  0.00    +0.023 A 
ATOM      6  C15 UNL     1      22.881   6.687  35.790  0.00  0.00    +0.006 A 
ENDROOT
BRANCH   1   7
ATOM      7  C3  UNL     1      23.756   6.743  33.427  0.00  0.00    +0.093 C 
ATOM      8  C16 UNL     1      25.013   7.498  33.012  0.00  0.00    +0.024 C 
ATOM      9  C17 UNL     1      25.132   6.201  33.797  0.00  0.00    +0.024 C 
BRANCH   7  10
ATOM     10  C2  UNL     1      23.035   6.004  32.344  0.00  0.00    +0.317 C 
ATOM     11  O2  UNL     1      22.508   6.644  31.394  0.00  0.00    -0.250 OA
BRANCH  10  13
ATOM     12  C1  UNL     1      21.948   3.972  33.238  0.00  0.00    +0.280 C 
ATOM     13  O1  UNL     1      22.918   4.614  32.421  0.00  0.00    -0.467 OA
ENDBRANCH  10  13
ENDBRANCH   7  10
ENDBRANCH   1   7
BRANCH   4  14
ATOM     14  N1  UNL     1      20.551   8.966  37.666  0.00  0.00    -0.312 N 
ATOM     15  H6  UNL     1      20.986   9.139  38.600  0.00  0.00    +0.152 HD
BRANCH  14  16
ATOM     16  C8  UNL     1      19.147   9.232  37.529  0.00  0.00    +0.071 A 
ATOM     17  C9  UNL     1      18.696  10.548  37.288  0.00  0.00    +0.050 A 
ATOM     18  C10 UNL     1      17.322  10.793  37.147  0.00  0.00    +0.063 A 
ATOM     19  C11 UNL     1      16.402   9.746  37.240  0.00  0.00    +0.127 A 
ATOM     20  F1  UNL     1      15.075   9.996  37.106  0.00  0.00    -0.205 F 
ATOM     21  C12 UNL     1      16.847   8.443  37.466  0.00  0.00    +0.060 A 
ATOM     22  C13 UNL     1      18.214   8.179  37.606  0.00  0.00    +0.067 A 
ATOM     23 CL1  UNL     1      18.735   6.513  37.839  0.00  0.00    -0.081 Cl
BRANCH  17  24
ATOM     24  N2  UNL     1      19.618  11.642  37.207  0.00  0.00    -0.356 N 
ATOM     25  H7  UNL     1      20.428  11.703  37.864  0.00  0.00    +0.142 HD
ATOM     26  H8  UNL     1      19.519  12.391  36.488  0.00  0.00    +0.142 HD
ENDBRANCH  17  24
ENDBRANCH  14  16
ENDBRANCH   4  14
TORSDOF 6
ENDMDL
MODEL 3
REMARK VINA RESULT:    -6.196      5.968      9.733
REMARK INTER + INTRA:          -8.313
REMARK INTER:                  -8.058
REMARK INTRA:                  -0.255
REMARK UNBOUND:                -0.124
REMARK  Name = /home/qwerty/github/datacon2025hack/step_04_hit_selection/docking/ligands/lig_65.pdb
REMARK  7 active torsions:
REMARK  status: ('A' for Active; 'I' for Inactive)
REMARK    1  A    between atoms: C1_1  and  O1_2
REMARK    2  A    between atoms: O1_2  and  C2_3
REMARK    3  A    between atoms: C2_3  and  C3_5
REMARK    4  A    between atoms: C3_5  and  C4_6
REMARK    5  A    between atoms: C7_9  and  N1_10
REMARK    6  A    between atoms: N1_10  and  C8_11
REMARK    7  A    between atoms: C9_12  and  N2_13
REMARK                            x       y       z     vdW  Elec       q    Type
REMARK                         _______ _______ _______ _____ _____    ______ ____
ROOT
ATOM      1  C4  UNL     1      22.897   7.625  34.261  0.00  0.00    -0.030 A 
ATOM      2  C5  UNL     1      22.885   6.913  35.469  0.00  0.00    +0.006 A 
ATOM      3  C6  UNL     1      22.118   7.364  36.546  0.00  0.00    +0.023 A 
ATOM      4  C7  UNL     1      21.366   8.543  36.440  0.00  0.00    +0.031 A 
ATOM      5  C14 UNL     1      21.388   9.261  35.230  0.00  0.00    +0.023 A 
ATOM      6  C15 UNL     1      22.157   8.810  34.153  0.00  0.00    +0.006 A 
ENDROOT
BRANCH   1   7
ATOM      7  C3  UNL     1      23.754   7.160  33.115  0.00  0.00    +0.093 C 
ATOM      8  C16 UNL     1      25.115   6.571  33.468  0.00  0.00    +0.024 C 
ATOM      9  C17 UNL     1      23.988   5.658  33.010  0.00  0.00    +0.024 C 
BRANCH   7  10
ATOM     10  C2  UNL     1      23.664   7.897  31.816  0.00  0.00    +0.317 C 
ATOM     11  O2  UNL     1      22.981   7.418  30.871  0.00  0.00    -0.250 OA
BRANCH  10  13
ATOM     12  C1  UNL     1      23.932  10.130  30.790  0.00  0.00    +0.280 C 
ATOM     13  O1  UNL     1      24.375   9.088  31.651  0.00  0.00    -0.467 OA
ENDBRANCH  10  13
ENDBRANCH   7  10
ENDBRANCH   1   7
BRANCH   4  14
ATOM     14  N1  UNL     1      20.578   8.981  37.562  0.00  0.00    -0.312 N 
ATOM     15  H6  UNL     1      21.034   9.056  38.500  0.00  0.00    +0.152 HD
BRANCH  14  16
ATOM     16  C8  UNL     1      19.168   9.238  37.488  0.00  0.00    +0.071 A 
ATOM     17  C9  UNL     1      18.698  10.557  37.301  0.00  0.00    +0.050 A 
ATOM     18  C10 UNL     1      17.317  10.793  37.221  0.00  0.00    +0.063 A 
ATOM     19  C11 UNL     1      16.410   9.736  37.321  0.00  0.00    +0.127 A 
ATOM     20  F1  UNL     1      15.077   9.978  37.246  0.00  0.00    -0.205 F 
ATOM     21  C12 UNL     1      16.873   8.432  37.493  0.00  0.00    +0.060 A 
ATOM     22  C13 UNL     1      18.247   8.176  37.573  0.00  0.00    +0.067 A 
ATOM     23 CL1  UNL     1      18.789   6.509  37.739  0.00  0.00    -0.081 Cl
BRANCH  17  24
ATOM     24  N2  UNL     1      19.607  11.661  37.215  0.00  0.00    -0.356 N 
ATOM     25  H7  UNL     1      19.495  12.491  37.840  0.00  0.00    +0.142 HD
ATOM     26  H8  UNL     1      20.409  11.660  36.547  0.00  0.00    +0.142 HD
ENDBRANCH  17  24
ENDBRANCH  14  16
ENDBRANCH   4  14
TORSDOF 6
ENDMDL
MODEL 4
REMARK VINA RESULT:    -6.072     15.075     17.308
REMARK INTER + INTRA:          -8.149
REMARK INTER:                  -7.795
REMARK INTRA:                  -0.354
REMARK UNBOUND:                -0.124
REMARK  Name = /home/qwerty/github/datacon2025hack/step_04_hit_selection/docking/ligands/lig_65.pdb
REMARK  7 active torsions:
REMARK  status: ('A' for Active; 'I' for Inactive)
REMARK    1  A    between atoms: C1_1  and  O1_2
REMARK    2  A    between atoms: O1_2  and  C2_3
REMARK    3  A    between atoms: C2_3  and  C3_5
REMARK    4  A    between atoms: C3_5  and  C4_6
REMARK    5  A    between atoms: C7_9  and  N1_10
REMARK    6  A    between atoms: N1_10  and  C8_11
REMARK    7  A    between atoms: C9_12  and  N2_13
REMARK                            x       y       z     vdW  Elec       q    Type
REMARK                         _______ _______ _______ _____ _____    ______ ____
ROOT
ATOM      1  C4  UNL     1      20.227   1.301  27.435  0.00  0.00    -0.030 A 
ATOM      2  C5  UNL     1      18.920   1.473  27.915  0.00  0.00    +0.006 A 
ATOM      3  C6  UNL     1      17.833   0.970  27.196  0.00  0.00    +0.023 A 
ATOM      4  C7  UNL     1      18.032   0.304  25.978  0.00  0.00    +0.031 A 
ATOM      5  C14 UNL     1      19.343   0.142  25.493  0.00  0.00    +0.023 A 
ATOM      6  C15 UNL     1      20.431   0.647  26.212  0.00  0.00    +0.006 A 
ENDROOT
BRANCH   1   7
ATOM      7  C3  UNL     1      21.394   1.877  28.190  0.00  0.00    +0.093 C 
ATOM      8  C16 UNL     1      22.457   2.598  27.368  0.00  0.00    +0.024 C 
ATOM      9  C17 UNL     1      21.492   3.398  28.229  0.00  0.00    +0.024 C 
BRANCH   7  10
ATOM     10  C2  UNL     1      21.871   1.164  29.415  0.00  0.00    +0.317 C 
ATOM     11  O2  UNL     1      22.346   1.824  30.379  0.00  0.00    -0.250 OA
BRANCH  10  13
ATOM     12  C1  UNL     1      22.799  -1.052  28.829  0.00  0.00    +0.280 C 
ATOM     13  O1  UNL     1      21.823  -0.231  29.460  0.00  0.00    -0.467 OA
ENDBRANCH  10  13
ENDBRANCH   7  10
ENDBRANCH   1   7
BRANCH   4  14
ATOM     14  N1  UNL     1      16.895  -0.211  25.261  0.00  0.00    -0.312 N 
ATOM     15  H6  UNL     1      16.151  -0.717  25.793  0.00  0.00    +0.152 HD
BRANCH  14  16
ATOM     16  C8  UNL     1      16.764  -0.150  23.833  0.00  0.00    +0.071 A 
ATOM     17  C9  UNL     1      17.103  -1.270  23.042  0.00  0.00    +0.050 A 
ATOM     18  C10 UNL     1      16.962  -1.200  21.648  0.00  0.00    +0.063 A 
ATOM     19  C11 UNL     1      16.486  -0.036  21.042  0.00  0.00    +0.127 A 
ATOM     20  F1  UNL     1      16.357   0.021  19.692  0.00  0.00    -0.205 F 
ATOM     21  C12 UNL     1      16.138   1.067  21.822  0.00  0.00    +0.060 A 
ATOM     22  C13 UNL     1      16.270   1.015  23.214  0.00  0.00    +0.067 A 
ATOM     23 CL1  UNL     1      15.772   2.411  24.164  0.00  0.00    -0.081 Cl
BRANCH  17  24
ATOM     24  N2  UNL     1      17.612  -2.469  23.639  0.00  0.00    -0.356 N 
ATOM     25  H7  UNL     1      18.465  -2.933  23.254  0.00  0.00    +0.142 HD
ATOM     26  H8  UNL     1      17.162  -2.899  24.477  0.00  0.00    +0.142 HD
ENDBRANCH  17  24
ENDBRANCH  14  16
ENDBRANCH   4  14
TORSDOF 6
ENDMDL
MODEL 5
REMARK VINA RESULT:    -6.023      8.973     11.448
REMARK INTER + INTRA:          -8.084
REMARK INTER:                  -7.578
REMARK INTRA:                  -0.506
REMARK UNBOUND:                -0.124
REMARK  Name = /home/qwerty/github/datacon2025hack/step_04_hit_selection/docking/ligands/lig_65.pdb
REMARK  7 active torsions:
REMARK  status: ('A' for Active; 'I' for Inactive)
REMARK    1  A    between atoms: C1_1  and  O1_2
REMARK    2  A    between atoms: O1_2  and  C2_3
REMARK    3  A    between atoms: C2_3  and  C3_5
REMARK    4  A    between atoms: C3_5  and  C4_6
REMARK    5  A    between atoms: C7_9  and  N1_10
REMARK    6  A    between atoms: N1_10  and  C8_11
REMARK    7  A    between atoms: C9_12  and  N2_13
REMARK                            x       y       z     vdW  Elec       q    Type
REMARK                         _______ _______ _______ _____ _____    ______ ____
ROOT
ATOM      1  C4  UNL     1      10.613  12.800  29.931  0.00  0.00    -0.030 A 
ATOM      2  C5  UNL     1       9.379  13.331  29.525  0.00  0.00    +0.006 A 
ATOM      3  C6  UNL     1       8.266  12.498  29.384  0.00  0.00    +0.023 A 
ATOM      4  C7  UNL     1       8.370  11.121  29.629  0.00  0.00    +0.031 A 
ATOM      5  C14 UNL     1       9.612  10.590  30.026  0.00  0.00    +0.023 A 
ATOM      6  C15 UNL     1      10.726  11.423  30.166  0.00  0.00    +0.006 A 
ENDROOT
BRANCH   1   7
ATOM      7  C3  UNL     1      11.821  13.690  30.044  0.00  0.00    +0.093 C 
ATOM      8  C16 UNL     1      11.970  14.489  31.334  0.00  0.00    +0.024 C 
ATOM      9  C17 UNL     1      12.865  13.286  31.077  0.00  0.00    +0.024 C 
BRANCH   7  10
ATOM     10  C2  UNL     1      12.350  14.330  28.800  0.00  0.00    +0.317 C 
ATOM     11  O2  UNL     1      11.658  15.197  28.199  0.00  0.00    -0.250 OA
BRANCH  10  13
ATOM     12  C1  UNL     1      14.678  14.828  28.134  0.00  0.00    +0.280 C 
ATOM     13  O1  UNL     1      13.588  13.928  28.294  0.00  0.00    -0.467 OA
ENDBRANCH  10  13
ENDBRANCH   7  10
ENDBRANCH   1   7
BRANCH   4  14
ATOM     14  N1  UNL     1       7.206  10.288  29.485  0.00  0.00    -0.312 N 
ATOM     15  H6  UNL     1       6.268  10.687  29.717  0.00  0.00    +0.152 HD
BRANCH  14  16
ATOM     16  C8  UNL     1       7.265   8.900  29.123  0.00  0.00    +0.071 A 
ATOM     17  C9  UNL     1       7.126   7.904  30.114  0.00  0.00    +0.050 A 
ATOM     18  C10 UNL     1       7.176   6.551  29.746  0.00  0.00    +0.063 A 
ATOM     19  C11 UNL     1       7.357   6.186  28.411  0.00  0.00    +0.127 A 
ATOM     20  F1  UNL     1       7.407   4.874  28.068  0.00  0.00    -0.205 F 
ATOM     21  C12 UNL     1       7.481   7.169  27.428  0.00  0.00    +0.060 A 
ATOM     22  C13 UNL     1       7.431   8.523  27.776  0.00  0.00    +0.067 A 
ATOM     23 CL1  UNL     1       7.541   9.729  26.498  0.00  0.00    -0.081 Cl
BRANCH  17  24
ATOM     24  N2  UNL     1       6.959   8.252  31.494  0.00  0.00    -0.356 N 
ATOM     25  H7  UNL     1       7.493   9.049  31.909  0.00  0.00    +0.142 HD
ATOM     26  H8  UNL     1       6.294   7.739  32.113  0.00  0.00    +0.142 HD
ENDBRANCH  17  24
ENDBRANCH  14  16
ENDBRANCH   4  14
TORSDOF 6
ENDMDL
MODEL 6
REMARK VINA RESULT:    -6.012      6.214      8.302
REMARK INTER + INTRA:          -8.069
REMARK INTER:                  -7.948
REMARK INTRA:                  -0.121
REMARK UNBOUND:                -0.124
REMARK  Name = /home/qwerty/github/datacon2025hack/step_04_hit_selection/docking/ligands/lig_65.pdb
REMARK  7 active torsions:
REMARK  status: ('A' for Active; 'I' for Inactive)
REMARK    1  A    between atoms: C1_1  and  O1_2
REMARK    2  A    between atoms: O1_2  and  C2_3
REMARK    3  A    between atoms: C2_3  and  C3_5
REMARK    4  A    between atoms: C3_5  and  C4_6
REMARK    5  A    between atoms: C7_9  and  N1_10
REMARK    6  A    between atoms: N1_10  and  C8_11
REMARK    7  A    between atoms: C9_12  and  N2_13
REMARK                            x       y       z     vdW  Elec       q    Type
REMARK                         _______ _______ _______ _____ _____    ______ ____
ROOT
ATOM      1  C4  UNL     1      11.541  14.074  29.639  0.00  0.00    -0.030 A 
ATOM      2  C5  UNL     1      10.676  13.577  30.625  0.00  0.00    +0.006 A 
ATOM      3  C6  UNL     1      10.930  13.828  31.976  0.00  0.00    +0.023 A 
ATOM      4  C7  UNL     1      12.060  14.563  32.364  0.00  0.00    +0.031 A 
ATOM      5  C14 UNL     1      12.931  15.051  31.373  0.00  0.00    +0.023 A 
ATOM      6  C15 UNL     1      12.678  14.799  30.021  0.00  0.00    +0.006 A 
ENDROOT
BRANCH   1   7
ATOM      7  C3  UNL     1      11.289  13.770  28.187  0.00  0.00    +0.093 C 
ATOM      8  C16 UNL     1      12.046  14.612  27.166  0.00  0.00    +0.024 C 
ATOM      9  C17 UNL     1      12.453  13.167  27.409  0.00  0.00    +0.024 C 
BRANCH   7  10
ATOM     10  C2  UNL     1       9.926  13.302  27.785  0.00  0.00    +0.317 C 
ATOM     11  O2  UNL     1       8.979  14.131  27.703  0.00  0.00    -0.250 OA
BRANCH  10  13
ATOM     12  C1  UNL     1       8.442  11.428  27.154  0.00  0.00    +0.280 C 
ATOM     13  O1  UNL     1       9.709  11.944  27.545  0.00  0.00    -0.467 OA
ENDBRANCH  10  13
ENDBRANCH   7  10
ENDBRANCH   1   7
BRANCH   4  14
ATOM     14  N1  UNL     1      12.294  14.814  33.762  0.00  0.00    -0.312 N 
ATOM     15  H6  UNL     1      12.753  15.710  34.044  0.00  0.00    +0.152 HD
BRANCH  14  16
ATOM     16  C8  UNL     1      12.013  13.859  34.796  0.00  0.00    +0.071 A 
ATOM     17  C9  UNL     1      10.819  13.957  35.545  0.00  0.00    +0.050 A 
ATOM     18  C10 UNL     1      10.552  13.012  36.547  0.00  0.00    +0.063 A 
ATOM     19  C11 UNL     1      11.453  11.977  36.803  0.00  0.00    +0.127 A 
ATOM     20  F1  UNL     1      11.186  11.071  37.777  0.00  0.00    -0.205 F 
ATOM     21  C12 UNL     1      12.627  11.871  36.056  0.00  0.00    +0.060 A 
ATOM     22  C13 UNL     1      12.909  12.803  35.051  0.00  0.00    +0.067 A 
ATOM     23 CL1  UNL     1      14.376  12.602  34.098  0.00  0.00    -0.081 Cl
BRANCH  17  24
ATOM     24  N2  UNL     1       9.887  15.020  35.314  0.00  0.00    -0.356 N 
ATOM     25  H7  UNL     1       8.893  14.812  35.068  0.00  0.00    +0.142 HD
ATOM     26  H8  UNL     1      10.165  16.023  35.402  0.00  0.00    +0.142 HD
ENDBRANCH  17  24
ENDBRANCH  14  16
ENDBRANCH   4  14
TORSDOF 6
ENDMDL
MODEL 7
REMARK VINA RESULT:    -6.011      8.828     10.272
REMARK INTER + INTRA:          -8.068
REMARK INTER:                  -7.617
REMARK INTRA:                  -0.451
REMARK UNBOUND:                -0.124
REMARK  Name = /home/qwerty/github/datacon2025hack/step_04_hit_selection/docking/ligands/lig_65.pdb
REMARK  7 active torsions:
REMARK  status: ('A' for Active; 'I' for Inactive)
REMARK    1  A    between atoms: C1_1  and  O1_2
REMARK    2  A    between atoms: O1_2  and  C2_3
REMARK    3  A    between atoms: C2_3  and  C3_5
REMARK    4  A    between atoms: C3_5  and  C4_6
REMARK    5  A    between atoms: C7_9  and  N1_10
REMARK    6  A    between atoms: N1_10  and  C8_11
REMARK    7  A    between atoms: C9_12  and  N2_13
REMARK                            x       y       z     vdW  Elec       q    Type
REMARK                         _______ _______ _______ _____ _____    ______ ____
ROOT
ATOM      1  C4  UNL     1       8.983  10.877  27.325  0.00  0.00    -0.030 A 
ATOM      2  C5  UNL     1       8.318  12.060  27.680  0.00  0.00    +0.006 A 
ATOM      3  C6  UNL     1       9.029  13.256  27.811  0.00  0.00    +0.023 A 
ATOM      4  C7  UNL     1      10.416  13.286  27.608  0.00  0.00    +0.031 A 
ATOM      5  C14 UNL     1      11.082  12.095  27.263  0.00  0.00    +0.023 A 
ATOM      6  C15 UNL     1      10.371  10.898  27.133  0.00  0.00    +0.006 A 
ENDROOT
BRANCH   1   7
ATOM      7  C3  UNL     1       8.224   9.582  27.224  0.00  0.00    +0.093 C 
ATOM      8  C16 UNL     1       7.515   9.301  25.904  0.00  0.00    +0.024 C 
ATOM      9  C17 UNL     1       8.784   8.542  26.260  0.00  0.00    +0.024 C 
BRANCH   7  10
ATOM     10  C2  UNL     1       7.573   9.041  28.457  0.00  0.00    +0.317 C 
ATOM     11  O2  UNL     1       6.771   9.763  29.109  0.00  0.00    -0.250 OA
BRANCH  10  13
ATOM     12  C1  UNL     1       8.661   7.516  30.070  0.00  0.00    +0.280 C 
ATOM     13  O1  UNL     1       7.894   7.755  28.896  0.00  0.00    -0.467 OA
ENDBRANCH  10  13
ENDBRANCH   7  10
ENDBRANCH   1   7
BRANCH   4  14
ATOM     14  N1  UNL     1      11.123  14.532  27.741  0.00  0.00    -0.312 N 
ATOM     15  H6  UNL     1      10.643  15.417  27.458  0.00  0.00    +0.152 HD
BRANCH  14  16
ATOM     16  C8  UNL     1      12.492  14.626  28.159  0.00  0.00    +0.071 A 
ATOM     17  C9  UNL     1      13.512  14.830  27.204  0.00  0.00    +0.050 A 
ATOM     18  C10 UNL     1      14.846  14.930  27.627  0.00  0.00    +0.063 A 
ATOM     19  C11 UNL     1      15.168  14.833  28.982  0.00  0.00    +0.127 A 
ATOM     20  F1  UNL     1      16.463  14.927  29.379  0.00  0.00    -0.205 F 
ATOM     21  C12 UNL     1      14.161  14.644  29.929  0.00  0.00    +0.060 A 
ATOM     22  C13 UNL     1      12.825  14.545  29.526  0.00  0.00    +0.067 A 
ATOM     23 CL1  UNL     1      11.581  14.359  30.758  0.00  0.00    -0.081 Cl
BRANCH  17  24
ATOM     24  N2  UNL     1      13.209  14.914  25.806  0.00  0.00    -0.356 N 
ATOM     25  H7  UNL     1      13.559  14.187  25.142  0.00  0.00    +0.142 HD
ATOM     26  H8  UNL     1      12.621  15.683  25.417  0.00  0.00    +0.142 HD
ENDBRANCH  17  24
ENDBRANCH  14  16
ENDBRANCH   4  14
TORSDOF 6
ENDMDL
MODEL 8
REMARK VINA RESULT:    -5.975     11.770     14.250
REMARK INTER + INTRA:          -8.020
REMARK INTER:                  -7.477
REMARK INTRA:                  -0.543
REMARK UNBOUND:                -0.124
REMARK  Name = /home/qwerty/github/datacon2025hack/step_04_hit_selection/docking/ligands/lig_65.pdb
REMARK  7 active torsions:
REMARK  status: ('A' for Active; 'I' for Inactive)
REMARK    1  A    between atoms: C1_1  and  O1_2
REMARK    2  A    between atoms: O1_2  and  C2_3
REMARK    3  A    between atoms: C2_3  and  C3_5
REMARK    4  A    between atoms: C3_5  and  C4_6
REMARK    5  A    between atoms: C7_9  and  N1_10
REMARK    6  A    between atoms: N1_10  and  C8_11
REMARK    7  A    between atoms: C9_12  and  N2_13
REMARK                            x       y       z     vdW  Elec       q    Type
REMARK                         _______ _______ _______ _____ _____    ______ ____
ROOT
ATOM      1  C4  UNL     1      20.919   2.108  27.829  0.00  0.00    -0.030 A 
ATOM      2  C5  UNL     1      19.690   2.195  28.499  0.00  0.00    +0.006 A 
ATOM      3  C6  UNL     1      19.513   1.563  29.732  0.00  0.00    +0.023 A 
ATOM      4  C7  UNL     1      20.553   0.818  30.307  0.00  0.00    +0.031 A 
ATOM      5  C14 UNL     1      21.782   0.723  29.627  0.00  0.00    +0.023 A 
ATOM      6  C15 UNL     1      21.958   1.355  28.393  0.00  0.00    +0.006 A 
ENDROOT
BRANCH   1   7
ATOM      7  C3  UNL     1      21.096   2.755  26.483  0.00  0.00    +0.093 C 
ATOM      8  C16 UNL     1      21.643   4.178  26.470  0.00  0.00    +0.024 C 
ATOM      9  C17 UNL     1      22.531   3.020  26.042  0.00  0.00    +0.024 C 
BRANCH   7  10
ATOM     10  C2  UNL     1      20.136   2.401  25.392  0.00  0.00    +0.317 C 
ATOM     11  O2  UNL     1      20.420   1.476  24.583  0.00  0.00    -0.250 OA
BRANCH  10  13
ATOM     12  C1  UNL     1      18.683   3.950  24.124  0.00  0.00    +0.280 C 
ATOM     13  O1  UNL     1      18.952   3.130  25.255  0.00  0.00    -0.467 OA
ENDBRANCH  10  13
ENDBRANCH   7  10
ENDBRANCH   1   7
BRANCH   4  14
ATOM     14  N1  UNL     1      20.347   0.183  31.582  0.00  0.00    -0.312 N 
ATOM     15  H6  UNL     1      20.698  -0.792  31.723  0.00  0.00    +0.152 HD
BRANCH  14  16
ATOM     16  C8  UNL     1      19.603   0.781  32.653  0.00  0.00    +0.071 A 
ATOM     17  C9  UNL     1      18.340   0.261  33.015  0.00  0.00    +0.050 A 
ATOM     18  C10 UNL     1      17.626   0.849  34.070  0.00  0.00    +0.063 A 
ATOM     19  C11 UNL     1      18.157   1.937  34.765  0.00  0.00    +0.127 A 
ATOM     20  F1  UNL     1      17.456   2.499  35.781  0.00  0.00    -0.205 F 
ATOM     21  C12 UNL     1      19.410   2.444  34.418  0.00  0.00    +0.060 A 
ATOM     22  C13 UNL     1      20.138   1.870  33.370  0.00  0.00    +0.067 A 
ATOM     23 CL1  UNL     1      21.736   2.508  33.000  0.00  0.00    -0.081 Cl
BRANCH  17  24
ATOM     24  N2  UNL     1      17.765  -0.843  32.304  0.00  0.00    -0.356 N 
ATOM     25  H7  UNL     1      16.730  -0.990  32.300  0.00  0.00    +0.142 HD
ATOM     26  H8  UNL     1      18.353  -1.513  31.762  0.00  0.00    +0.142 HD
ENDBRANCH  17  24
ENDBRANCH  14  16
ENDBRANCH   4  14
TORSDOF 6
ENDMDL
MODEL 9
REMARK VINA RESULT:    -5.914      9.587     12.390
REMARK INTER + INTRA:          -7.940
REMARK INTER:                  -7.602
REMARK INTRA:                  -0.338
REMARK UNBOUND:                -0.124
REMARK  Name = /home/qwerty/github/datacon2025hack/step_04_hit_selection/docking/ligands/lig_65.pdb
REMARK  7 active torsions:
REMARK  status: ('A' for Active; 'I' for Inactive)
REMARK    1  A    between atoms: C1_1  and  O1_2
REMARK    2  A    between atoms: O1_2  and  C2_3
REMARK    3  A    between atoms: C2_3  and  C3_5
REMARK    4  A    between atoms: C3_5  and  C4_6
REMARK    5  A    between atoms: C7_9  and  N1_10
REMARK    6  A    between atoms: N1_10  and  C8_11
REMARK    7  A    between atoms: C9_12  and  N2_13
REMARK                            x       y       z     vdW  Elec       q    Type
REMARK                         _______ _______ _______ _____ _____    ______ ____
ROOT
ATOM      1  C4  UNL     1      21.544   2.941  30.418  0.00  0.00    -0.030 A 
ATOM      2  C5  UNL     1      21.128   4.189  29.933  0.00  0.00    +0.006 A 
ATOM      3  C6  UNL     1      21.427   5.356  30.642  0.00  0.00    +0.023 A 
ATOM      4  C7  UNL     1      22.130   5.293  31.854  0.00  0.00    +0.031 A 
ATOM      5  C14 UNL     1      22.536   4.037  32.344  0.00  0.00    +0.023 A 
ATOM      6  C15 UNL     1      22.235   2.870  31.635  0.00  0.00    +0.006 A 
ENDROOT
BRANCH   1   7
ATOM      7  C3  UNL     1      21.187   1.682  29.676  0.00  0.00    +0.093 C 
ATOM      8  C16 UNL     1      20.458   0.600  30.465  0.00  0.00    +0.024 C 
ATOM      9  C17 UNL     1      19.702   1.432  29.441  0.00  0.00    +0.024 C 
BRANCH   7  10
ATOM     10  C2  UNL     1      22.105   1.211  28.593  0.00  0.00    +0.317 C 
ATOM     11  O2  UNL     1      21.944   1.625  27.412  0.00  0.00    -0.250 OA
BRANCH  10  13
ATOM     12  C1  UNL     1      24.420   0.670  29.270  0.00  0.00    +0.280 C 
ATOM     13  O1  UNL     1      23.104   0.283  28.894  0.00  0.00    -0.467 OA
ENDBRANCH  10  13
ENDBRANCH   7  10
ENDBRANCH   1   7
BRANCH   4  14
ATOM     14  N1  UNL     1      22.432   6.510  32.560  0.00  0.00    -0.312 N 
ATOM     15  H6  UNL     1      22.751   7.343  32.014  0.00  0.00    +0.152 HD
BRANCH  14  16
ATOM     16  C8  UNL     1      22.407   6.624  33.990  0.00  0.00    +0.071 A 
ATOM     17  C9  UNL     1      21.189   6.871  34.660  0.00  0.00    +0.050 A 
ATOM     18  C10 UNL     1      21.177   6.971  36.059  0.00  0.00    +0.063 A 
ATOM     19  C11 UNL     1      22.357   6.824  36.790  0.00  0.00    +0.127 A 
ATOM     20  F1  UNL     1      22.334   6.926  38.143  0.00  0.00    -0.205 F 
ATOM     21  C12 UNL     1      23.560   6.566  36.131  0.00  0.00    +0.060 A 
ATOM     22  C13 UNL     1      23.591   6.461  34.736  0.00  0.00    +0.067 A 
ATOM     23 CL1  UNL     1      25.120   6.084  33.950  0.00  0.00    -0.081 Cl
BRANCH  17  24
ATOM     24  N2  UNL     1      19.967   7.046  33.931  0.00  0.00    -0.356 N 
ATOM     25  H7  UNL     1      19.394   6.219  33.648  0.00  0.00    +0.142 HD
ATOM     26  H8  UNL     1      19.608   7.994  33.681  0.00  0.00    +0.142 HD
ENDBRANCH  17  24
ENDBRANCH  14  16
ENDBRANCH   4  14
TORSDOF 6
ENDMDL
