MODEL 1
REMARK VINA RESULT:    -7.616      0.000      0.000
REMARK INTER + INTRA:         -10.339
REMARK INTER:                  -9.397
REMARK INTRA:                  -0.942
REMARK UNBOUND:                -0.942
REMARK  Name = /home/qwerty/github/datacon2025hack/step_04_hit_selection/docking/ligands/lig_44.pdb
REMARK  6 active torsions:
REMARK  status: ('A' for Active; 'I' for Inactive)
REMARK    1  A    between atoms: C1_1  and  C2_2
REMARK    2  A    between atoms: C4_4  and  N1_5
REMARK    3  A    between atoms: C5_6  and  C6_8
REMARK    4  A    between atoms: N2_10  and  C7_11
REMARK    5  A    between atoms: C14_20  and  C15_21
REMARK    6  A    between atoms: N4_23  and  C16_24
REMARK                            x       y       z     vdW  Elec       q    Type
REMARK                         _______ _______ _______ _____ _____    ______ ____
ROOT
ATOM      1  N1  UNL     1      14.589   1.604  21.568  0.00  0.00    -0.262 N 
ATOM      2  C5  UNL     1      13.173   1.464  21.753  0.00  0.00    +0.305 C 
ATOM      3  O1  UNL     1      12.652   0.317  21.796  0.00  0.00    -0.265 OA
ATOM      4  H5  UNL     1      15.057   2.473  21.909  0.00  0.00    +0.157 HD
ENDROOT
BRANCH   1   8
ATOM      5  C1  UNL     1      17.337  -1.399  18.717  0.00  0.00    +0.067 C 
ATOM      6  C2  UNL     1      16.619  -0.786  19.874  0.00  0.00    +0.062 A 
ATOM      7  C3  UNL     1      15.738   0.277  19.803  0.00  0.00    +0.068 A 
ATOM      8  C4  UNL     1      15.422   0.526  21.120  0.00  0.00    +0.129 A 
ATOM      9  N4  UNL     1      16.073  -0.354  21.916  0.00  0.00    -0.218 N 
ATOM     10  N5  UNL     1      16.816  -1.145  21.158  0.00  0.00    -0.170 NA
BRANCH   9  11
ATOM     11  C16 UNL     1      15.960  -0.516  23.341  0.00  0.00    +0.070 A 
ATOM     12  C17 UNL     1      16.883   0.114  24.191  0.00  0.00    +0.028 A 
ATOM     13  C18 UNL     1      16.786  -0.042  25.577  0.00  0.00    +0.005 A 
ATOM     14  C19 UNL     1      15.775  -0.838  26.124  0.00  0.00    +0.038 A 
ATOM     15  C20 UNL     1      14.866  -1.487  25.285  0.00  0.00    +0.125 A 
ATOM     16  F1  UNL     1      13.893  -2.269  25.816  0.00  0.00    -0.205 F 
ATOM     17  C21 UNL     1      14.962  -1.336  23.898  0.00  0.00    +0.066 A 
ENDBRANCH   9  11
ENDBRANCH   1   8
BRANCH   2  18
ATOM     18  C6  UNL     1      12.318   2.657  21.891  0.00  0.00    +0.304 C 
ATOM     19  O2  UNL     1      12.136   3.159  23.033  0.00  0.00    -0.265 OA
ATOM     20  N2  UNL     1      11.681   3.231  20.738  0.00  0.00    -0.278 N 
ATOM     21  H6  UNL     1      11.548   2.627  19.896  0.00  0.00    +0.155 HD
BRANCH  20  22
ATOM     22  C7  UNL     1      11.131   4.559  20.708  0.00  0.00    +0.036 A 
ATOM     23  C8  UNL     1       9.737   4.726  20.663  0.00  0.00    +0.027 A 
ATOM     24  C9  UNL     1       9.178   6.005  20.606  0.00  0.00    +0.049 A 
ATOM     25  C10 UNL     1      10.005   7.131  20.584  0.00  0.00    +0.143 A 
ATOM     26  C11 UNL     1      11.398   6.978  20.599  0.00  0.00    +0.077 A 
ATOM     27  C12 UNL     1      11.959   5.695  20.653  0.00  0.00    +0.050 A 
ATOM     28  N3  UNL     1      12.230   8.138  20.504  0.00  0.00    -0.279 N 
ATOM     29  C13 UNL     1      11.648   9.445  20.513  0.00  0.00    +0.258 C 
ATOM     30  O3  UNL     1      12.390  10.455  20.377  0.00  0.00    -0.271 OA
ATOM     31  C14 UNL     1      10.171   9.612  20.793  0.00  0.00    +0.256 C 
ATOM     32  C15 UNL     1       9.569  10.754  19.977  0.00  0.00    +0.062 C 
ATOM     33  O4  UNL     1       9.442   8.410  20.516  0.00  0.00    -0.478 OA
ATOM     34  H10 UNL     1      13.267   8.036  20.421  0.00  0.00    +0.155 HD
ENDBRANCH  20  22
ENDBRANCH   2  18
TORSDOF 4
ENDMDL
MODEL 2
REMARK VINA RESULT:    -7.440     15.642     18.780
REMARK INTER + INTRA:         -10.122
REMARK INTER:                  -9.206
REMARK INTRA:                  -0.916
REMARK UNBOUND:                -0.942
REMARK  Name = /home/qwerty/github/datacon2025hack/step_04_hit_selection/docking/ligands/lig_44.pdb
REMARK  6 active torsions:
REMARK  status: ('A' for Active; 'I' for Inactive)
REMARK    1  A    between atoms: C1_1  and  C2_2
REMARK    2  A    between atoms: C4_4  and  N1_5
REMARK    3  A    between atoms: C5_6  and  C6_8
REMARK    4  A    between atoms: N2_10  and  C7_11
REMARK    5  A    between atoms: C14_20  and  C15_21
REMARK    6  A    between atoms: N4_23  and  C16_24
REMARK                            x       y       z     vdW  Elec       q    Type
REMARK                         _______ _______ _______ _____ _____    ______ ____
ROOT
ATOM      1  N1  UNL     1      15.956  12.370  35.593  0.00  0.00    -0.262 N 
ATOM      2  C5  UNL     1      16.517  11.551  36.630  0.00  0.00    +0.305 C 
ATOM      3  O1  UNL     1      16.144  11.701  37.825  0.00  0.00    -0.265 OA
ATOM      4  H5  UNL     1      15.957  12.010  34.612  0.00  0.00    +0.157 HD
ENDROOT
BRANCH   1   8
ATOM      5  C1  UNL     1      14.758  17.118  36.434  0.00  0.00    +0.067 C 
ATOM      6  C2  UNL     1      14.694  15.640  36.237  0.00  0.00    +0.062 A 
ATOM      7  C3  UNL     1      15.782  14.795  36.127  0.00  0.00    +0.068 A 
ATOM      8  C4  UNL     1      15.216  13.567  35.868  0.00  0.00    +0.129 A 
ATOM      9  N4  UNL     1      13.868  13.686  35.842  0.00  0.00    -0.218 N 
ATOM     10  N5  UNL     1      13.548  14.954  36.052  0.00  0.00    -0.170 NA
BRANCH   9  11
ATOM     11  C16 UNL     1      12.885  12.646  35.701  0.00  0.00    +0.070 A 
ATOM     12  C17 UNL     1      12.262  12.435  34.459  0.00  0.00    +0.028 A 
ATOM     13  C18 UNL     1      11.302  11.430  34.313  0.00  0.00    +0.005 A 
ATOM     14  C19 UNL     1      10.946  10.635  35.407  0.00  0.00    +0.038 A 
ATOM     15  C20 UNL     1      11.544  10.851  36.651  0.00  0.00    +0.125 A 
ATOM     16  F1  UNL     1      11.190  10.088  37.715  0.00  0.00    -0.205 F 
ATOM     17  C21 UNL     1      12.503  11.858  36.802  0.00  0.00    +0.066 A 
ENDBRANCH   9  11
ENDBRANCH   1   8
BRANCH   2  18
ATOM     18  C6  UNL     1      17.532  10.532  36.307  0.00  0.00    +0.304 C 
ATOM     19  O2  UNL     1      17.170   9.434  35.805  0.00  0.00    -0.265 OA
ATOM     20  N2  UNL     1      18.921  10.779  36.581  0.00  0.00    -0.278 N 
ATOM     21  H6  UNL     1      19.162  11.503  37.294  0.00  0.00    +0.155 HD
BRANCH  20  22
ATOM     22  C7  UNL     1      19.996  10.023  36.000  0.00  0.00    +0.036 A 
ATOM     23  C8  UNL     1      20.546   8.946  36.714  0.00  0.00    +0.027 A 
ATOM     24  C9  UNL     1      21.610   8.212  36.184  0.00  0.00    +0.049 A 
ATOM     25  C10 UNL     1      22.142   8.550  34.936  0.00  0.00    +0.143 A 
ATOM     26  C11 UNL     1      21.622   9.641  34.226  0.00  0.00    +0.077 A 
ATOM     27  C12 UNL     1      20.557  10.379  34.759  0.00  0.00    +0.050 A 
ATOM     28  N3  UNL     1      22.225  10.017  32.984  0.00  0.00    -0.279 N 
ATOM     29  C13 UNL     1      23.269   9.219  32.418  0.00  0.00    +0.258 C 
ATOM     30  O3  UNL     1      23.826   9.592  31.350  0.00  0.00    -0.271 OA
ATOM     31  C14 UNL     1      23.622   7.886  33.041  0.00  0.00    +0.256 C 
ATOM     32  C15 UNL     1      25.121   7.606  32.958  0.00  0.00    +0.062 C 
ATOM     33  O4  UNL     1      23.213   7.819  34.413  0.00  0.00    -0.478 OA
ATOM     34  H10 UNL     1      21.910  10.881  32.487  0.00  0.00    +0.155 HD
ENDBRANCH  20  22
ENDBRANCH   2  18
TORSDOF 4
ENDMDL
MODEL 3
REMARK VINA RESULT:    -7.273      3.492     10.162
REMARK INTER + INTRA:          -9.916
REMARK INTER:                  -8.988
REMARK INTRA:                  -0.929
REMARK UNBOUND:                -0.942
REMARK  Name = /home/qwerty/github/datacon2025hack/step_04_hit_selection/docking/ligands/lig_44.pdb
REMARK  6 active torsions:
REMARK  status: ('A' for Active; 'I' for Inactive)
REMARK    1  A    between atoms: C1_1  and  C2_2
REMARK    2  A    between atoms: C4_4  and  N1_5
REMARK    3  A    between atoms: C5_6  and  C6_8
REMARK    4  A    between atoms: N2_10  and  C7_11
REMARK    5  A    between atoms: C14_20  and  C15_21
REMARK    6  A    between atoms: N4_23  and  C16_24
REMARK                            x       y       z     vdW  Elec       q    Type
REMARK                         _______ _______ _______ _____ _____    ______ ____
ROOT
ATOM      1  N1  UNL     1       9.938   5.329  21.920  0.00  0.00    -0.262 N 
ATOM      2  C5  UNL     1      10.967   4.873  21.029  0.00  0.00    +0.305 C 
ATOM      3  O1  UNL     1      10.997   5.281  19.837  0.00  0.00    -0.265 OA
ATOM      4  H5  UNL     1      10.121   5.316  22.948  0.00  0.00    +0.157 HD
ENDROOT
BRANCH   1   8
ATOM      5  C1  UNL     1       5.294   6.211  20.387  0.00  0.00    +0.067 C 
ATOM      6  C2  UNL     1       6.723   6.370  20.786  0.00  0.00    +0.062 A 
ATOM      7  C3  UNL     1       7.607   5.339  21.048  0.00  0.00    +0.068 A 
ATOM      8  C4  UNL     1       8.751   5.987  21.458  0.00  0.00    +0.129 A 
ATOM      9  N4  UNL     1       8.551   7.325  21.424  0.00  0.00    -0.218 N 
ATOM     10  N5  UNL     1       7.308   7.560  21.030  0.00  0.00    -0.170 NA
BRANCH   9  11
ATOM     11  C16 UNL     1       9.502   8.373  21.678  0.00  0.00    +0.070 A 
ATOM     12  C17 UNL     1       9.576   8.956  22.954  0.00  0.00    +0.028 A 
ATOM     13  C18 UNL     1      10.494   9.979  23.210  0.00  0.00    +0.005 A 
ATOM     14  C19 UNL     1      11.335  10.438  22.191  0.00  0.00    +0.038 A 
ATOM     15  C20 UNL     1      11.253   9.880  20.913  0.00  0.00    +0.125 A 
ATOM     16  F1  UNL     1      12.061  10.333  19.923  0.00  0.00    -0.205 F 
ATOM     17  C21 UNL     1      10.334   8.858  20.653  0.00  0.00    +0.066 A 
ENDBRANCH   9  11
ENDBRANCH   1   8
BRANCH   2  18
ATOM     18  C6  UNL     1      11.994   3.926  21.500  0.00  0.00    +0.304 C 
ATOM     19  O2  UNL     1      13.127   4.360  21.844  0.00  0.00    -0.265 OA
ATOM     20  N2  UNL     1      11.714   2.517  21.549  0.00  0.00    -0.278 N 
ATOM     21  H6  UNL     1      10.942   2.147  20.950  0.00  0.00    +0.155 HD
BRANCH  20  22
ATOM     22  C7  UNL     1      12.495   1.573  22.301  0.00  0.00    +0.036 A 
ATOM     23  C8  UNL     1      12.155   1.309  23.638  0.00  0.00    +0.027 A 
ATOM     24  C9  UNL     1      12.914   0.416  24.399  0.00  0.00    +0.049 A 
ATOM     25  C10 UNL     1      14.025  -0.217  23.836  0.00  0.00    +0.143 A 
ATOM     26  C11 UNL     1      14.393   0.061  22.512  0.00  0.00    +0.077 A 
ATOM     27  C12 UNL     1      13.634   0.959  21.749  0.00  0.00    +0.050 A 
ATOM     28  N3  UNL     1      15.574  -0.541  21.974  0.00  0.00    -0.279 N 
ATOM     29  C13 UNL     1      16.306  -1.504  22.740  0.00  0.00    +0.258 C 
ATOM     30  O3  UNL     1      17.373  -1.986  22.273  0.00  0.00    -0.271 OA
ATOM     31  C14 UNL     1      15.742  -2.016  24.046  0.00  0.00    +0.256 C 
ATOM     32  C15 UNL     1      16.843  -2.269  25.074  0.00  0.00    +0.062 C 
ATOM     33  O4  UNL     1      14.789  -1.102  24.604  0.00  0.00    -0.478 OA
ATOM     34  H10 UNL     1      15.913  -0.275  21.022  0.00  0.00    +0.155 HD
ENDBRANCH  20  22
ENDBRANCH   2  18
TORSDOF 4
ENDMDL
MODEL 4
REMARK VINA RESULT:    -7.265      8.891     10.680
REMARK INTER + INTRA:          -9.907
REMARK INTER:                  -8.968
REMARK INTRA:                  -0.939
REMARK UNBOUND:                -0.942
REMARK  Name = /home/qwerty/github/datacon2025hack/step_04_hit_selection/docking/ligands/lig_44.pdb
REMARK  6 active torsions:
REMARK  status: ('A' for Active; 'I' for Inactive)
REMARK    1  A    between atoms: C1_1  and  C2_2
REMARK    2  A    between atoms: C4_4  and  N1_5
REMARK    3  A    between atoms: C5_6  and  C6_8
REMARK    4  A    between atoms: N2_10  and  C7_11
REMARK    5  A    between atoms: C14_20  and  C15_21
REMARK    6  A    between atoms: N4_23  and  C16_24
REMARK                            x       y       z     vdW  Elec       q    Type
REMARK                         _______ _______ _______ _____ _____    ______ ____
ROOT
ATOM      1  N1  UNL     1      19.992   1.942  28.108  0.00  0.00    -0.262 N 
ATOM      2  C5  UNL     1      20.334   3.318  27.880  0.00  0.00    +0.305 C 
ATOM      3  O1  UNL     1      20.780   4.023  28.825  0.00  0.00    -0.265 OA
ATOM      4  H5  UNL     1      20.002   1.281  27.299  0.00  0.00    +0.157 HD
ENDROOT
BRANCH   1   8
ATOM      5  C1  UNL     1      18.029   0.453  32.423  0.00  0.00    +0.067 C 
ATOM      6  C2  UNL     1      18.977   0.744  31.307  0.00  0.00    +0.062 A 
ATOM      7  C3  UNL     1      18.689   1.490  30.179  0.00  0.00    +0.068 A 
ATOM      8  C4  UNL     1      19.835   1.392  29.422  0.00  0.00    +0.129 A 
ATOM      9  N4  UNL     1      20.749   0.640  30.079  0.00  0.00    -0.218 N 
ATOM     10  N5  UNL     1      20.221   0.231  31.223  0.00  0.00    -0.170 NA
BRANCH   9  11
ATOM     11  C16 UNL     1      22.108   0.361  29.702  0.00  0.00    +0.070 A 
ATOM     12  C17 UNL     1      23.060   1.394  29.701  0.00  0.00    +0.028 A 
ATOM     13  C18 UNL     1      24.383   1.134  29.331  0.00  0.00    +0.005 A 
ATOM     14  C19 UNL     1      24.763  -0.155  28.947  0.00  0.00    +0.038 A 
ATOM     15  C20 UNL     1      23.819  -1.184  28.923  0.00  0.00    +0.125 A 
ATOM     16  F1  UNL     1      24.186  -2.431  28.538  0.00  0.00    -0.205 F 
ATOM     17  C21 UNL     1      22.494  -0.928  29.289  0.00  0.00    +0.066 A 
ENDBRANCH   9  11
ENDBRANCH   1   8
BRANCH   2  18
ATOM     18  C6  UNL     1      20.165   3.916  26.543  0.00  0.00    +0.304 C 
ATOM     19  O2  UNL     1      19.380   4.892  26.396  0.00  0.00    -0.265 OA
ATOM     20  N2  UNL     1      20.873   3.379  25.414  0.00  0.00    -0.278 N 
ATOM     21  H6  UNL     1      21.220   2.396  25.471  0.00  0.00    +0.155 HD
BRANCH  20  22
ATOM     22  C7  UNL     1      21.049   4.084  24.173  0.00  0.00    +0.036 A 
ATOM     23  C8  UNL     1      20.286   3.710  23.055  0.00  0.00    +0.027 A 
ATOM     24  C9  UNL     1      20.458   4.361  21.830  0.00  0.00    +0.049 A 
ATOM     25  C10 UNL     1      21.397   5.387  21.707  0.00  0.00    +0.143 A 
ATOM     26  C11 UNL     1      22.186   5.750  22.808  0.00  0.00    +0.077 A 
ATOM     27  C12 UNL     1      22.017   5.096  24.035  0.00  0.00    +0.050 A 
ATOM     28  N3  UNL     1      23.192   6.754  22.645  0.00  0.00    -0.279 N 
ATOM     29  C13 UNL     1      23.314   7.460  21.406  0.00  0.00    +0.258 C 
ATOM     30  O3  UNL     1      24.240   8.304  21.262  0.00  0.00    -0.271 OA
ATOM     31  C14 UNL     1      22.274   7.271  20.325  0.00  0.00    +0.256 C 
ATOM     32  C15 UNL     1      22.897   7.318  18.931  0.00  0.00    +0.062 C 
ATOM     33  O4  UNL     1      21.574   6.030  20.477  0.00  0.00    -0.478 OA
ATOM     34  H10 UNL     1      23.849   6.972  23.429  0.00  0.00    +0.155 HD
ENDBRANCH  20  22
ENDBRANCH   2  18
TORSDOF 4
ENDMDL
MODEL 5
REMARK VINA RESULT:    -7.022      3.209      9.559
REMARK INTER + INTRA:          -9.606
REMARK INTER:                  -8.581
REMARK INTRA:                  -1.025
REMARK UNBOUND:                -0.942
REMARK  Name = /home/qwerty/github/datacon2025hack/step_04_hit_selection/docking/ligands/lig_44.pdb
REMARK  6 active torsions:
REMARK  status: ('A' for Active; 'I' for Inactive)
REMARK    1  A    between atoms: C1_1  and  C2_2
REMARK    2  A    between atoms: C4_4  and  N1_5
REMARK    3  A    between atoms: C5_6  and  C6_8
REMARK    4  A    between atoms: N2_10  and  C7_11
REMARK    5  A    between atoms: C14_20  and  C15_21
REMARK    6  A    between atoms: N4_23  and  C16_24
REMARK                            x       y       z     vdW  Elec       q    Type
REMARK                         _______ _______ _______ _____ _____    ______ ____
ROOT
ATOM      1  N1  UNL     1      11.203   8.339  22.266  0.00  0.00    -0.262 N 
ATOM      2  C5  UNL     1      11.592   7.536  21.141  0.00  0.00    +0.305 C 
ATOM      3  O1  UNL     1      10.940   7.602  20.064  0.00  0.00    -0.265 OA
ATOM      4  H5  UNL     1      11.923   8.581  22.984  0.00  0.00    +0.157 HD
ENDROOT
BRANCH   1   8
ATOM      5  C1  UNL     1       7.538  11.664  21.815  0.00  0.00    +0.067 C 
ATOM      6  C2  UNL     1       8.330  10.445  22.153  0.00  0.00    +0.062 A 
ATOM      7  C3  UNL     1       9.695  10.299  21.988  0.00  0.00    +0.068 A 
ATOM      8  C4  UNL     1       9.929   8.991  22.349  0.00  0.00    +0.129 A 
ATOM      9  N4  UNL     1       8.764   8.408  22.719  0.00  0.00    -0.218 N 
ATOM     10  N5  UNL     1       7.785   9.289  22.585  0.00  0.00    -0.170 NA
BRANCH   9  11
ATOM     11  C16 UNL     1       8.561   7.089  23.256  0.00  0.00    +0.070 A 
ATOM     12  C17 UNL     1       8.703   6.867  24.635  0.00  0.00    +0.028 A 
ATOM     13  C18 UNL     1       8.513   5.588  25.167  0.00  0.00    +0.005 A 
ATOM     14  C19 UNL     1       8.192   4.519  24.325  0.00  0.00    +0.038 A 
ATOM     15  C20 UNL     1       8.071   4.726  22.948  0.00  0.00    +0.125 A 
ATOM     16  F1  UNL     1       7.772   3.686  22.131  0.00  0.00    -0.205 F 
ATOM     17  C21 UNL     1       8.264   6.003  22.413  0.00  0.00    +0.066 A 
ENDBRANCH   9  11
ENDBRANCH   1   8
BRANCH   2  18
ATOM     18  C6  UNL     1      12.751   6.631  21.237  0.00  0.00    +0.304 C 
ATOM     19  O2  UNL     1      13.516   6.708  22.236  0.00  0.00    -0.265 OA
ATOM     20  N2  UNL     1      13.017   5.681  20.192  0.00  0.00    -0.278 N 
ATOM     21  H6  UNL     1      12.612   5.862  19.246  0.00  0.00    +0.155 HD
BRANCH  20  22
ATOM     22  C7  UNL     1      13.887   4.547  20.346  0.00  0.00    +0.036 A 
ATOM     23  C8  UNL     1      15.080   4.488  19.607  0.00  0.00    +0.027 A 
ATOM     24  C9  UNL     1      15.929   3.384  19.719  0.00  0.00    +0.049 A 
ATOM     25  C10 UNL     1      15.593   2.323  20.564  0.00  0.00    +0.143 A 
ATOM     26  C11 UNL     1      14.391   2.356  21.285  0.00  0.00    +0.077 A 
ATOM     27  C12 UNL     1      13.537   3.461  21.170  0.00  0.00    +0.050 A 
ATOM     28  N3  UNL     1      14.028   1.230  22.090  0.00  0.00    -0.279 N 
ATOM     29  C13 UNL     1      14.935   0.135  22.249  0.00  0.00    +0.258 C 
ATOM     30  O3  UNL     1      14.580  -0.872  22.919  0.00  0.00    -0.271 OA
ATOM     31  C14 UNL     1      16.344   0.237  21.709  0.00  0.00    +0.256 C 
ATOM     32  C15 UNL     1      16.841  -1.105  21.176  0.00  0.00    +0.062 C 
ATOM     33  O4  UNL     1      16.440   1.215  20.665  0.00  0.00    -0.478 OA
ATOM     34  H10 UNL     1      13.095   1.199  22.560  0.00  0.00    +0.155 HD
ENDBRANCH  20  22
ENDBRANCH   2  18
TORSDOF 4
ENDMDL
MODEL 6
REMARK VINA RESULT:    -6.946      5.273      9.965
REMARK INTER + INTRA:          -9.513
REMARK INTER:                  -8.569
REMARK INTRA:                  -0.945
REMARK UNBOUND:                -0.942
REMARK  Name = /home/qwerty/github/datacon2025hack/step_04_hit_selection/docking/ligands/lig_44.pdb
REMARK  6 active torsions:
REMARK  status: ('A' for Active; 'I' for Inactive)
REMARK    1  A    between atoms: C1_1  and  C2_2
REMARK    2  A    between atoms: C4_4  and  N1_5
REMARK    3  A    between atoms: C5_6  and  C6_8
REMARK    4  A    between atoms: N2_10  and  C7_11
REMARK    5  A    between atoms: C14_20  and  C15_21
REMARK    6  A    between atoms: N4_23  and  C16_24
REMARK                            x       y       z     vdW  Elec       q    Type
REMARK                         _______ _______ _______ _____ _____    ______ ____
ROOT
ATOM      1  N1  UNL     1      16.017   3.606  23.127  0.00  0.00    -0.262 N 
ATOM      2  C5  UNL     1      17.315   4.020  22.674  0.00  0.00    +0.305 C 
ATOM      3  O1  UNL     1      17.493   4.327  21.464  0.00  0.00    -0.265 OA
ATOM      4  H5  UNL     1      15.774   3.728  24.136  0.00  0.00    +0.157 HD
ENDROOT
BRANCH   1   8
ATOM      5  C1  UNL     1      12.296   3.760  19.838  0.00  0.00    +0.067 C 
ATOM      6  C2  UNL     1      13.342   3.291  20.793  0.00  0.00    +0.062 A 
ATOM      7  C3  UNL     1      14.097   4.100  21.623  0.00  0.00    +0.068 A 
ATOM      8  C4  UNL     1      14.969   3.222  22.227  0.00  0.00    +0.129 A 
ATOM      9  N4  UNL     1      14.727   1.966  21.785  0.00  0.00    -0.218 N 
ATOM     10  N5  UNL     1      13.745   2.009  20.897  0.00  0.00    -0.170 NA
BRANCH   9  11
ATOM     11  C16 UNL     1      15.334   0.737  22.220  0.00  0.00    +0.070 A 
ATOM     12  C17 UNL     1      16.528   0.298  21.625  0.00  0.00    +0.028 A 
ATOM     13  C18 UNL     1      17.124  -0.898  22.037  0.00  0.00    +0.005 A 
ATOM     14  C19 UNL     1      16.526  -1.670  23.038  0.00  0.00    +0.038 A 
ATOM     15  C20 UNL     1      15.327  -1.253  23.621  0.00  0.00    +0.125 A 
ATOM     16  F1  UNL     1      14.742  -2.008  24.582  0.00  0.00    -0.205 F 
ATOM     17  C21 UNL     1      14.727  -0.059  23.208  0.00  0.00    +0.066 A 
ENDBRANCH   9  11
ENDBRANCH   1   8
BRANCH   2  18
ATOM     18  C6  UNL     1      18.446   4.087  23.616  0.00  0.00    +0.304 C 
ATOM     19  O2  UNL     1      18.503   5.030  24.450  0.00  0.00    -0.265 OA
ATOM     20  N2  UNL     1      19.487   3.097  23.571  0.00  0.00    -0.278 N 
ATOM     21  H6  UNL     1      19.616   2.556  22.686  0.00  0.00    +0.155 HD
BRANCH  20  22
ATOM     22  C7  UNL     1      20.422   2.872  24.640  0.00  0.00    +0.036 A 
ATOM     23  C8  UNL     1      21.549   3.702  24.754  0.00  0.00    +0.027 A 
ATOM     24  C9  UNL     1      22.487   3.488  25.767  0.00  0.00    +0.049 A 
ATOM     25  C10 UNL     1      22.314   2.438  26.673  0.00  0.00    +0.143 A 
ATOM     26  C11 UNL     1      21.209   1.584  26.552  0.00  0.00    +0.077 A 
ATOM     27  C12 UNL     1      20.270   1.796  25.533  0.00  0.00    +0.050 A 
ATOM     28  N3  UNL     1      21.085   0.472  27.443  0.00  0.00    -0.279 N 
ATOM     29  C13 UNL     1      22.015   0.301  28.517  0.00  0.00    +0.258 C 
ATOM     30  O3  UNL     1      21.923  -0.713  29.261  0.00  0.00    -0.271 OA
ATOM     31  C14 UNL     1      23.027   1.384  28.819  0.00  0.00    +0.256 C 
ATOM     32  C15 UNL     1      24.358   0.796  29.282  0.00  0.00    +0.062 C 
ATOM     33  O4  UNL     1      23.261   2.221  27.679  0.00  0.00    -0.478 OA
ATOM     34  H10 UNL     1      20.319  -0.226  27.309  0.00  0.00    +0.155 HD
ENDBRANCH  20  22
ENDBRANCH   2  18
TORSDOF 4
ENDMDL
MODEL 7
REMARK VINA RESULT:    -6.938      3.114      9.460
REMARK INTER + INTRA:          -9.503
REMARK INTER:                  -8.464
REMARK INTRA:                  -1.040
REMARK UNBOUND:                -0.942
REMARK  Name = /home/qwerty/github/datacon2025hack/step_04_hit_selection/docking/ligands/lig_44.pdb
REMARK  6 active torsions:
REMARK  status: ('A' for Active; 'I' for Inactive)
REMARK    1  A    between atoms: C1_1  and  C2_2
REMARK    2  A    between atoms: C4_4  and  N1_5
REMARK    3  A    between atoms: C5_6  and  C6_8
REMARK    4  A    between atoms: N2_10  and  C7_11
REMARK    5  A    between atoms: C14_20  and  C15_21
REMARK    6  A    between atoms: N4_23  and  C16_24
REMARK                            x       y       z     vdW  Elec       q    Type
REMARK                         _______ _______ _______ _____ _____    ______ ____
ROOT
ATOM      1  N1  UNL     1      11.127   7.416  21.833  0.00  0.00    -0.262 N 
ATOM      2  C5  UNL     1      11.168   6.370  20.851  0.00  0.00    +0.305 C 
ATOM      3  O1  UNL     1      10.318   6.345  19.921  0.00  0.00    -0.265 OA
ATOM      4  H5  UNL     1      12.007   7.663  22.342  0.00  0.00    +0.157 HD
ENDROOT
BRANCH   1   8
ATOM      5  C1  UNL     1       7.933  11.200  21.423  0.00  0.00    +0.067 C 
ATOM      6  C2  UNL     1       8.598   9.926  21.828  0.00  0.00    +0.062 A 
ATOM      7  C3  UNL     1       9.878   9.539  21.477  0.00  0.00    +0.068 A 
ATOM      8  C4  UNL     1       9.990   8.272  22.006  0.00  0.00    +0.129 A 
ATOM      9  N4  UNL     1       8.843   7.943  22.644  0.00  0.00    -0.218 N 
ATOM     10  N5  UNL     1       7.986   8.946  22.523  0.00  0.00    -0.170 NA
BRANCH   9  11
ATOM     11  C16 UNL     1       8.560   6.763  23.414  0.00  0.00    +0.070 A 
ATOM     12  C17 UNL     1       8.756   6.771  24.805  0.00  0.00    +0.028 A 
ATOM     13  C18 UNL     1       8.489   5.627  25.563  0.00  0.00    +0.005 A 
ATOM     14  C19 UNL     1       8.037   4.462  24.937  0.00  0.00    +0.038 A 
ATOM     15  C20 UNL     1       7.860   4.436  23.551  0.00  0.00    +0.125 A 
ATOM     16  F1  UNL     1       7.432   3.302  22.944  0.00  0.00    -0.205 F 
ATOM     17  C21 UNL     1       8.128   5.578  22.790  0.00  0.00    +0.066 A 
ENDBRANCH   9  11
ENDBRANCH   1   8
BRANCH   2  18
ATOM     18  C6  UNL     1      12.199   5.319  20.924  0.00  0.00    +0.304 C 
ATOM     19  O2  UNL     1      13.416   5.647  20.957  0.00  0.00    -0.265 OA
ATOM     20  N2  UNL     1      11.822   3.933  20.937  0.00  0.00    -0.278 N 
ATOM     21  H6  UNL     1      10.882   3.673  20.561  0.00  0.00    +0.155 HD
BRANCH  20  22
ATOM     22  C7  UNL     1      12.698   2.870  21.350  0.00  0.00    +0.036 A 
ATOM     23  C8  UNL     1      12.761   2.518  22.708  0.00  0.00    +0.027 A 
ATOM     24  C9  UNL     1      13.625   1.508  23.139  0.00  0.00    +0.049 A 
ATOM     25  C10 UNL     1      14.441   0.844  22.220  0.00  0.00    +0.143 A 
ATOM     26  C11 UNL     1      14.410   1.206  20.866  0.00  0.00    +0.077 A 
ATOM     27  C12 UNL     1      13.546   2.222  20.434  0.00  0.00    +0.050 A 
ATOM     28  N3  UNL     1      15.303   0.565  19.950  0.00  0.00    -0.279 N 
ATOM     29  C13 UNL     1      16.136  -0.513  20.390  0.00  0.00    +0.258 C 
ATOM     30  O3  UNL     1      16.955  -1.032  19.584  0.00  0.00    -0.271 OA
ATOM     31  C14 UNL     1      15.953  -1.091  21.775  0.00  0.00    +0.256 C 
ATOM     32  C15 UNL     1      17.285  -1.515  22.388  0.00  0.00    +0.062 C 
ATOM     33  O4  UNL     1      15.313  -0.160  22.656  0.00  0.00    -0.478 OA
ATOM     34  H10 UNL     1      15.358   0.887  18.957  0.00  0.00    +0.155 HD
ENDBRANCH  20  22
ENDBRANCH   2  18
TORSDOF 4
ENDMDL
MODEL 8
REMARK VINA RESULT:    -6.935      1.849      2.059
REMARK INTER + INTRA:          -9.499
REMARK INTER:                  -8.581
REMARK INTRA:                  -0.918
REMARK UNBOUND:                -0.942
REMARK  Name = /home/qwerty/github/datacon2025hack/step_04_hit_selection/docking/ligands/lig_44.pdb
REMARK  6 active torsions:
REMARK  status: ('A' for Active; 'I' for Inactive)
REMARK    1  A    between atoms: C1_1  and  C2_2
REMARK    2  A    between atoms: C4_4  and  N1_5
REMARK    3  A    between atoms: C5_6  and  C6_8
REMARK    4  A    between atoms: N2_10  and  C7_11
REMARK    5  A    between atoms: C14_20  and  C15_21
REMARK    6  A    between atoms: N4_23  and  C16_24
REMARK                            x       y       z     vdW  Elec       q    Type
REMARK                         _______ _______ _______ _____ _____    ______ ____
ROOT
ATOM      1  N1  UNL     1      14.503   1.696  20.770  0.00  0.00    -0.262 N 
ATOM      2  C5  UNL     1      15.012   3.030  20.921  0.00  0.00    +0.305 C 
ATOM      3  O1  UNL     1      16.187   3.302  20.558  0.00  0.00    -0.265 OA
ATOM      4  H5  UNL     1      13.470   1.557  20.697  0.00  0.00    +0.157 HD
ENDROOT
BRANCH   1   8
ATOM      5  C1  UNL     1      17.367  -1.662  18.488  0.00  0.00    +0.067 C 
ATOM      6  C2  UNL     1      16.600  -0.898  19.515  0.00  0.00    +0.062 A 
ATOM      7  C3  UNL     1      15.727   0.143  19.258  0.00  0.00    +0.068 A 
ATOM      8  C4  UNL     1      15.351   0.569  20.513  0.00  0.00    +0.129 A 
ATOM      9  N4  UNL     1      15.962  -0.192  21.452  0.00  0.00    -0.218 N 
ATOM     10  N5  UNL     1      16.737  -1.077  20.844  0.00  0.00    -0.170 NA
BRANCH   9  11
ATOM     11  C16 UNL     1      15.784  -0.158  22.878  0.00  0.00    +0.070 A 
ATOM     12  C17 UNL     1      14.636  -0.726  23.453  0.00  0.00    +0.028 A 
ATOM     13  C18 UNL     1      14.450  -0.694  24.839  0.00  0.00    +0.005 A 
ATOM     14  C19 UNL     1      15.403  -0.083  25.659  0.00  0.00    +0.038 A 
ATOM     15  C20 UNL     1      16.538   0.505  25.095  0.00  0.00    +0.125 A 
ATOM     16  F1  UNL     1      17.456   1.107  25.890  0.00  0.00    -0.205 F 
ATOM     17  C21 UNL     1      16.725   0.477  23.709  0.00  0.00    +0.066 A 
ENDBRANCH   9  11
ENDBRANCH   1   8
BRANCH   2  18
ATOM     18  C6  UNL     1      14.166   4.088  21.502  0.00  0.00    +0.304 C 
ATOM     19  O2  UNL     1      14.665   4.893  22.334  0.00  0.00    -0.265 OA
ATOM     20  N2  UNL     1      12.779   4.190  21.138  0.00  0.00    -0.278 N 
ATOM     21  H6  UNL     1      12.308   3.343  20.748  0.00  0.00    +0.155 HD
BRANCH  20  22
ATOM     22  C7  UNL     1      11.978   5.362  21.365  0.00  0.00    +0.036 A 
ATOM     23  C8  UNL     1      11.078   5.381  22.443  0.00  0.00    +0.027 A 
ATOM     24  C9  UNL     1      10.268   6.497  22.669  0.00  0.00    +0.049 A 
ATOM     25  C10 UNL     1      10.343   7.603  21.818  0.00  0.00    +0.143 A 
ATOM     26  C11 UNL     1      11.216   7.584  20.722  0.00  0.00    +0.077 A 
ATOM     27  C12 UNL     1      12.026   6.464  20.492  0.00  0.00    +0.050 A 
ATOM     28  N3  UNL     1      11.228   8.695  19.819  0.00  0.00    -0.279 N 
ATOM     29  C13 UNL     1      10.444   9.859  20.098  0.00  0.00    +0.258 C 
ATOM     30  O3  UNL     1      10.425  10.807  19.267  0.00  0.00    -0.271 OA
ATOM     31  C14 UNL     1       9.735   9.991  21.427  0.00  0.00    +0.256 C 
ATOM     32  C15 UNL     1       8.389  10.697  21.278  0.00  0.00    +0.062 C 
ATOM     33  O4  UNL     1       9.523   8.714  22.042  0.00  0.00    -0.478 OA
ATOM     34  H10 UNL     1      11.805   8.658  18.948  0.00  0.00    +0.155 HD
ENDBRANCH  20  22
ENDBRANCH   2  18
TORSDOF 4
ENDMDL
MODEL 9
REMARK VINA RESULT:    -6.904     15.693     16.935
REMARK INTER + INTRA:          -9.461
REMARK INTER:                  -9.092
REMARK INTRA:                  -0.368
REMARK UNBOUND:                -0.942
REMARK  Name = /home/qwerty/github/datacon2025hack/step_04_hit_selection/docking/ligands/lig_44.pdb
REMARK  6 active torsions:
REMARK  status: ('A' for Active; 'I' for Inactive)
REMARK    1  A    between atoms: C1_1  and  C2_2
REMARK    2  A    between atoms: C4_4  and  N1_5
REMARK    3  A    between atoms: C5_6  and  C6_8
REMARK    4  A    between atoms: N2_10  and  C7_11
REMARK    5  A    between atoms: C14_20  and  C15_21
REMARK    6  A    between atoms: N4_23  and  C16_24
REMARK                            x       y       z     vdW  Elec       q    Type
REMARK                         _______ _______ _______ _____ _____    ______ ____
ROOT
ATOM      1  N1  UNL     1      20.230   9.450  34.605  0.00  0.00    -0.262 N 
ATOM      2  C5  UNL     1      19.875  10.747  35.109  0.00  0.00    +0.305 C 
ATOM      3  O1  UNL     1      20.704  11.407  35.791  0.00  0.00    -0.265 OA
ATOM      4  H5  UNL     1      19.736   9.087  33.758  0.00  0.00    +0.157 HD
ENDROOT
BRANCH   1   8
ATOM      5  C1  UNL     1      23.185   6.540  37.341  0.00  0.00    +0.067 C 
ATOM      6  C2  UNL     1      22.655   7.448  36.282  0.00  0.00    +0.062 A 
ATOM      7  C3  UNL     1      21.425   8.080  36.304  0.00  0.00    +0.068 A 
ATOM      8  C4  UNL     1      21.365   8.717  35.085  0.00  0.00    +0.129 A 
ATOM      9  N4  UNL     1      22.505   8.482  34.394  0.00  0.00    -0.218 N 
ATOM     10  N5  UNL     1      23.286   7.695  35.117  0.00  0.00    -0.170 NA
BRANCH   9  11
ATOM     11  C16 UNL     1      22.904   9.028  33.125  0.00  0.00    +0.070 A 
ATOM     12  C17 UNL     1      24.268   9.193  32.833  0.00  0.00    +0.028 A 
ATOM     13  C18 UNL     1      24.667   9.727  31.604  0.00  0.00    +0.005 A 
ATOM     14  C19 UNL     1      23.708  10.113  30.663  0.00  0.00    +0.038 A 
ATOM     15  C20 UNL     1      22.348   9.974  30.953  0.00  0.00    +0.125 A 
ATOM     16  F1  UNL     1      21.418  10.359  30.044  0.00  0.00    -0.205 F 
ATOM     17  C21 UNL     1      21.945   9.442  32.182  0.00  0.00    +0.066 A 
ENDBRANCH   9  11
ENDBRANCH   1   8
BRANCH   2  18
ATOM     18  C6  UNL     1      18.542  11.314  34.834  0.00  0.00    +0.304 C 
ATOM     19  O2  UNL     1      17.985  11.078  33.728  0.00  0.00    -0.265 OA
ATOM     20  N2  UNL     1      17.892  12.143  35.811  0.00  0.00    -0.278 N 
ATOM     21  H6  UNL     1      18.483  12.608  36.536  0.00  0.00    +0.155 HD
BRANCH  20  22
ATOM     22  C7  UNL     1      16.487  12.447  35.792  0.00  0.00    +0.036 A 
ATOM     23  C8  UNL     1      16.039  13.590  35.109  0.00  0.00    +0.027 A 
ATOM     24  C9  UNL     1      14.681  13.922  35.099  0.00  0.00    +0.049 A 
ATOM     25  C10 UNL     1      13.758  13.121  35.776  0.00  0.00    +0.143 A 
ATOM     26  C11 UNL     1      14.196  11.995  36.485  0.00  0.00    +0.077 A 
ATOM     27  C12 UNL     1      15.557  11.663  36.499  0.00  0.00    +0.050 A 
ATOM     28  N3  UNL     1      13.247  11.227  37.232  0.00  0.00    -0.279 N 
ATOM     29  C13 UNL     1      11.852  11.537  37.160  0.00  0.00    +0.258 C 
ATOM     30  O3  UNL     1      11.034  10.885  37.864  0.00  0.00    -0.271 OA
ATOM     31  C14 UNL     1      11.357  12.564  36.166  0.00  0.00    +0.256 C 
ATOM     32  C15 UNL     1      10.193  13.377  36.729  0.00  0.00    +0.062 C 
ATOM     33  O4  UNL     1      12.401  13.463  35.771  0.00  0.00    -0.478 OA
ATOM     34  H10 UNL     1      13.569  10.440  37.840  0.00  0.00    +0.155 HD
ENDBRANCH  20  22
ENDBRANCH   2  18
TORSDOF 4
ENDMDL
