MODEL 1
REMARK VINA RESULT:    -6.027      0.000      0.000
REMARK INTER + INTRA:          -8.553
REMARK INTER:                  -7.965
REMARK INTRA:                  -0.589
REMARK UNBOUND:                -0.589
REMARK  Name = /home/qwerty/github/datacon2025hack/step_04_hit_selection/docking/ligands/lig_783.pdb
REMARK  6 active torsions:
REMARK  status: ('A' for Active; 'I' for Inactive)
REMARK    1  A    between atoms: C1_2  and  C9_15
REMARK    2  A    between atoms: N1_3  and  C2_4
REMARK    3  A    between atoms: C2_4  and  C3_5
REMARK    4  A    between atoms: C3_5  and  C4_6
REMARK    5  A    between atoms: C3_5  and  N2_8
REMARK    6  A    between atoms: C4_6  and  O2_7
REMARK                            x       y       z     vdW  Elec       q    Type
REMARK                         _______ _______ _______ _____ _____    ______ ____
ROOT
ATOM      1  O1  UNL     1      19.515   7.983  37.540  0.00  0.00    -0.270 OA
ATOM      2  C1  UNL     1      20.347   8.667  36.881  0.00  0.00    +0.244 C 
ATOM      3  N1  UNL     1      20.157  10.086  36.757  0.00  0.00    -0.310 N 
ATOM      4  H1  UNL     1      20.956  10.690  36.464  0.00  0.00    +0.149 HD
ENDROOT
BRANCH   2   5
ATOM      5  C9  UNL     1      21.515   7.996  36.263  0.00  0.00    +0.038 A 
ATOM      6  C10 UNL     1      22.249   7.013  36.974  0.00  0.00    +0.015 A 
ATOM      7  C11 UNL     1      23.362   6.384  36.389  0.00  0.00    +0.029 A 
ATOM      8  C12 UNL     1      23.739   6.747  35.097  0.00  0.00    +0.078 A 
ATOM      9  N5  UNL     1      24.793   6.216  34.427  0.00  0.00    -0.247 NA
ATOM     10  C13 UNL     1      24.918   6.766  33.194  0.00  0.00    +0.157 A 
ATOM     11  S1  UNL     1      23.725   7.930  32.899  0.00  0.00    -0.075 S 
ATOM     12  C14 UNL     1      23.028   7.714  34.409  0.00  0.00    +0.040 A 
ATOM     13  C15 UNL     1      21.923   8.355  34.960  0.00  0.00    +0.030 A 
ENDBRANCH   2   5
BRANCH   3  14
ATOM     14  C2  UNL     1      18.903  10.744  37.125  0.00  0.00    +0.129 C 
BRANCH  14  15
ATOM     15  C3  UNL     1      18.552  11.868  36.130  0.00  0.00    +0.115 C 
BRANCH  15  16
ATOM     16  N2  UNL     1      17.706  12.873  36.785  0.00  0.00    -0.307 N 
ATOM     17  C5  UNL     1      16.485  13.355  36.208  0.00  0.00    +0.215 A 
ATOM     18  N3  UNL     1      16.030  12.854  35.027  0.00  0.00    -0.223 NA
ATOM     19  C6  UNL     1      14.873  13.303  34.474  0.00  0.00    +0.116 A 
ATOM     20  C7  UNL     1      14.132  14.291  35.121  0.00  0.00    +0.039 A 
ATOM     21  C8  UNL     1      14.610  14.793  36.330  0.00  0.00    +0.116 A 
ATOM     22  N4  UNL     1      15.771  14.319  36.849  0.00  0.00    -0.223 NA
ATOM     23  H8  UNL     1      17.987  13.252  37.719  0.00  0.00    +0.149 HD
ENDBRANCH  15  16
BRANCH  15  24
ATOM     24  C4  UNL     1      19.816  12.534  35.550  0.00  0.00    +0.179 C 
BRANCH  24  25
ATOM     25  O2  UNL     1      20.762  12.787  36.554  0.00  0.00    -0.393 OA
ATOM     26  H7  UNL     1      20.290  12.690  37.423  0.00  0.00    +0.209 HD
ENDBRANCH  24  25
ENDBRANCH  15  24
ENDBRANCH  14  15
ENDBRANCH   3  14
TORSDOF 6
ENDMDL
MODEL 2
REMARK VINA RESULT:    -5.943     17.097     18.451
REMARK INTER + INTRA:          -8.442
REMARK INTER:                  -7.878
REMARK INTRA:                  -0.564
REMARK UNBOUND:                -0.589
REMARK  Name = /home/qwerty/github/datacon2025hack/step_04_hit_selection/docking/ligands/lig_783.pdb
REMARK  6 active torsions:
REMARK  status: ('A' for Active; 'I' for Inactive)
REMARK    1  A    between atoms: C1_2  and  C9_15
REMARK    2  A    between atoms: N1_3  and  C2_4
REMARK    3  A    between atoms: C2_4  and  C3_5
REMARK    4  A    between atoms: C3_5  and  C4_6
REMARK    5  A    between atoms: C3_5  and  N2_8
REMARK    6  A    between atoms: C4_6  and  O2_7
REMARK                            x       y       z     vdW  Elec       q    Type
REMARK                         _______ _______ _______ _____ _____    ______ ____
ROOT
ATOM      1  O1  UNL     1      10.149   2.660  21.880  0.00  0.00    -0.270 OA
ATOM      2  C1  UNL     1      10.604   3.491  21.046  0.00  0.00    +0.244 C 
ATOM      3  N1  UNL     1       9.733   4.494  20.499  0.00  0.00    -0.310 N 
ATOM      4  H1  UNL     1      10.142   5.336  20.036  0.00  0.00    +0.149 HD
ENDROOT
BRANCH   2   5
ATOM      5  C9  UNL     1      12.033   3.426  20.659  0.00  0.00    +0.038 A 
ATOM      6  C10 UNL     1      12.625   4.457  19.885  0.00  0.00    +0.015 A 
ATOM      7  C11 UNL     1      13.978   4.390  19.512  0.00  0.00    +0.029 A 
ATOM      8  C12 UNL     1      14.732   3.287  19.909  0.00  0.00    +0.078 A 
ATOM      9  N5  UNL     1      16.044   3.107  19.611  0.00  0.00    -0.247 NA
ATOM     10  C13 UNL     1      16.508   1.941  20.127  0.00  0.00    +0.157 A 
ATOM     11  S1  UNL     1      15.304   1.100  20.968  0.00  0.00    -0.075 S 
ATOM     12  C14 UNL     1      14.151   2.278  20.655  0.00  0.00    +0.040 A 
ATOM     13  C15 UNL     1      12.815   2.314  21.040  0.00  0.00    +0.030 A 
ENDBRANCH   2   5
BRANCH   3  14
ATOM     14  C2  UNL     1       8.279   4.437  20.650  0.00  0.00    +0.129 C 
BRANCH  14  15
ATOM     15  C3  UNL     1       7.679   5.851  20.795  0.00  0.00    +0.115 C 
BRANCH  15  16
ATOM     16  N2  UNL     1       8.582   6.843  20.202  0.00  0.00    -0.307 N 
ATOM     17  C5  UNL     1       9.051   7.992  20.921  0.00  0.00    +0.215 A 
ATOM     18  N3  UNL     1       8.706   8.184  22.224  0.00  0.00    -0.223 NA
ATOM     19  C6  UNL     1       9.148   9.268  22.913  0.00  0.00    +0.116 A 
ATOM     20  C7  UNL     1       9.970  10.203  22.286  0.00  0.00    +0.039 A 
ATOM     21  C8  UNL     1      10.317   9.992  20.952  0.00  0.00    +0.116 A 
ATOM     22  N4  UNL     1       9.854   8.896  20.297  0.00  0.00    -0.223 NA
ATOM     23  H8  UNL     1       8.917   6.713  19.220  0.00  0.00    +0.149 HD
ENDBRANCH  15  16
BRANCH  15  24
ATOM     24  C4  UNL     1       6.283   5.948  20.145  0.00  0.00    +0.179 C 
BRANCH  24  25
ATOM     25  O2  UNL     1       6.101   4.944  19.182  0.00  0.00    -0.393 OA
ATOM     26  H7  UNL     1       5.135   4.715  19.186  0.00  0.00    +0.209 HD
ENDBRANCH  24  25
ENDBRANCH  15  24
ENDBRANCH  14  15
ENDBRANCH   3  14
TORSDOF 6
ENDMDL
MODEL 3
REMARK VINA RESULT:    -5.890     16.971     17.934
REMARK INTER + INTRA:          -8.372
REMARK INTER:                  -7.765
REMARK INTRA:                  -0.607
REMARK UNBOUND:                -0.589
REMARK  Name = /home/qwerty/github/datacon2025hack/step_04_hit_selection/docking/ligands/lig_783.pdb
REMARK  6 active torsions:
REMARK  status: ('A' for Active; 'I' for Inactive)
REMARK    1  A    between atoms: C1_2  and  C9_15
REMARK    2  A    between atoms: N1_3  and  C2_4
REMARK    3  A    between atoms: C2_4  and  C3_5
REMARK    4  A    between atoms: C3_5  and  C4_6
REMARK    5  A    between atoms: C3_5  and  N2_8
REMARK    6  A    between atoms: C4_6  and  O2_7
REMARK                            x       y       z     vdW  Elec       q    Type
REMARK                         _______ _______ _______ _____ _____    ______ ____
ROOT
ATOM      1  O1  UNL     1      14.044   2.474  20.654  0.00  0.00    -0.270 OA
ATOM      2  C1  UNL     1      13.626   1.477  21.304  0.00  0.00    +0.244 C 
ATOM      3  N1  UNL     1      12.216   1.316  21.525  0.00  0.00    -0.310 N 
ATOM      4  H1  UNL     1      11.841   0.383  21.809  0.00  0.00    +0.149 HD
ENDROOT
BRANCH   2   5
ATOM      5  C9  UNL     1      14.597   0.480  21.814  0.00  0.00    +0.038 A 
ATOM      6  C10 UNL     1      15.785   0.188  21.095  0.00  0.00    +0.015 A 
ATOM      7  C11 UNL     1      16.700  -0.764  21.575  0.00  0.00    +0.029 A 
ATOM      8  C12 UNL     1      16.420  -1.425  22.770  0.00  0.00    +0.078 A 
ATOM      9  N5  UNL     1      17.222  -2.364  23.335  0.00  0.00    -0.247 NA
ATOM     10  C13 UNL     1      16.689  -2.834  24.490  0.00  0.00    +0.157 A 
ATOM     11  S1  UNL     1      15.206  -2.099  24.844  0.00  0.00    -0.075 S 
ATOM     12  C14 UNL     1      15.257  -1.147  23.464  0.00  0.00    +0.040 A 
ATOM     13  C15 UNL     1      14.330  -0.211  23.016  0.00  0.00    +0.030 A 
ENDBRANCH   2   5
BRANCH   3  14
ATOM     14  C2  UNL     1      11.254   2.388  21.269  0.00  0.00    +0.129 C 
BRANCH  14  15
ATOM     15  C3  UNL     1      10.186   2.456  22.379  0.00  0.00    +0.115 C 
BRANCH  15  16
ATOM     16  N2  UNL     1       8.957   3.064  21.857  0.00  0.00    -0.307 N 
ATOM     17  C5  UNL     1       8.737   4.481  21.845  0.00  0.00    +0.215 A 
ATOM     18  N3  UNL     1       9.701   5.337  22.283  0.00  0.00    -0.223 NA
ATOM     19  C6  UNL     1       9.502   6.681  22.272  0.00  0.00    +0.116 A 
ATOM     20  C7  UNL     1       8.296   7.201  21.805  0.00  0.00    +0.039 A 
ATOM     21  C8  UNL     1       7.320   6.312  21.358  0.00  0.00    +0.116 A 
ATOM     22  N4  UNL     1       7.557   4.976  21.385  0.00  0.00    -0.223 NA
ATOM     23  H8  UNL     1       8.207   2.451  21.462  0.00  0.00    +0.149 HD
ENDBRANCH  15  16
BRANCH  15  24
ATOM     24  C4  UNL     1       9.882   1.062  22.965  0.00  0.00    +0.179 C 
BRANCH  24  25
ATOM     25  O2  UNL     1       9.623   0.130  21.949  0.00  0.00    -0.393 OA
ATOM     26  H7  UNL     1      10.417   0.128  21.353  0.00  0.00    +0.209 HD
ENDBRANCH  24  25
ENDBRANCH  15  24
ENDBRANCH  14  15
ENDBRANCH   3  14
TORSDOF 6
ENDMDL
MODEL 4
REMARK VINA RESULT:    -5.816     13.090     16.696
REMARK INTER + INTRA:          -8.274
REMARK INTER:                  -7.579
REMARK INTRA:                  -0.695
REMARK UNBOUND:                -0.589
REMARK  Name = /home/qwerty/github/datacon2025hack/step_04_hit_selection/docking/ligands/lig_783.pdb
REMARK  6 active torsions:
REMARK  status: ('A' for Active; 'I' for Inactive)
REMARK    1  A    between atoms: C1_2  and  C9_15
REMARK    2  A    between atoms: N1_3  and  C2_4
REMARK    3  A    between atoms: C2_4  and  C3_5
REMARK    4  A    between atoms: C3_5  and  C4_6
REMARK    5  A    between atoms: C3_5  and  N2_8
REMARK    6  A    between atoms: C4_6  and  O2_7
REMARK                            x       y       z     vdW  Elec       q    Type
REMARK                         _______ _______ _______ _____ _____    ______ ____
ROOT
ATOM      1  O1  UNL     1       8.523   8.941  26.371  0.00  0.00    -0.270 OA
ATOM      2  C1  UNL     1       8.329  10.181  26.245  0.00  0.00    +0.244 C 
ATOM      3  N1  UNL     1       7.569  10.668  25.127  0.00  0.00    -0.310 N 
ATOM      4  H1  UNL     1       7.172  11.634  25.155  0.00  0.00    +0.149 HD
ENDROOT
BRANCH   2   5
ATOM      5  C9  UNL     1       8.874  11.111  27.262  0.00  0.00    +0.038 A 
ATOM      6  C10 UNL     1       8.150  11.398  28.448  0.00  0.00    +0.015 A 
ATOM      7  C11 UNL     1       8.664  12.287  29.407  0.00  0.00    +0.029 A 
ATOM      8  C12 UNL     1       9.899  12.891  29.172  0.00  0.00    +0.078 A 
ATOM      9  N5  UNL     1      10.499  13.766  30.018  0.00  0.00    -0.247 NA
ATOM     10  C13 UNL     1      11.688  14.191  29.523  0.00  0.00    +0.157 A 
ATOM     11  S1  UNL     1      12.029  13.494  28.019  0.00  0.00    -0.075 S 
ATOM     12  C14 UNL     1      10.598  12.618  28.010  0.00  0.00    +0.040 A 
ATOM     13  C15 UNL     1      10.116  11.744  27.041  0.00  0.00    +0.030 A 
ENDBRANCH   2   5
BRANCH   3  14
ATOM     14  C2  UNL     1       7.236   9.827  23.978  0.00  0.00    +0.129 C 
BRANCH  14  15
ATOM     15  C3  UNL     1       7.943  10.323  22.700  0.00  0.00    +0.115 C 
BRANCH  15  16
ATOM     16  N2  UNL     1       7.960   9.259  21.690  0.00  0.00    -0.307 N 
ATOM     17  C5  UNL     1       9.092   8.403  21.485  0.00  0.00    +0.215 A 
ATOM     18  N3  UNL     1      10.200   8.517  22.267  0.00  0.00    -0.223 NA
ATOM     19  C6  UNL     1      11.276   7.708  22.081  0.00  0.00    +0.116 A 
ATOM     20  C7  UNL     1      11.253   6.743  21.076  0.00  0.00    +0.039 A 
ATOM     21  C8  UNL     1      10.111   6.636  20.284  0.00  0.00    +0.116 A 
ATOM     22  N4  UNL     1       9.056   7.464  20.501  0.00  0.00    -0.223 NA
ATOM     23  H8  UNL     1       7.113   9.099  21.098  0.00  0.00    +0.149 HD
ENDBRANCH  15  16
BRANCH  15  24
ATOM     24  C4  UNL     1       7.270  11.588  22.130  0.00  0.00    +0.179 C 
BRANCH  24  25
ATOM     25  O2  UNL     1       6.136  11.940  22.877  0.00  0.00    -0.393 OA
ATOM     26  H7  UNL     1       5.352  11.548  22.410  0.00  0.00    +0.209 HD
ENDBRANCH  24  25
ENDBRANCH  15  24
ENDBRANCH  14  15
ENDBRANCH   3  14
TORSDOF 6
ENDMDL
MODEL 5
REMARK VINA RESULT:    -5.796      9.389     12.096
REMARK INTER + INTRA:          -8.248
REMARK INTER:                  -7.577
REMARK INTRA:                  -0.672
REMARK UNBOUND:                -0.589
REMARK  Name = /home/qwerty/github/datacon2025hack/step_04_hit_selection/docking/ligands/lig_783.pdb
REMARK  6 active torsions:
REMARK  status: ('A' for Active; 'I' for Inactive)
REMARK    1  A    between atoms: C1_2  and  C9_15
REMARK    2  A    between atoms: N1_3  and  C2_4
REMARK    3  A    between atoms: C2_4  and  C3_5
REMARK    4  A    between atoms: C3_5  and  C4_6
REMARK    5  A    between atoms: C3_5  and  N2_8
REMARK    6  A    between atoms: C4_6  and  O2_7
REMARK                            x       y       z     vdW  Elec       q    Type
REMARK                         _______ _______ _______ _____ _____    ______ ____
ROOT
ATOM      1  O1  UNL     1      11.707  14.399  29.632  0.00  0.00    -0.270 OA
ATOM      2  C1  UNL     1      10.850  13.762  30.305  0.00  0.00    +0.244 C 
ATOM      3  N1  UNL     1      10.726  14.013  31.713  0.00  0.00    -0.310 N 
ATOM      4  H1  UNL     1       9.863  13.710  32.218  0.00  0.00    +0.149 HD
ENDROOT
BRANCH   2   5
ATOM      5  C9  UNL     1       9.976  12.777  29.625  0.00  0.00    +0.038 A 
ATOM      6  C10 UNL     1       9.231  13.138  28.473  0.00  0.00    +0.015 A 
ATOM      7  C11 UNL     1       8.396  12.206  27.835  0.00  0.00    +0.029 A 
ATOM      8  C12 UNL     1       8.304  10.916  28.356  0.00  0.00    +0.078 A 
ATOM      9  N5  UNL     1       7.533   9.929  27.833  0.00  0.00    -0.247 NA
ATOM     10  C13 UNL     1       7.643   8.786  28.554  0.00  0.00    +0.157 A 
ATOM     11  S1  UNL     1       8.700   8.966  29.864  0.00  0.00    -0.075 S 
ATOM     12  C14 UNL     1       9.023  10.568  29.485  0.00  0.00    +0.040 A 
ATOM     13  C15 UNL     1       9.858  11.468  30.140  0.00  0.00    +0.030 A 
ENDBRANCH   2   5
BRANCH   3  14
ATOM     14  C2  UNL     1      11.723  14.775  32.465  0.00  0.00    +0.129 C 
BRANCH  14  15
ATOM     15  C3  UNL     1      11.934  14.180  33.872  0.00  0.00    +0.115 C 
BRANCH  15  16
ATOM     16  N2  UNL     1      11.766  12.722  33.832  0.00  0.00    -0.307 N 
ATOM     17  C5  UNL     1      11.495  11.941  35.004  0.00  0.00    +0.215 A 
ATOM     18  N3  UNL     1      11.334  12.538  36.216  0.00  0.00    -0.223 NA
ATOM     19  C6  UNL     1      11.075  11.805  37.330  0.00  0.00    +0.116 A 
ATOM     20  C7  UNL     1      10.969  10.419  37.240  0.00  0.00    +0.039 A 
ATOM     21  C8  UNL     1      11.134   9.820  35.992  0.00  0.00    +0.116 A 
ATOM     22  N4  UNL     1      11.392  10.588  34.902  0.00  0.00    -0.223 NA
ATOM     23  H8  UNL     1      11.829  12.222  32.916  0.00  0.00    +0.149 HD
ENDBRANCH  15  16
BRANCH  15  24
ATOM     24  C4  UNL     1      13.321  14.539  34.443  0.00  0.00    +0.179 C 
BRANCH  24  25
ATOM     25  O2  UNL     1      13.220  15.026  35.754  0.00  0.00    -0.393 OA
ATOM     26  H7  UNL     1      12.259  14.984  36.001  0.00  0.00    +0.209 HD
ENDBRANCH  24  25
ENDBRANCH  15  24
ENDBRANCH  14  15
ENDBRANCH   3  14
TORSDOF 6
ENDMDL
MODEL 6
REMARK VINA RESULT:    -5.713      7.878     11.871
REMARK INTER + INTRA:          -8.139
REMARK INTER:                  -7.413
REMARK INTRA:                  -0.726
REMARK UNBOUND:                -0.589
REMARK  Name = /home/qwerty/github/datacon2025hack/step_04_hit_selection/docking/ligands/lig_783.pdb
REMARK  6 active torsions:
REMARK  status: ('A' for Active; 'I' for Inactive)
REMARK    1  A    between atoms: C1_2  and  C9_15
REMARK    2  A    between atoms: N1_3  and  C2_4
REMARK    3  A    between atoms: C2_4  and  C3_5
REMARK    4  A    between atoms: C3_5  and  C4_6
REMARK    5  A    between atoms: C3_5  and  N2_8
REMARK    6  A    between atoms: C4_6  and  O2_7
REMARK                            x       y       z     vdW  Elec       q    Type
REMARK                         _______ _______ _______ _____ _____    ______ ____
ROOT
ATOM      1  O1  UNL     1      12.420  12.800  31.390  0.00  0.00    -0.270 OA
ATOM      2  C1  UNL     1      11.247  13.232  31.225  0.00  0.00    +0.244 C 
ATOM      3  N1  UNL     1      10.776  14.328  32.026  0.00  0.00    -0.310 N 
ATOM      4  H1  UNL     1       9.934  14.865  31.722  0.00  0.00    +0.149 HD
ENDROOT
BRANCH   2   5
ATOM      5  C9  UNL     1      10.381  12.613  30.193  0.00  0.00    +0.038 A 
ATOM      6  C10 UNL     1       9.840  13.388  29.136  0.00  0.00    +0.015 A 
ATOM      7  C11 UNL     1       9.013  12.801  28.164  0.00  0.00    +0.029 A 
ATOM      8  C12 UNL     1       8.724  11.441  28.257  0.00  0.00    +0.078 A 
ATOM      9  N5  UNL     1       7.938  10.761  27.385  0.00  0.00    -0.247 NA
ATOM     10  C13 UNL     1       7.834   9.454  27.733  0.00  0.00    +0.157 A 
ATOM     11  S1  UNL     1       8.714   9.104  29.136  0.00  0.00    -0.075 S 
ATOM     12  C14 UNL     1       9.243  10.688  29.295  0.00  0.00    +0.040 A 
ATOM     13  C15 UNL     1      10.065  11.239  30.273  0.00  0.00    +0.030 A 
ENDBRANCH   2   5
BRANCH   3  14
ATOM     14  C2  UNL     1      11.490  14.794  33.214  0.00  0.00    +0.129 C 
BRANCH  14  15
ATOM     15  C3  UNL     1      10.943  14.127  34.492  0.00  0.00    +0.115 C 
BRANCH  15  16
ATOM     16  N2  UNL     1      11.924  14.239  35.577  0.00  0.00    -0.307 N 
ATOM     17  C5  UNL     1      12.911  13.231  35.837  0.00  0.00    +0.215 A 
ATOM     18  N3  UNL     1      13.006  12.131  35.042  0.00  0.00    -0.223 NA
ATOM     19  C6  UNL     1      13.939  11.173  35.279  0.00  0.00    +0.116 A 
ATOM     20  C7  UNL     1      14.818  11.310  36.352  0.00  0.00    +0.039 A 
ATOM     21  C8  UNL     1      14.710  12.443  37.157  0.00  0.00    +0.116 A 
ATOM     22  N4  UNL     1      13.764  13.379  36.887  0.00  0.00    -0.223 NA
ATOM     23  H8  UNL     1      11.925  15.090  36.185  0.00  0.00    +0.149 HD
ENDBRANCH  15  16
BRANCH  15  24
ATOM     24  C4  UNL     1       9.598  14.744  34.926  0.00  0.00    +0.179 C 
BRANCH  24  25
ATOM     25  O2  UNL     1       9.188  15.746  34.035  0.00  0.00    -0.393 OA
ATOM     26  H7  UNL     1       9.519  16.608  34.402  0.00  0.00    +0.209 HD
ENDBRANCH  24  25
ENDBRANCH  15  24
ENDBRANCH  14  15
ENDBRANCH   3  14
TORSDOF 6
ENDMDL
MODEL 7
REMARK VINA RESULT:    -5.619     10.779     14.113
REMARK INTER + INTRA:          -8.014
REMARK INTER:                  -7.473
REMARK INTRA:                  -0.541
REMARK UNBOUND:                -0.589
REMARK  Name = /home/qwerty/github/datacon2025hack/step_04_hit_selection/docking/ligands/lig_783.pdb
REMARK  6 active torsions:
REMARK  status: ('A' for Active; 'I' for Inactive)
REMARK    1  A    between atoms: C1_2  and  C9_15
REMARK    2  A    between atoms: N1_3  and  C2_4
REMARK    3  A    between atoms: C2_4  and  C3_5
REMARK    4  A    between atoms: C3_5  and  C4_6
REMARK    5  A    between atoms: C3_5  and  N2_8
REMARK    6  A    between atoms: C4_6  and  O2_7
REMARK                            x       y       z     vdW  Elec       q    Type
REMARK                         _______ _______ _______ _____ _____    ______ ____
ROOT
ATOM      1  O1  UNL     1      21.498   2.835  25.358  0.00  0.00    -0.270 OA
ATOM      2  C1  UNL     1      20.870   1.884  25.900  0.00  0.00    +0.244 C 
ATOM      3  N1  UNL     1      21.273   1.418  27.198  0.00  0.00    -0.310 N 
ATOM      4  H1  UNL     1      20.614   0.839  27.766  0.00  0.00    +0.149 HD
ENDROOT
BRANCH   2   5
ATOM      5  C9  UNL     1      19.718   1.276  25.194  0.00  0.00    +0.038 A 
ATOM      6  C10 UNL     1      18.936   2.037  24.287  0.00  0.00    +0.015 A 
ATOM      7  C11 UNL     1      17.838   1.461  23.625  0.00  0.00    +0.029 A 
ATOM      8  C12 UNL     1      17.522   0.127  23.879  0.00  0.00    +0.078 A 
ATOM      9  N5  UNL     1      16.488  -0.539  23.306  0.00  0.00    -0.247 NA
ATOM     10  C13 UNL     1      16.425  -1.820  23.748  0.00  0.00    +0.157 A 
ATOM     11  S1  UNL     1      17.650  -2.163  24.864  0.00  0.00    -0.075 S 
ATOM     12  C14 UNL     1      18.278  -0.610  24.772  0.00  0.00    +0.040 A 
ATOM     13  C15 UNL     1      19.371  -0.070  25.443  0.00  0.00    +0.030 A 
ENDBRANCH   2   5
BRANCH   3  14
ATOM     14  C2  UNL     1      22.542   1.807  27.812  0.00  0.00    +0.129 C 
BRANCH  14  15
ATOM     15  C3  UNL     1      22.798   1.017  29.111  0.00  0.00    +0.115 C 
BRANCH  15  16
ATOM     16  N2  UNL     1      21.539   0.451  29.611  0.00  0.00    -0.307 N 
ATOM     17  C5  UNL     1      20.953   0.846  30.859  0.00  0.00    +0.215 A 
ATOM     18  N3  UNL     1      21.530   1.815  31.622  0.00  0.00    -0.223 NA
ATOM     19  C6  UNL     1      20.979   2.196  32.804  0.00  0.00    +0.116 A 
ATOM     20  C7  UNL     1      19.805   1.593  33.250  0.00  0.00    +0.039 A 
ATOM     21  C8  UNL     1      19.225   0.603  32.458  0.00  0.00    +0.116 A 
ATOM     22  N4  UNL     1      19.806   0.250  31.282  0.00  0.00    -0.223 NA
ATOM     23  H8  UNL     1      21.031  -0.260  29.037  0.00  0.00    +0.149 HD
ENDBRANCH  15  16
BRANCH  15  24
ATOM     24  C4  UNL     1      23.839  -0.102  28.905  0.00  0.00    +0.179 C 
BRANCH  24  25
ATOM     25  O2  UNL     1      25.127   0.334  29.249  0.00  0.00    -0.393 OA
ATOM     26  H7  UNL     1      25.119   1.326  29.190  0.00  0.00    +0.209 HD
ENDBRANCH  24  25
ENDBRANCH  15  24
ENDBRANCH  14  15
ENDBRANCH   3  14
TORSDOF 6
ENDMDL
MODEL 8
REMARK VINA RESULT:    -5.594      2.071      2.797
REMARK INTER + INTRA:          -7.981
REMARK INTER:                  -7.022
REMARK INTRA:                  -0.959
REMARK UNBOUND:                -0.589
REMARK  Name = /home/qwerty/github/datacon2025hack/step_04_hit_selection/docking/ligands/lig_783.pdb
REMARK  6 active torsions:
REMARK  status: ('A' for Active; 'I' for Inactive)
REMARK    1  A    between atoms: C1_2  and  C9_15
REMARK    2  A    between atoms: N1_3  and  C2_4
REMARK    3  A    between atoms: C2_4  and  C3_5
REMARK    4  A    between atoms: C3_5  and  C4_6
REMARK    5  A    between atoms: C3_5  and  N2_8
REMARK    6  A    between atoms: C4_6  and  O2_7
REMARK                            x       y       z     vdW  Elec       q    Type
REMARK                         _______ _______ _______ _____ _____    ______ ____
ROOT
ATOM      1  O1  UNL     1      18.836   7.009  37.881  0.00  0.00    -0.270 OA
ATOM      2  C1  UNL     1      19.689   7.871  37.536  0.00  0.00    +0.244 C 
ATOM      3  N1  UNL     1      19.461   9.256  37.843  0.00  0.00    -0.310 N 
ATOM      4  H1  UNL     1      20.259   9.929  37.815  0.00  0.00    +0.149 HD
ENDROOT
BRANCH   2   5
ATOM      5  C9  UNL     1      20.920   7.437  36.835  0.00  0.00    +0.038 A 
ATOM      6  C10 UNL     1      22.076   7.053  37.562  0.00  0.00    +0.015 A 
ATOM      7  C11 UNL     1      23.245   6.651  36.896  0.00  0.00    +0.029 A 
ATOM      8  C12 UNL     1      23.257   6.640  35.502  0.00  0.00    +0.078 A 
ATOM      9  N5  UNL     1      24.322   6.274  34.745  0.00  0.00    -0.247 NA
ATOM     10  C13 UNL     1      24.040   6.369  33.422  0.00  0.00    +0.157 A 
ATOM     11  S1  UNL     1      22.459   6.910  33.152  0.00  0.00    -0.075 S 
ATOM     12  C14 UNL     1      22.133   7.025  34.793  0.00  0.00    +0.040 A 
ATOM     13  C15 UNL     1      20.960   7.429  35.423  0.00  0.00    +0.030 A 
ENDBRANCH   2   5
BRANCH   3  14
ATOM     14  C2  UNL     1      18.163   9.756  38.296  0.00  0.00    +0.129 C 
BRANCH  14  15
ATOM     15  C3  UNL     1      17.354  10.348  37.124  0.00  0.00    +0.115 C 
BRANCH  15  16
ATOM     16  N2  UNL     1      18.240  10.610  35.984  0.00  0.00    -0.307 N 
ATOM     17  C5  UNL     1      18.158  11.807  35.197  0.00  0.00    +0.215 A 
ATOM     18  N3  UNL     1      17.268  12.787  35.514  0.00  0.00    -0.223 NA
ATOM     19  C6  UNL     1      17.187  13.925  34.776  0.00  0.00    +0.116 A 
ATOM     20  C7  UNL     1      18.024  14.101  33.677  0.00  0.00    +0.039 A 
ATOM     21  C8  UNL     1      18.932  13.090  33.365  0.00  0.00    +0.116 A 
ATOM     22  N4  UNL     1      18.983  11.968  34.127  0.00  0.00    -0.223 NA
ATOM     23  H8  UNL     1      18.975   9.911  35.732  0.00  0.00    +0.149 HD
ENDBRANCH  15  16
BRANCH  15  24
ATOM     24  C4  UNL     1      16.201   9.418  36.698  0.00  0.00    +0.179 C 
BRANCH  24  25
ATOM     25  O2  UNL     1      16.154   8.268  37.499  0.00  0.00    -0.393 OA
ATOM     26  H7  UNL     1      15.215   8.173  37.810  0.00  0.00    +0.209 HD
ENDBRANCH  24  25
ENDBRANCH  15  24
ENDBRANCH  14  15
ENDBRANCH   3  14
TORSDOF 6
ENDMDL
MODEL 9
REMARK VINA RESULT:    -5.559     12.514     13.989
REMARK INTER + INTRA:          -7.935
REMARK INTER:                  -7.059
REMARK INTRA:                  -0.876
REMARK UNBOUND:                -0.589
REMARK  Name = /home/qwerty/github/datacon2025hack/step_04_hit_selection/docking/ligands/lig_783.pdb
REMARK  6 active torsions:
REMARK  status: ('A' for Active; 'I' for Inactive)
REMARK    1  A    between atoms: C1_2  and  C9_15
REMARK    2  A    between atoms: N1_3  and  C2_4
REMARK    3  A    between atoms: C2_4  and  C3_5
REMARK    4  A    between atoms: C3_5  and  C4_6
REMARK    5  A    between atoms: C3_5  and  N2_8
REMARK    6  A    between atoms: C4_6  and  O2_7
REMARK                            x       y       z     vdW  Elec       q    Type
REMARK                         _______ _______ _______ _____ _____    ______ ____
ROOT
ATOM      1  O1  UNL     1      24.782  15.628  24.448  0.00  0.00    -0.270 OA
ATOM      2  C1  UNL     1      23.846  14.835  24.740  0.00  0.00    +0.244 C 
ATOM      3  N1  UNL     1      23.334  13.943  23.737  0.00  0.00    -0.310 N 
ATOM      4  H1  UNL     1      22.770  13.113  24.024  0.00  0.00    +0.149 HD
ENDROOT
BRANCH   2   5
ATOM      5  C9  UNL     1      23.303  14.825  26.119  0.00  0.00    +0.038 A 
ATOM      6  C10 UNL     1      23.681  13.817  27.043  0.00  0.00    +0.015 A 
ATOM      7  C11 UNL     1      23.158  13.805  28.347  0.00  0.00    +0.029 A 
ATOM      8  C12 UNL     1      22.253  14.798  28.720  0.00  0.00    +0.078 A 
ATOM      9  N5  UNL     1      21.679  14.892  29.947  0.00  0.00    -0.247 NA
ATOM     10  C13 UNL     1      20.840  15.955  30.015  0.00  0.00    +0.157 A 
ATOM     11  S1  UNL     1      20.785  16.810  28.554  0.00  0.00    -0.075 S 
ATOM     12  C14 UNL     1      21.878  15.774  27.815  0.00  0.00    +0.040 A 
ATOM     13  C15 UNL     1      22.376  15.814  26.517  0.00  0.00    +0.030 A 
ENDBRANCH   2   5
BRANCH   3  14
ATOM     14  C2  UNL     1      23.654  14.093  22.317  0.00  0.00    +0.129 C 
BRANCH  14  15
ATOM     15  C3  UNL     1      22.475  14.713  21.542  0.00  0.00    +0.115 C 
BRANCH  15  16
ATOM     16  N2  UNL     1      21.224  14.036  21.903  0.00  0.00    -0.307 N 
ATOM     17  C5  UNL     1      20.473  13.245  20.971  0.00  0.00    +0.215 A 
ATOM     18  N3  UNL     1      20.926  13.050  19.703  0.00  0.00    -0.223 NA
ATOM     19  C6  UNL     1      20.223  12.301  18.815  0.00  0.00    +0.116 A 
ATOM     20  C7  UNL     1      19.018  11.716  19.200  0.00  0.00    +0.039 A 
ATOM     21  C8  UNL     1      18.567  11.923  20.503  0.00  0.00    +0.116 A 
ATOM     22  N4  UNL     1      19.300  12.679  21.361  0.00  0.00    -0.223 NA
ATOM     23  H8  UNL     1      20.861  14.114  22.880  0.00  0.00    +0.149 HD
ENDBRANCH  15  16
BRANCH  15  24
ATOM     24  C4  UNL     1      22.354  16.228  21.802  0.00  0.00    +0.179 C 
BRANCH  24  25
ATOM     25  O2  UNL     1      23.612  16.808  22.020  0.00  0.00    -0.393 OA
ATOM     26  H7  UNL     1      23.708  16.923  23.002  0.00  0.00    +0.209 HD
ENDBRANCH  24  25
ENDBRANCH  15  24
ENDBRANCH  14  15
ENDBRANCH   3  14
TORSDOF 6
ENDMDL
