REMARK  Name = /home/qwerty/github/datacon2025hack/step_04_hit_selection/docking/ligands/lig_634.pdb
REMARK  7 active torsions:
REMARK  status: ('A' for Active; 'I' for Inactive)
REMARK    1  A    between atoms: C1_1  and  N1_2
REMARK    2  A    between atoms: N1_2  and  C2_3
REMARK    3  A    between atoms: C2_3  and  C3_4
REMARK    4  A    between atoms: N3_7  and  C5_8
REMARK    5  A    between atoms: N4_17  and  C13_18
REMARK    6  A    between atoms: C15_20  and  C16_21
REMARK    7  A    between atoms: N6_24  and  C18_25
REMARK                            x       y       z     vdW  Elec       q    Type
REMARK                         _______ _______ _______ _____ _____    ______ ____
ROOT
ATOM      1  C1  UNL     1       0.141   2.131  -2.253  0.00  0.00    +0.134 C 
ATOM      2  N1  UNL     1      -0.187   1.439  -1.003  0.00  0.00    -0.284 N 
ATOM      3  C12 UNL     1      -1.052   0.284  -1.045  0.00  0.00    +0.308 C 
ATOM      4  O1  UNL     1      -1.602  -0.044  -2.133  0.00  0.00    -0.252 OA
ATOM      5  N4  UNL     1      -1.286  -0.507   0.129  0.00  0.00    -0.255 N 
ATOM      6  H13 UNL     1      -0.527  -0.595   0.839  0.00  0.00    +0.158 HD
ENDROOT
BRANCH   5   7
ATOM      7  C13 UNL     1      -2.405  -1.395   0.246  0.00  0.00    +0.108 A 
ATOM      8  C14 UNL     1      -2.294  -2.725   0.595  0.00  0.00    +0.062 A 
ATOM      9  C15 UNL     1      -3.573  -3.231   0.510  0.00  0.00    +0.071 A 
ATOM     10  C17 UNL     1      -4.409  -2.200   0.134  0.00  0.00    +0.106 A 
ATOM     11  N6  UNL     1      -3.699  -1.055   0.014  0.00  0.00    -0.331 N 
BRANCH  11  12
ATOM     12  C18 UNL     1      -4.225   0.251  -0.424  0.00  0.00    +0.088 C 
ATOM     13  C19 UNL     1      -5.645   0.555   0.069  0.00  0.00    +0.025 C 
ATOM     14  C20 UNL     1      -5.122   1.752   0.848  0.00  0.00    +0.004 C 
ATOM     15  C21 UNL     1      -3.705   1.429   0.404  0.00  0.00    +0.025 C 
ENDBRANCH  11  12
BRANCH   9  16
ATOM     16  C16 UNL     1      -3.959  -4.597   0.729  0.00  0.00    +0.101 C 
ATOM     17  N5  UNL     1      -4.269  -5.698   0.905  0.00  0.00    -0.191 NA
ENDBRANCH   9  16
ENDBRANCH   5   7
BRANCH   2  18
ATOM     18  C2  UNL     1       0.339   1.948   0.271  0.00  0.00    +0.147 C 
BRANCH  18  19
ATOM     19  C3  UNL     1       1.575   1.200   0.667  0.00  0.00    +0.008 A 
ATOM     20  C4  UNL     1       1.861   0.660   1.904  0.00  0.00    +0.140 A 
ATOM     21  N2  UNL     1       3.088   0.107   1.869  0.00  0.00    -0.174 NA
ATOM     22  N3  UNL     1       3.590   0.291   0.654  0.00  0.00    -0.240 N 
ATOM     23  C11 UNL     1       2.693   0.960  -0.103  0.00  0.00    +0.119 A 
BRANCH  22  24
ATOM     24  C5  UNL     1       4.894  -0.178   0.253  0.00  0.00    +0.065 A 
ATOM     25  C6  UNL     1       5.609  -1.063   1.084  0.00  0.00    +0.028 A 
ATOM     26  C7  UNL     1       6.874  -1.525   0.709  0.00  0.00    +0.002 A 
ATOM     27  C8  UNL     1       7.444  -1.109  -0.495  0.00  0.00    +0.000 A 
ATOM     28  C9  UNL     1       6.750  -0.228  -1.327  0.00  0.00    +0.002 A 
ATOM     29  C10 UNL     1       5.484   0.238  -0.958  0.00  0.00    +0.028 A 
ENDBRANCH  22  24
ENDBRANCH  18  19
ENDBRANCH   2  18
TORSDOF 6
