MODEL 1
REMARK VINA RESULT:    -6.648      0.000      0.000
REMARK INTER + INTRA:          -8.112
REMARK INTER:                  -7.813
REMARK INTRA:                  -0.299
REMARK UNBOUND:                -0.299
REMARK  Name = /home/qwerty/github/datacon2025hack/step_04_hit_selection/docking/ligands/lig_422.pdb
REMARK  4 active torsions:
REMARK  status: ('A' for Active; 'I' for Inactive)
REMARK    1  A    between atoms: C1_1  and  N1_2
REMARK    2  A    between atoms: C3_4  and  C4_5
REMARK    3  A    between atoms: C7_10  and  N3_11
REMARK    4  A    between atoms: C8_12  and  C9_14
REMARK                            x       y       z     vdW  Elec       q    Type
REMARK                         _______ _______ _______ _____ _____    ______ ____
ROOT
ATOM      1  N3  UNL     1      20.137   9.222  36.908  0.00  0.00    -0.307 N 
ATOM      2  C8  UNL     1      21.189   9.497  35.970  0.00  0.00    +0.244 C 
ATOM      3  O2  UNL     1      21.309  10.659  35.491  0.00  0.00    -0.270 OA
ATOM      4  H10 UNL     1      20.184   8.346  37.474  0.00  0.00    +0.149 HD
ENDROOT
BRANCH   2   5
ATOM      5  C9  UNL     1      22.150   8.443  35.564  0.00  0.00    +0.037 A 
ATOM      6  C10 UNL     1      22.444   7.374  36.453  0.00  0.00    +0.015 A 
ATOM      7  C11 UNL     1      23.358   6.367  36.095  0.00  0.00    +0.027 A 
ATOM      8  C12 UNL     1      23.969   6.456  34.848  0.00  0.00    +0.046 A 
ATOM      9  N4  UNL     1      24.869   5.613  34.317  0.00  0.00    -0.361 N 
ATOM     10  C13 UNL     1      25.178   6.119  33.102  0.00  0.00    +0.083 A 
ATOM     11  C14 UNL     1      24.468   7.291  32.860  0.00  0.00    +0.027 A 
ATOM     12  C15 UNL     1      23.702   7.486  33.988  0.00  0.00    +0.000 A 
ATOM     13  C16 UNL     1      22.803   8.501  34.309  0.00  0.00    +0.023 A 
ATOM     14  H13 UNL     1      25.257   4.745  34.752  0.00  0.00    +0.165 HD
ENDBRANCH   2   5
BRANCH   1  20
ATOM     15  C4  UNL     1      15.721  10.910  35.614  0.00  0.00    +0.268 C 
ATOM     16  O1  UNL     1      15.892  10.946  34.365  0.00  0.00    -0.268 OA
ATOM     17  N2  UNL     1      16.836  10.572  36.463  0.00  0.00    -0.294 N 
ATOM     18  C5  UNL     1      16.750  10.281  37.886  0.00  0.00    +0.110 C 
ATOM     19  C6  UNL     1      18.112   9.721  38.273  0.00  0.00    +0.043 C 
ATOM     20  C7  UNL     1      19.068  10.192  37.172  0.00  0.00    +0.092 C 
ATOM     21  C17 UNL     1      18.184  10.404  35.946  0.00  0.00    +0.130 C 
BRANCH  15  25
ATOM     22  C1  UNL     1      11.003  10.529  37.175  0.00  0.00    +0.174 C 
ATOM     23  N1  UNL     1      12.330  11.032  36.852  0.00  0.00    -0.254 N 
ATOM     24  C2  UNL     1      13.368  10.317  36.392  0.00  0.00    +0.143 A 
ATOM     25  C3  UNL     1      14.381  11.223  36.150  0.00  0.00    +0.167 A 
ATOM     26  N5  UNL     1      13.920  12.456  36.451  0.00  0.00    -0.125 NA
ATOM     27  N6  UNL     1      12.671  12.310  36.869  0.00  0.00    -0.065 NA
ENDBRANCH  15  25
ENDBRANCH   1  20
TORSDOF 3
ENDMDL
MODEL 2
REMARK VINA RESULT:    -6.542      2.156      2.357
REMARK INTER + INTRA:          -7.988
REMARK INTER:                  -7.582
REMARK INTRA:                  -0.406
REMARK UNBOUND:                -0.299
REMARK  Name = /home/qwerty/github/datacon2025hack/step_04_hit_selection/docking/ligands/lig_422.pdb
REMARK  4 active torsions:
REMARK  status: ('A' for Active; 'I' for Inactive)
REMARK    1  A    between atoms: C1_1  and  N1_2
REMARK    2  A    between atoms: C3_4  and  C4_5
REMARK    3  A    between atoms: C7_10  and  N3_11
REMARK    4  A    between atoms: C8_12  and  C9_14
REMARK                            x       y       z     vdW  Elec       q    Type
REMARK                         _______ _______ _______ _____ _____    ______ ____
ROOT
ATOM      1  N3  UNL     1      20.096   9.726  35.682  0.00  0.00    -0.307 N 
ATOM      2  C8  UNL     1      20.775   8.729  36.462  0.00  0.00    +0.244 C 
ATOM      3  O2  UNL     1      20.399   8.501  37.644  0.00  0.00    -0.270 OA
ATOM      4  H10 UNL     1      20.246   9.746  34.649  0.00  0.00    +0.149 HD
ENDROOT
BRANCH   2   5
ATOM      5  C9  UNL     1      21.902   7.950  35.895  0.00  0.00    +0.037 A 
ATOM      6  C10 UNL     1      22.452   6.865  36.630  0.00  0.00    +0.015 A 
ATOM      7  C11 UNL     1      23.527   6.116  36.117  0.00  0.00    +0.027 A 
ATOM      8  C12 UNL     1      24.037   6.477  34.874  0.00  0.00    +0.046 A 
ATOM      9  N4  UNL     1      25.056   5.905  34.212  0.00  0.00    -0.361 N 
ATOM     10  C13 UNL     1      25.189   6.605  33.063  0.00  0.00    +0.083 A 
ATOM     11  C14 UNL     1      24.249   7.628  32.996  0.00  0.00    +0.027 A 
ATOM     12  C15 UNL     1      23.522   7.526  34.163  0.00  0.00    +0.000 A 
ATOM     13  C16 UNL     1      22.459   8.289  34.638  0.00  0.00    +0.023 A 
ATOM     14  H13 UNL     1      25.632   5.089  34.520  0.00  0.00    +0.165 HD
ENDBRANCH   2   5
BRANCH   1  20
ATOM     15  C4  UNL     1      17.099  13.547  35.013  0.00  0.00    +0.268 C 
ATOM     16  O1  UNL     1      17.888  14.296  34.376  0.00  0.00    -0.268 OA
ATOM     17  N2  UNL     1      17.593  12.303  35.548  0.00  0.00    -0.294 N 
ATOM     18  C5  UNL     1      16.770  11.245  36.111  0.00  0.00    +0.110 C 
ATOM     19  C6  UNL     1      17.698  10.048  36.280  0.00  0.00    +0.043 C 
ATOM     20  C7  UNL     1      19.113  10.635  36.283  0.00  0.00    +0.092 C 
ATOM     21  C17 UNL     1      19.000  11.941  35.500  0.00  0.00    +0.130 C 
BRANCH  15  25
ATOM     22  C1  UNL     1      12.205  14.240  34.363  0.00  0.00    +0.174 C 
ATOM     23  N1  UNL     1      13.558  14.255  34.901  0.00  0.00    -0.254 N 
ATOM     24  C2  UNL     1      14.625  13.610  34.404  0.00  0.00    +0.143 A 
ATOM     25  C3  UNL     1      15.699  13.985  35.186  0.00  0.00    +0.167 A 
ATOM     26  N5  UNL     1      15.254  14.856  36.117  0.00  0.00    -0.125 NA
ATOM     27  N6  UNL     1      13.953  15.006  35.916  0.00  0.00    -0.065 NA
ENDBRANCH  15  25
ENDBRANCH   1  20
TORSDOF 3
ENDMDL
MODEL 3
REMARK VINA RESULT:    -6.522      9.956     13.201
REMARK INTER + INTRA:          -7.964
REMARK INTER:                  -7.530
REMARK INTRA:                  -0.434
REMARK UNBOUND:                -0.299
REMARK  Name = /home/qwerty/github/datacon2025hack/step_04_hit_selection/docking/ligands/lig_422.pdb
REMARK  4 active torsions:
REMARK  status: ('A' for Active; 'I' for Inactive)
REMARK    1  A    between atoms: C1_1  and  N1_2
REMARK    2  A    between atoms: C3_4  and  C4_5
REMARK    3  A    between atoms: C7_10  and  N3_11
REMARK    4  A    between atoms: C8_12  and  C9_14
REMARK                            x       y       z     vdW  Elec       q    Type
REMARK                         _______ _______ _______ _____ _____    ______ ____
ROOT
ATOM      1  N3  UNL     1      21.617   3.140  27.519  0.00  0.00    -0.307 N 
ATOM      2  C8  UNL     1      22.284   2.201  28.376  0.00  0.00    +0.244 C 
ATOM      3  O2  UNL     1      23.351   1.651  27.986  0.00  0.00    -0.270 OA
ATOM      4  H10 UNL     1      20.884   3.762  27.927  0.00  0.00    +0.149 HD
ENDROOT
BRANCH   2   5
ATOM      5  C9  UNL     1      21.751   1.877  29.721  0.00  0.00    +0.037 A 
ATOM      6  C10 UNL     1      21.023   0.673  29.923  0.00  0.00    +0.015 A 
ATOM      7  C11 UNL     1      20.500   0.349  31.187  0.00  0.00    +0.027 A 
ATOM      8  C12 UNL     1      20.711   1.246  32.230  0.00  0.00    +0.046 A 
ATOM      9  N4  UNL     1      20.293   1.134  33.501  0.00  0.00    -0.361 N 
ATOM     10  C13 UNL     1      20.725   2.250  34.131  0.00  0.00    +0.083 A 
ATOM     11  C14 UNL     1      21.421   3.075  33.253  0.00  0.00    +0.027 A 
ATOM     12  C15 UNL     1      21.400   2.413  32.044  0.00  0.00    +0.000 A 
ATOM     13  C16 UNL     1      21.932   2.768  30.808  0.00  0.00    +0.023 A 
ATOM     14  H13 UNL     1      19.745   0.350  33.920  0.00  0.00    +0.165 HD
ENDBRANCH   2   5
BRANCH   1  20
ATOM     15  C4  UNL     1      20.178   4.075  22.927  0.00  0.00    +0.268 C 
ATOM     16  O1  UNL     1      19.186   3.299  22.879  0.00  0.00    -0.268 OA
ATOM     17  N2  UNL     1      21.024   4.058  24.095  0.00  0.00    -0.294 N 
ATOM     18  C5  UNL     1      22.064   5.030  24.391  0.00  0.00    +0.110 C 
ATOM     19  C6  UNL     1      22.480   4.759  25.832  0.00  0.00    +0.043 C 
ATOM     20  C7  UNL     1      22.020   3.326  26.120  0.00  0.00    +0.092 C 
ATOM     21  C17 UNL     1      20.856   3.085  25.162  0.00  0.00    +0.130 C 
BRANCH  15  25
ATOM     22  C1  UNL     1      19.767   7.674  19.503  0.00  0.00    +0.174 C 
ATOM     23  N1  UNL     1      20.249   6.559  20.305  0.00  0.00    -0.254 N 
ATOM     24  C2  UNL     1      19.675   6.061  21.412  0.00  0.00    +0.143 A 
ATOM     25  C3  UNL     1      20.431   4.965  21.776  0.00  0.00    +0.167 A 
ATOM     26  N5  UNL     1      21.423   4.822  20.872  0.00  0.00    -0.125 NA
ATOM     27  N6  UNL     1      21.285   5.800  19.988  0.00  0.00    -0.065 NA
ENDBRANCH  15  25
ENDBRANCH   1  20
TORSDOF 3
ENDMDL
MODEL 4
REMARK VINA RESULT:    -6.520     11.506     13.889
REMARK INTER + INTRA:          -7.963
REMARK INTER:                  -7.643
REMARK INTRA:                  -0.320
REMARK UNBOUND:                -0.299
REMARK  Name = /home/qwerty/github/datacon2025hack/step_04_hit_selection/docking/ligands/lig_422.pdb
REMARK  4 active torsions:
REMARK  status: ('A' for Active; 'I' for Inactive)
REMARK    1  A    between atoms: C1_1  and  N1_2
REMARK    2  A    between atoms: C3_4  and  C4_5
REMARK    3  A    between atoms: C7_10  and  N3_11
REMARK    4  A    between atoms: C8_12  and  C9_14
REMARK                            x       y       z     vdW  Elec       q    Type
REMARK                         _______ _______ _______ _____ _____    ______ ____
ROOT
ATOM      1  N3  UNL     1      20.277   1.599  27.420  0.00  0.00    -0.307 N 
ATOM      2  C8  UNL     1      21.174   0.946  28.332  0.00  0.00    +0.244 C 
ATOM      3  O2  UNL     1      22.014   0.115  27.891  0.00  0.00    -0.270 OA
ATOM      4  H10 UNL     1      19.757   2.444  27.743  0.00  0.00    +0.149 HD
ENDROOT
BRANCH   2   5
ATOM      5  C9  UNL     1      21.142   1.245  29.784  0.00  0.00    +0.037 A 
ATOM      6  C10 UNL     1      20.413   0.402  30.664  0.00  0.00    +0.015 A 
ATOM      7  C11 UNL     1      20.360   0.670  32.044  0.00  0.00    +0.027 A 
ATOM      8  C12 UNL     1      21.039   1.790  32.516  0.00  0.00    +0.046 A 
ATOM      9  N4  UNL     1      21.110   2.227  33.784  0.00  0.00    -0.361 N 
ATOM     10  C13 UNL     1      21.864   3.349  33.745  0.00  0.00    +0.083 A 
ATOM     11  C14 UNL     1      22.273   3.625  32.444  0.00  0.00    +0.027 A 
ATOM     12  C15 UNL     1      21.735   2.615  31.676  0.00  0.00    +0.000 A 
ATOM     13  C16 UNL     1      21.809   2.381  30.305  0.00  0.00    +0.023 A 
ATOM     14  H13 UNL     1      20.673   1.795  34.628  0.00  0.00    +0.165 HD
ENDBRANCH   2   5
BRANCH   1  20
ATOM     15  C4  UNL     1      17.528  -0.604  24.012  0.00  0.00    +0.268 C 
ATOM     16  O1  UNL     1      17.161  -1.606  24.683  0.00  0.00    -0.268 OA
ATOM     17  N2  UNL     1      18.484   0.310  24.583  0.00  0.00    -0.294 N 
ATOM     18  C5  UNL     1      18.838   1.608  24.031  0.00  0.00    +0.110 C 
ATOM     19  C6  UNL     1      19.659   2.303  25.110  0.00  0.00    +0.043 C 
ATOM     20  C7  UNL     1      20.163   1.177  26.019  0.00  0.00    +0.092 C 
ATOM     21  C17 UNL     1      19.147   0.050  25.850  0.00  0.00    +0.130 C 
BRANCH  15  25
ATOM     22  C1  UNL     1      14.845   1.068  20.157  0.00  0.00    +0.174 C 
ATOM     23  N1  UNL     1      15.799   0.344  20.984  0.00  0.00    -0.254 N 
ATOM     24  C2  UNL     1      16.057   0.556  22.284  0.00  0.00    +0.143 A 
ATOM     25  C3  UNL     1      16.959  -0.418  22.661  0.00  0.00    +0.167 A 
ATOM     26  N5  UNL     1      17.205  -1.198  21.587  0.00  0.00    -0.125 NA
ATOM     27  N6  UNL     1      16.483  -0.716  20.586  0.00  0.00    -0.065 NA
ENDBRANCH  15  25
ENDBRANCH   1  20
TORSDOF 3
ENDMDL
MODEL 5
REMARK VINA RESULT:    -6.517      8.533     10.350
REMARK INTER + INTRA:          -7.959
REMARK INTER:                  -7.523
REMARK INTRA:                  -0.436
REMARK UNBOUND:                -0.299
REMARK  Name = /home/qwerty/github/datacon2025hack/step_04_hit_selection/docking/ligands/lig_422.pdb
REMARK  4 active torsions:
REMARK  status: ('A' for Active; 'I' for Inactive)
REMARK    1  A    between atoms: C1_1  and  N1_2
REMARK    2  A    between atoms: C3_4  and  C4_5
REMARK    3  A    between atoms: C7_10  and  N3_11
REMARK    4  A    between atoms: C8_12  and  C9_14
REMARK                            x       y       z     vdW  Elec       q    Type
REMARK                         _______ _______ _______ _____ _____    ______ ____
ROOT
ATOM      1  N3  UNL     1      19.892   1.226  30.358  0.00  0.00    -0.307 N 
ATOM      2  C8  UNL     1      20.994   0.796  29.542  0.00  0.00    +0.244 C 
ATOM      3  O2  UNL     1      21.774  -0.097  29.971  0.00  0.00    -0.270 OA
ATOM      4  H10 UNL     1      19.124   1.778  29.916  0.00  0.00    +0.149 HD
ENDROOT
BRANCH   2   5
ATOM      5  C9  UNL     1      21.221   1.373  28.195  0.00  0.00    +0.037 A 
ATOM      6  C10 UNL     1      22.313   2.256  27.979  0.00  0.00    +0.015 A 
ATOM      7  C11 UNL     1      22.544   2.823  26.713  0.00  0.00    +0.027 A 
ATOM      8  C12 UNL     1      21.666   2.498  25.684  0.00  0.00    +0.046 A 
ATOM      9  N4  UNL     1      21.700   2.931  24.413  0.00  0.00    -0.361 N 
ATOM     10  C13 UNL     1      20.642   2.356  23.799  0.00  0.00    +0.083 A 
ATOM     11  C14 UNL     1      19.932   1.553  24.685  0.00  0.00    +0.027 A 
ATOM     12  C15 UNL     1      20.605   1.658  25.883  0.00  0.00    +0.000 A 
ATOM     13  C16 UNL     1      20.345   1.078  27.122  0.00  0.00    +0.023 A 
ATOM     14  H13 UNL     1      22.397   3.581  23.985  0.00  0.00    +0.165 HD
ENDBRANCH   2   5
BRANCH   1  20
ATOM     15  C4  UNL     1      18.673   2.523  34.924  0.00  0.00    +0.268 C 
ATOM     16  O1  UNL     1      19.263   3.636  34.969  0.00  0.00    -0.268 OA
ATOM     17  N2  UNL     1      18.848   1.682  33.767  0.00  0.00    -0.294 N 
ATOM     18  C5  UNL     1      18.076   0.485  33.473  0.00  0.00    +0.110 C 
ATOM     19  C6  UNL     1      18.430   0.110  32.040  0.00  0.00    +0.043 C 
ATOM     20  C7  UNL     1      19.764   0.809  31.759  0.00  0.00    +0.092 C 
ATOM     21  C17 UNL     1      19.789   2.006  32.707  0.00  0.00    +0.130 C 
BRANCH  15  25
ATOM     22  C1  UNL     1      15.012   2.323  38.303  0.00  0.00    +0.174 C 
ATOM     23  N1  UNL     1      16.207   2.041  37.521  0.00  0.00    -0.254 N 
ATOM     24  C2  UNL     1      16.608   2.678  36.410  0.00  0.00    +0.143 A 
ATOM     25  C3  UNL     1      17.828   2.129  36.071  0.00  0.00    +0.167 A 
ATOM     26  N5  UNL     1      18.137   1.194  36.994  0.00  0.00    -0.125 NA
ATOM     27  N6  UNL     1      17.138   1.166  37.865  0.00  0.00    -0.065 NA
ENDBRANCH  15  25
ENDBRANCH   1  20
TORSDOF 3
ENDMDL
MODEL 6
REMARK VINA RESULT:    -6.453     10.637     13.756
REMARK INTER + INTRA:          -7.884
REMARK INTER:                  -7.402
REMARK INTRA:                  -0.482
REMARK UNBOUND:                -0.299
REMARK  Name = /home/qwerty/github/datacon2025hack/step_04_hit_selection/docking/ligands/lig_422.pdb
REMARK  4 active torsions:
REMARK  status: ('A' for Active; 'I' for Inactive)
REMARK    1  A    between atoms: C1_1  and  N1_2
REMARK    2  A    between atoms: C3_4  and  C4_5
REMARK    3  A    between atoms: C7_10  and  N3_11
REMARK    4  A    between atoms: C8_12  and  C9_14
REMARK                            x       y       z     vdW  Elec       q    Type
REMARK                         _______ _______ _______ _____ _____    ______ ____
ROOT
ATOM      1  N3  UNL     1      21.631   4.629  24.455  0.00  0.00    -0.307 N 
ATOM      2  C8  UNL     1      21.032   4.757  23.156  0.00  0.00    +0.244 C 
ATOM      3  O2  UNL     1      19.891   4.262  22.945  0.00  0.00    -0.270 OA
ATOM      4  H10 UNL     1      22.449   5.232  24.695  0.00  0.00    +0.149 HD
ENDROOT
BRANCH   2   5
ATOM      5  C9  UNL     1      21.725   5.477  22.061  0.00  0.00    +0.037 A 
ATOM      6  C10 UNL     1      21.367   5.223  20.709  0.00  0.00    +0.015 A 
ATOM      7  C11 UNL     1      22.016   5.887  19.653  0.00  0.00    +0.027 A 
ATOM      8  C12 UNL     1      23.022   6.794  19.973  0.00  0.00    +0.046 A 
ATOM      9  N4  UNL     1      23.766   7.522  19.125  0.00  0.00    -0.361 N 
ATOM     10  C13 UNL     1      24.612   8.239  19.899  0.00  0.00    +0.083 A 
ATOM     11  C14 UNL     1      24.403   7.964  21.246  0.00  0.00    +0.027 A 
ATOM     12  C15 UNL     1      23.382   7.038  21.270  0.00  0.00    +0.000 A 
ATOM     13  C16 UNL     1      22.763   6.400  22.341  0.00  0.00    +0.023 A 
ATOM     14  H13 UNL     1      23.709   7.532  18.082  0.00  0.00    +0.165 HD
ENDBRANCH   2   5
BRANCH   1  20
ATOM     15  C4  UNL     1      22.404   2.053  28.554  0.00  0.00    +0.268 C 
ATOM     16  O1  UNL     1      23.481   1.489  28.222  0.00  0.00    -0.268 OA
ATOM     17  N2  UNL     1      21.705   2.856  27.581  0.00  0.00    -0.294 N 
ATOM     18  C5  UNL     1      20.581   3.733  27.868  0.00  0.00    +0.110 C 
ATOM     19  C6  UNL     1      20.371   4.558  26.605  0.00  0.00    +0.043 C 
ATOM     20  C7  UNL     1      21.052   3.761  25.487  0.00  0.00    +0.092 C 
ATOM     21  C17 UNL     1      22.122   2.930  26.191  0.00  0.00    +0.130 C 
BRANCH  15  25
ATOM     22  C1  UNL     1      19.987   0.298  32.545  0.00  0.00    +0.174 C 
ATOM     23  N1  UNL     1      20.861   1.062  31.666  0.00  0.00    -0.254 N 
ATOM     24  C2  UNL     1      21.078   0.840  30.360  0.00  0.00    +0.143 A 
ATOM     25  C3  UNL     1      21.904   1.859  29.930  0.00  0.00    +0.167 A 
ATOM     26  N5  UNL     1      22.145   2.674  30.979  0.00  0.00    -0.125 NA
ATOM     27  N6  UNL     1      21.495   2.169  32.018  0.00  0.00    -0.065 NA
ENDBRANCH  15  25
ENDBRANCH   1  20
TORSDOF 3
ENDMDL
MODEL 7
REMARK VINA RESULT:    -6.408     16.160     16.839
REMARK INTER + INTRA:          -7.830
REMARK INTER:                  -7.393
REMARK INTRA:                  -0.437
REMARK UNBOUND:                -0.299
REMARK  Name = /home/qwerty/github/datacon2025hack/step_04_hit_selection/docking/ligands/lig_422.pdb
REMARK  4 active torsions:
REMARK  status: ('A' for Active; 'I' for Inactive)
REMARK    1  A    between atoms: C1_1  and  N1_2
REMARK    2  A    between atoms: C3_4  and  C4_5
REMARK    3  A    between atoms: C7_10  and  N3_11
REMARK    4  A    between atoms: C8_12  and  C9_14
REMARK                            x       y       z     vdW  Elec       q    Type
REMARK                         _______ _______ _______ _____ _____    ______ ____
ROOT
ATOM      1  N3  UNL     1      13.256   1.716  21.972  0.00  0.00    -0.307 N 
ATOM      2  C8  UNL     1      14.253   1.033  21.197  0.00  0.00    +0.244 C 
ATOM      3  O2  UNL     1      14.367   1.287  19.966  0.00  0.00    -0.270 OA
ATOM      4  H10 UNL     1      13.319   1.685  23.014  0.00  0.00    +0.149 HD
ENDROOT
BRANCH   2   5
ATOM      5  C9  UNL     1      15.165   0.044  21.822  0.00  0.00    +0.037 A 
ATOM      6  C10 UNL     1      16.388  -0.293  21.182  0.00  0.00    +0.015 A 
ATOM      7  C11 UNL     1      17.264  -1.235  21.750  0.00  0.00    +0.027 A 
ATOM      8  C12 UNL     1      16.892  -1.828  22.953  0.00  0.00    +0.046 A 
ATOM      9  N4  UNL     1      17.573  -2.749  23.654  0.00  0.00    -0.361 N 
ATOM     10  C13 UNL     1      16.810  -3.028  24.735  0.00  0.00    +0.083 A 
ATOM     11  C14 UNL     1      15.638  -2.279  24.719  0.00  0.00    +0.027 A 
ATOM     12  C15 UNL     1      15.712  -1.519  23.572  0.00  0.00    +0.000 A 
ATOM     13  C16 UNL     1      14.820  -0.593  23.039  0.00  0.00    +0.023 A 
ATOM     14  H13 UNL     1      18.500  -3.169  23.416  0.00  0.00    +0.165 HD
ENDBRANCH   2   5
BRANCH   1  20
ATOM     15  C4  UNL     1       9.242   4.459  22.602  0.00  0.00    +0.268 C 
ATOM     16  O1  UNL     1       8.610   3.693  23.378  0.00  0.00    -0.268 OA
ATOM     17  N2  UNL     1      10.485   4.006  22.030  0.00  0.00    -0.294 N 
ATOM     18  C5  UNL     1      11.427   4.840  21.300  0.00  0.00    +0.110 C 
ATOM     19  C6  UNL     1      12.686   3.996  21.142  0.00  0.00    +0.043 C 
ATOM     20  C7  UNL     1      12.226   2.548  21.339  0.00  0.00    +0.092 C 
ATOM     21  C17 UNL     1      10.971   2.647  22.204  0.00  0.00    +0.130 C 
BRANCH  15  25
ATOM     22  C1  UNL     1       7.938   9.260  22.921  0.00  0.00    +0.174 C 
ATOM     23  N1  UNL     1       8.136   7.895  22.455  0.00  0.00    -0.254 N 
ATOM     24  C2  UNL     1       8.835   6.930  23.073  0.00  0.00    +0.143 A 
ATOM     25  C3  UNL     1       8.673   5.791  22.311  0.00  0.00    +0.167 A 
ATOM     26  N5  UNL     1       7.868   6.094  21.271  0.00  0.00    -0.125 NA
ATOM     27  N6  UNL     1       7.553   7.376  21.387  0.00  0.00    -0.065 NA
ENDBRANCH  15  25
ENDBRANCH   1  20
TORSDOF 3
ENDMDL
MODEL 8
REMARK VINA RESULT:    -6.123      5.198      9.895
REMARK INTER + INTRA:          -7.496
REMARK INTER:                  -7.095
REMARK INTRA:                  -0.401
REMARK UNBOUND:                -0.299
REMARK  Name = /home/qwerty/github/datacon2025hack/step_04_hit_selection/docking/ligands/lig_422.pdb
REMARK  4 active torsions:
REMARK  status: ('A' for Active; 'I' for Inactive)
REMARK    1  A    between atoms: C1_1  and  N1_2
REMARK    2  A    between atoms: C3_4  and  C4_5
REMARK    3  A    between atoms: C7_10  and  N3_11
REMARK    4  A    between atoms: C8_12  and  C9_14
REMARK                            x       y       z     vdW  Elec       q    Type
REMARK                         _______ _______ _______ _____ _____    ______ ____
ROOT
ATOM      1  N3  UNL     1      20.733   6.098  34.102  0.00  0.00    -0.307 N 
ATOM      2  C8  UNL     1      21.282   6.720  35.275  0.00  0.00    +0.244 C 
ATOM      3  O2  UNL     1      22.288   6.208  35.838  0.00  0.00    -0.270 OA
ATOM      4  H10 UNL     1      20.066   6.641  33.510  0.00  0.00    +0.149 HD
ENDROOT
BRANCH   2   5
ATOM      5  C9  UNL     1      20.696   7.965  35.828  0.00  0.00    +0.037 A 
ATOM      6  C10 UNL     1      19.800   7.898  36.928  0.00  0.00    +0.015 A 
ATOM      7  C11 UNL     1      19.224   9.064  37.464  0.00  0.00    +0.027 A 
ATOM      8  C12 UNL     1      19.556  10.282  36.878  0.00  0.00    +0.046 A 
ATOM      9  N4  UNL     1      19.117  11.502  37.226  0.00  0.00    -0.361 N 
ATOM     10  C13 UNL     1      19.701  12.365  36.365  0.00  0.00    +0.083 A 
ATOM     11  C14 UNL     1      20.516  11.687  35.464  0.00  0.00    +0.027 A 
ATOM     12  C15 UNL     1      20.409  10.358  35.812  0.00  0.00    +0.000 A 
ATOM     13  C16 UNL     1      20.997   9.225  35.255  0.00  0.00    +0.023 A 
ATOM     14  H13 UNL     1      18.457  11.740  38.001  0.00  0.00    +0.165 HD
ENDBRANCH   2   5
BRANCH   1  20
ATOM     15  C4  UNL     1      20.184   2.473  30.849  0.00  0.00    +0.268 C 
ATOM     16  O1  UNL     1      18.925   2.416  30.841  0.00  0.00    -0.268 OA
ATOM     17  N2  UNL     1      20.839   3.354  31.784  0.00  0.00    -0.294 N 
ATOM     18  C5  UNL     1      22.254   3.689  31.771  0.00  0.00    +0.110 C 
ATOM     19  C6  UNL     1      22.412   4.842  32.754  0.00  0.00    +0.043 C 
ATOM     20  C7  UNL     1      21.175   4.772  33.656  0.00  0.00    +0.092 C 
ATOM     21  C17 UNL     1      20.109   4.078  32.811  0.00  0.00    +0.130 C 
BRANCH  15  25
ATOM     22  C1  UNL     1      22.805  -1.253  28.826  0.00  0.00    +0.174 C 
ATOM     23  N1  UNL     1      22.053  -0.023  29.025  0.00  0.00    -0.254 N 
ATOM     24  C2  UNL     1      21.433   0.365  30.150  0.00  0.00    +0.143 A 
ATOM     25  C3  UNL     1      20.932   1.626  29.898  0.00  0.00    +0.167 A 
ATOM     26  N5  UNL     1      21.280   1.970  28.640  0.00  0.00    -0.125 NA
ATOM     27  N6  UNL     1      21.964   0.953  28.136  0.00  0.00    -0.065 NA
ENDBRANCH  15  25
ENDBRANCH   1  20
TORSDOF 3
ENDMDL
