REMARK  Name = /home/qwerty/github/datacon2025hack/step_04_hit_selection/docking/ligands/lig_314.pdb
REMARK  5 active torsions:
REMARK  status: ('A' for Active; 'I' for Inactive)
REMARK    1  A    between atoms: C1_2  and  C24_29
REMARK    2  A    between atoms: N1_3  and  C2_4
REMARK    3  A    between atoms: C2_4  and  C3_5
REMARK    4  A    between atoms: C2_4  and  C11_14
REMARK    5  A    between atoms: C16_20  and  C17_21
REMARK                            x       y       z     vdW  Elec       q    Type
REMARK                         _______ _______ _______ _____ _____    ______ ____
ROOT
ATOM      1  C2  UNL     1      -0.484  -0.696   0.598  0.00  0.00    +0.136 C 
ENDROOT
BRANCH   1   2
ATOM      2  C11 UNL     1       0.337  -0.065   1.696  0.00  0.00    +0.002 A 
ATOM      3  C12 UNL     1      -0.099   0.315   2.966  0.00  0.00    +0.089 A 
ATOM      4  N2  UNL     1       0.880   0.973   3.626  0.00  0.00    -0.360 N 
ATOM      5  C13 UNL     1       1.922   1.037   2.780  0.00  0.00    +0.047 A 
ATOM      6  C14 UNL     1       3.147   1.661   2.998  0.00  0.00    +0.027 A 
ATOM      7  C15 UNL     1       4.086   1.655   1.953  0.00  0.00    +0.010 A 
ATOM      8  C16 UNL     1       3.788   1.037   0.708  0.00  0.00    -0.016 A 
ATOM      9  C22 UNL     1       2.531   0.412   0.528  0.00  0.00    +0.019 A 
ATOM     10  C23 UNL     1       1.626   0.427   1.590  0.00  0.00    +0.005 A 
ATOM     11  H11 UNL     1       0.823   1.377   4.588  0.00  0.00    +0.165 HD
BRANCH   8  12
ATOM     12  C17 UNL     1       4.779   1.053  -0.396  0.00  0.00    +0.000 A 
ATOM     13  C18 UNL     1       6.149   0.868  -0.140  0.00  0.00    +0.011 A 
ATOM     14  C19 UNL     1       7.068   0.884  -1.190  0.00  0.00    +0.020 A 
ATOM     15  C20 UNL     1       6.615   1.088  -2.494  0.00  0.00    +0.111 A 
ATOM     16  N3  UNL     1       5.289   1.269  -2.732  0.00  0.00    -0.263 NA
ATOM     17  C21 UNL     1       4.372   1.255  -1.728  0.00  0.00    +0.119 A 
ENDBRANCH   8  12
ENDBRANCH   1   2
BRANCH   1  18
ATOM     18  C3  UNL     1      -1.249   0.383  -0.134  0.00  0.00    -0.022 A 
ATOM     19  C4  UNL     1      -2.422   0.948   0.427  0.00  0.00    +0.009 A 
ATOM     20  C5  UNL     1      -3.108   1.976  -0.240  0.00  0.00    +0.046 A 
ATOM     21  C6  UNL     1      -2.599   2.429  -1.454  0.00  0.00    +0.124 A 
ATOM     22  C7  UNL     1      -1.466   1.902  -1.999  0.00  0.00    -0.002 A 
ATOM     23  C8  UNL     1      -0.762   0.880  -1.363  0.00  0.00    +0.013 A 
ATOM     24  C9  UNL     1      -1.158   2.582  -3.283  0.00  0.00    +0.080 C 
ATOM     25  C10 UNL     1      -2.314   3.604  -3.410  0.00  0.00    +0.234 C 
ATOM     26  O2  UNL     1      -3.124   3.425  -2.247  0.00  0.00    -0.491 OA
ENDBRANCH   1  18
BRANCH   1  29
ATOM     27  O1  UNL     1      -1.939  -2.565  -0.983  0.00  0.00    -0.270 OA
ATOM     28  C1  UNL     1      -2.187  -2.546   0.254  0.00  0.00    +0.245 C 
ATOM     29  N1  UNL     1      -1.396  -1.720   1.124  0.00  0.00    -0.300 N 
ATOM     30  H1  UNL     1      -1.414  -1.918   2.149  0.00  0.00    +0.150 HD
BRANCH  28  31
ATOM     31  C24 UNL     1      -3.286  -3.384   0.788  0.00  0.00    +0.037 A 
ATOM     32  C25 UNL     1      -3.719  -4.518   0.076  0.00  0.00    +0.016 A 
ATOM     33  C26 UNL     1      -4.762  -5.308   0.569  0.00  0.00    +0.039 A 
ATOM     34  C27 UNL     1      -5.389  -4.972   1.771  0.00  0.00    +0.123 A 
ATOM     35  F1  UNL     1      -6.402  -5.738   2.246  0.00  0.00    -0.205 F 
ATOM     36  C28 UNL     1      -4.976  -3.842   2.481  0.00  0.00    +0.039 A 
ATOM     37  C29 UNL     1      -3.933  -3.049   1.993  0.00  0.00    +0.016 A 
ENDBRANCH  28  31
ENDBRANCH   1  29
TORSDOF 5
