MODEL 1
REMARK VINA RESULT:    -7.167      0.000      0.000
REMARK INTER + INTRA:          -9.417
REMARK INTER:                  -8.843
REMARK INTRA:                  -0.574
REMARK UNBOUND:                -0.574
REMARK  Name = /home/qwerty/github/datacon2025hack/step_04_hit_selection/docking/ligands/lig_517.pdb
REMARK  7 active torsions:
REMARK  status: ('A' for Active; 'I' for Inactive)
REMARK    1  A    between atoms: C1_1  and  C2_2
REMARK    2  A    between atoms: N1_4  and  C4_5
REMARK    3  A    between atoms: C7_8  and  N2_9
REMARK    4  A    between atoms: C8_10  and  C9_12
REMARK    5  A    between atoms: C13_16  and  C14_17
REMARK    6  A    between atoms: N4_20  and  C16_21
REMARK    7  A    between atoms: C22_27  and  C23_28
REMARK                            x       y       z     vdW  Elec       q    Type
REMARK                         _______ _______ _______ _____ _____    ______ ____
ROOT
ATOM      1  N2  UNL     1      16.574   7.025  19.290  0.00  0.00    -0.282 N 
ATOM      2  C8  UNL     1      16.762   5.892  20.159  0.00  0.00    +0.248 C 
ATOM      3  O1  UNL     1      17.706   5.890  20.995  0.00  0.00    -0.270 OA
ATOM      4  H9  UNL     1      15.717   7.076  18.695  0.00  0.00    +0.155 HD
ENDROOT
BRANCH   1   8
ATOM      5  C4  UNL     1      19.167  10.397  19.079  0.00  0.00    +0.030 A 
ATOM      6  C5  UNL     1      19.588   9.154  18.581  0.00  0.00    +0.025 A 
ATOM      7  C6  UNL     1      18.744   8.041  18.647  0.00  0.00    +0.025 A 
ATOM      8  C7  UNL     1      17.471   8.148  19.232  0.00  0.00    +0.034 A 
ATOM      9  C19 UNL     1      17.044   9.393  19.714  0.00  0.00    +0.025 A 
ATOM     10  C20 UNL     1      17.887  10.506  19.648  0.00  0.00    +0.025 A 
BRANCH   5  14
ATOM     11  C1  UNL     1      20.381  15.183  19.947  0.00  0.00    +0.039 C 
ATOM     12  C2  UNL     1      20.438  13.675  20.200  0.00  0.00    +0.133 C 
ATOM     13  C3  UNL     1      19.524  12.901  19.213  0.00  0.00    +0.136 C 
ATOM     14  N1  UNL     1      20.039  11.542  19.022  0.00  0.00    -0.325 N 
ATOM     15  C21 UNL     1      21.467  11.372  18.734  0.00  0.00    +0.136 C 
ATOM     16  C22 UNL     1      22.217  12.690  18.995  0.00  0.00    +0.133 C 
ATOM     17  C23 UNL     1      23.726  12.455  19.039  0.00  0.00    +0.039 C 
ATOM     18  O2  UNL     1      21.796  13.238  20.230  0.00  0.00    -0.371 OA
ENDBRANCH   5  14
ENDBRANCH   1   8
BRANCH   2  19
ATOM     19  C9  UNL     1      15.855   4.720  20.099  0.00  0.00    +0.038 A 
ATOM     20  C10 UNL     1      14.502   4.860  19.748  0.00  0.00    +0.013 A 
ATOM     21  C11 UNL     1      13.666   3.743  19.701  0.00  0.00    +0.001 A 
ATOM     22  C12 UNL     1      14.165   2.476  20.009  0.00  0.00    +0.008 A 
ATOM     23  C13 UNL     1      15.512   2.309  20.378  0.00  0.00    -0.014 A 
ATOM     24  C18 UNL     1      16.347   3.441  20.422  0.00  0.00    +0.021 A 
BRANCH  23  25
ATOM     25  C14 UNL     1      16.042   0.962  20.711  0.00  0.00    +0.020 A 
ATOM     26  C15 UNL     1      16.395  -0.054  19.832  0.00  0.00    +0.142 A 
ATOM     27  N3  UNL     1      16.847  -1.114  20.529  0.00  0.00    -0.179 NA
ATOM     28  N4  UNL     1      16.775  -0.808  21.814  0.00  0.00    -0.274 N 
ATOM     29  C16 UNL     1      17.235  -1.683  22.884  0.00  0.00    +0.172 C 
ATOM     30  C17 UNL     1      16.308   0.445  21.967  0.00  0.00    +0.116 A 
ENDBRANCH  23  25
ENDBRANCH   2  19
TORSDOF 4
ENDMDL
MODEL 2
REMARK VINA RESULT:    -7.032      2.451      3.705
REMARK INTER + INTRA:          -9.250
REMARK INTER:                  -8.608
REMARK INTRA:                  -0.642
REMARK UNBOUND:                -0.574
REMARK  Name = /home/qwerty/github/datacon2025hack/step_04_hit_selection/docking/ligands/lig_517.pdb
REMARK  7 active torsions:
REMARK  status: ('A' for Active; 'I' for Inactive)
REMARK    1  A    between atoms: C1_1  and  C2_2
REMARK    2  A    between atoms: N1_4  and  C4_5
REMARK    3  A    between atoms: C7_8  and  N2_9
REMARK    4  A    between atoms: C8_10  and  C9_12
REMARK    5  A    between atoms: C13_16  and  C14_17
REMARK    6  A    between atoms: N4_20  and  C16_21
REMARK    7  A    between atoms: C22_27  and  C23_28
REMARK                            x       y       z     vdW  Elec       q    Type
REMARK                         _______ _______ _______ _____ _____    ______ ____
ROOT
ATOM      1  N2  UNL     1      16.721   7.070  19.136  0.00  0.00    -0.282 N 
ATOM      2  C8  UNL     1      16.544   6.240  20.300  0.00  0.00    +0.248 C 
ATOM      3  O1  UNL     1      17.005   6.610  21.414  0.00  0.00    -0.270 OA
ATOM      4  H9  UNL     1      16.226   6.821  18.251  0.00  0.00    +0.155 HD
ENDROOT
BRANCH   1   8
ATOM      5  C4  UNL     1      19.075  10.619  19.160  0.00  0.00    +0.030 A 
ATOM      6  C5  UNL     1      17.721  10.670  19.527  0.00  0.00    +0.025 A 
ATOM      7  C6  UNL     1      16.940   9.511  19.521  0.00  0.00    +0.025 A 
ATOM      8  C7  UNL     1      17.495   8.281  19.127  0.00  0.00    +0.034 A 
ATOM      9  C19 UNL     1      18.852   8.227  18.777  0.00  0.00    +0.025 A 
ATOM     10  C20 UNL     1      19.633   9.386  18.783  0.00  0.00    +0.025 A 
BRANCH   5  14
ATOM     11  C1  UNL     1      20.100  15.365  20.407  0.00  0.00    +0.039 C 
ATOM     12  C2  UNL     1      20.256  13.846  20.505  0.00  0.00    +0.133 C 
ATOM     13  C3  UNL     1      19.310  13.115  19.516  0.00  0.00    +0.136 C 
ATOM     14  N1  UNL     1      19.878  11.814  19.154  0.00  0.00    -0.325 N 
ATOM     15  C21 UNL     1      21.287  11.758  18.747  0.00  0.00    +0.136 C 
ATOM     16  C22 UNL     1      21.985  13.088  19.082  0.00  0.00    +0.133 C 
ATOM     17  C23 UNL     1      23.502  12.941  18.993  0.00  0.00    +0.039 C 
ATOM     18  O2  UNL     1      21.633  13.490  20.393  0.00  0.00    -0.371 OA
ENDBRANCH   5  14
ENDBRANCH   1   8
BRANCH   2  19
ATOM     19  C9  UNL     1      15.817   4.949  20.219  0.00  0.00    +0.038 A 
ATOM     20  C10 UNL     1      16.475   3.762  19.857  0.00  0.00    +0.013 A 
ATOM     21  C11 UNL     1      15.770   2.559  19.785  0.00  0.00    +0.001 A 
ATOM     22  C12 UNL     1      14.404   2.525  20.064  0.00  0.00    +0.008 A 
ATOM     23  C13 UNL     1      13.717   3.701  20.415  0.00  0.00    -0.014 A 
ATOM     24  C18 UNL     1      14.436   4.909  20.486  0.00  0.00    +0.021 A 
BRANCH  23  25
ATOM     25  C14 UNL     1      12.261   3.667  20.708  0.00  0.00    +0.020 A 
ATOM     26  C15 UNL     1      11.545   2.660  21.343  0.00  0.00    +0.142 A 
ATOM     27  N3  UNL     1      10.249   3.016  21.429  0.00  0.00    -0.179 NA
ATOM     28  N4  UNL     1      10.121   4.202  20.858  0.00  0.00    -0.274 N 
ATOM     29  C16 UNL     1       8.872   4.949  20.808  0.00  0.00    +0.172 C 
ATOM     30  C17 UNL     1      11.317   4.638  20.422  0.00  0.00    +0.116 A 
ENDBRANCH  23  25
ENDBRANCH   2  19
TORSDOF 4
ENDMDL
MODEL 3
REMARK VINA RESULT:    -7.018      2.052     10.996
REMARK INTER + INTRA:          -9.233
REMARK INTER:                  -8.702
REMARK INTRA:                  -0.530
REMARK UNBOUND:                -0.574
REMARK  Name = /home/qwerty/github/datacon2025hack/step_04_hit_selection/docking/ligands/lig_517.pdb
REMARK  7 active torsions:
REMARK  status: ('A' for Active; 'I' for Inactive)
REMARK    1  A    between atoms: C1_1  and  C2_2
REMARK    2  A    between atoms: N1_4  and  C4_5
REMARK    3  A    between atoms: C7_8  and  N2_9
REMARK    4  A    between atoms: C8_10  and  C9_12
REMARK    5  A    between atoms: C13_16  and  C14_17
REMARK    6  A    between atoms: N4_20  and  C16_21
REMARK    7  A    between atoms: C22_27  and  C23_28
REMARK                            x       y       z     vdW  Elec       q    Type
REMARK                         _______ _______ _______ _____ _____    ______ ____
ROOT
ATOM      1  N2  UNL     1      16.368   7.042  20.106  0.00  0.00    -0.282 N 
ATOM      2  C8  UNL     1      17.307   7.670  19.213  0.00  0.00    +0.248 C 
ATOM      3  O1  UNL     1      17.979   6.967  18.409  0.00  0.00    -0.270 OA
ATOM      4  H9  UNL     1      15.725   7.638  20.672  0.00  0.00    +0.155 HD
ENDROOT
BRANCH   1   8
ATOM      5  C4  UNL     1      15.967   2.814  20.422  0.00  0.00    +0.030 A 
ATOM      6  C5  UNL     1      14.949   3.575  19.825  0.00  0.00    +0.025 A 
ATOM      7  C6  UNL     1      15.071   4.963  19.718  0.00  0.00    +0.025 A 
ATOM      8  C7  UNL     1      16.206   5.618  20.226  0.00  0.00    +0.034 A 
ATOM      9  C19 UNL     1      17.230   4.857  20.806  0.00  0.00    +0.025 A 
ATOM     10  C20 UNL     1      17.108   3.469  20.913  0.00  0.00    +0.025 A 
BRANCH   5  14
ATOM     11  C1  UNL     1      16.291  -1.899  18.743  0.00  0.00    +0.039 C 
ATOM     12  C2  UNL     1      16.749  -0.687  19.558  0.00  0.00    +0.133 C 
ATOM     13  C3  UNL     1      15.795   0.521  19.361  0.00  0.00    +0.136 C 
ATOM     14  N1  UNL     1      15.838   1.385  20.544  0.00  0.00    -0.325 N 
ATOM     15  C21 UNL     1      15.710   0.763  21.866  0.00  0.00    +0.136 C 
ATOM     16  C22 UNL     1      15.859  -0.764  21.746  0.00  0.00    +0.133 C 
ATOM     17  C23 UNL     1      16.074  -1.397  23.120  0.00  0.00    +0.039 C 
ATOM     18  O2  UNL     1      16.964  -1.068  20.916  0.00  0.00    -0.371 OA
ENDBRANCH   5  14
ENDBRANCH   1   8
BRANCH   2  19
ATOM     19  C9  UNL     1      17.497   9.141  19.209  0.00  0.00    +0.038 A 
ATOM     20  C10 UNL     1      16.401  10.019  19.230  0.00  0.00    +0.013 A 
ATOM     21  C11 UNL     1      16.603  11.401  19.223  0.00  0.00    +0.001 A 
ATOM     22  C12 UNL     1      17.897  11.923  19.186  0.00  0.00    +0.008 A 
ATOM     23  C13 UNL     1      19.012  11.067  19.149  0.00  0.00    -0.014 A 
ATOM     24  C18 UNL     1      18.798   9.676  19.157  0.00  0.00    +0.021 A 
BRANCH  23  25
ATOM     25  C14 UNL     1      20.389  11.622  19.105  0.00  0.00    +0.020 A 
ATOM     26  C15 UNL     1      21.574  10.983  19.445  0.00  0.00    +0.142 A 
ATOM     27  N3  UNL     1      22.610  11.824  19.253  0.00  0.00    -0.179 NA
ATOM     28  N4  UNL     1      22.116  12.973  18.820  0.00  0.00    -0.274 N 
ATOM     29  C16 UNL     1      22.934  14.116  18.440  0.00  0.00    +0.172 C 
ATOM     30  C17 UNL     1      20.778  12.888  18.703  0.00  0.00    +0.116 A 
ENDBRANCH  23  25
ENDBRANCH   2  19
TORSDOF 4
ENDMDL
MODEL 4
REMARK VINA RESULT:    -6.887     17.280     20.731
REMARK INTER + INTRA:          -9.071
REMARK INTER:                  -8.443
REMARK INTRA:                  -0.628
REMARK UNBOUND:                -0.574
REMARK  Name = /home/qwerty/github/datacon2025hack/step_04_hit_selection/docking/ligands/lig_517.pdb
REMARK  7 active torsions:
REMARK  status: ('A' for Active; 'I' for Inactive)
REMARK    1  A    between atoms: C1_1  and  C2_2
REMARK    2  A    between atoms: N1_4  and  C4_5
REMARK    3  A    between atoms: C7_8  and  N2_9
REMARK    4  A    between atoms: C8_10  and  C9_12
REMARK    5  A    between atoms: C13_16  and  C14_17
REMARK    6  A    between atoms: N4_20  and  C16_21
REMARK    7  A    between atoms: C22_27  and  C23_28
REMARK                            x       y       z     vdW  Elec       q    Type
REMARK                         _______ _______ _______ _____ _____    ______ ____
ROOT
ATOM      1  N2  UNL     1      15.040   6.061  38.599  0.00  0.00    -0.282 N 
ATOM      2  C8  UNL     1      15.718   6.550  37.427  0.00  0.00    +0.248 C 
ATOM      3  O1  UNL     1      15.321   6.206  36.280  0.00  0.00    -0.270 OA
ATOM      4  H9  UNL     1      15.290   6.452  39.534  0.00  0.00    +0.155 HD
ENDROOT
BRANCH   1   8
ATOM      5  C4  UNL     1      11.920   3.167  38.430  0.00  0.00    +0.030 A 
ATOM      6  C5  UNL     1      11.619   4.534  38.318  0.00  0.00    +0.025 A 
ATOM      7  C6  UNL     1      12.635   5.491  38.373  0.00  0.00    +0.025 A 
ATOM      8  C7  UNL     1      13.972   5.099  38.564  0.00  0.00    +0.034 A 
ATOM      9  C19 UNL     1      14.274   3.733  38.659  0.00  0.00    +0.025 A 
ATOM     10  C20 UNL     1      13.258   2.776  38.604  0.00  0.00    +0.025 A 
BRANCH   5  14
ATOM     11  C1  UNL     1       7.251   1.591  37.511  0.00  0.00    +0.039 C 
ATOM     12  C2  UNL     1       8.745   1.731  37.216  0.00  0.00    +0.133 C 
ATOM     13  C3  UNL     1       9.462   2.570  38.307  0.00  0.00    +0.136 C 
ATOM     14  N1  UNL     1      10.873   2.180  38.385  0.00  0.00    -0.325 N 
ATOM     15  C21 UNL     1      11.198   0.751  38.454  0.00  0.00    +0.136 C 
ATOM     16  C22 UNL     1       9.953  -0.089  38.118  0.00  0.00    +0.133 C 
ATOM     17  C23 UNL     1      10.337  -1.542  37.845  0.00  0.00    +0.039 C 
ATOM     18  O2  UNL     1       9.316   0.446  36.973  0.00  0.00    -0.371 OA
ENDBRANCH   5  14
ENDBRANCH   1   8
BRANCH   2  19
ATOM     19  C9  UNL     1      16.879   7.467  37.537  0.00  0.00    +0.038 A 
ATOM     20  C10 UNL     1      16.715   8.812  37.908  0.00  0.00    +0.013 A 
ATOM     21  C11 UNL     1      17.822   9.657  38.003  0.00  0.00    +0.001 A 
ATOM     22  C12 UNL     1      19.101   9.177  37.722  0.00  0.00    +0.008 A 
ATOM     23  C13 UNL     1      19.293   7.839  37.334  0.00  0.00    -0.014 A 
ATOM     24  C18 UNL     1      18.171   6.993  37.242  0.00  0.00    +0.021 A 
BRANCH  23  25
ATOM     25  C14 UNL     1      20.655   7.328  37.030  0.00  0.00    +0.020 A 
ATOM     26  C15 UNL     1      21.705   7.131  37.916  0.00  0.00    +0.142 A 
ATOM     27  N3  UNL     1      22.769   6.640  37.250  0.00  0.00    -0.179 NA
ATOM     28  N4  UNL     1      22.429   6.538  35.976  0.00  0.00    -0.274 N 
ATOM     29  C16 UNL     1      23.298   5.986  34.946  0.00  0.00    +0.172 C 
ATOM     30  C17 UNL     1      21.154   6.930  35.802  0.00  0.00    +0.116 A 
ENDBRANCH  23  25
ENDBRANCH   2  19
TORSDOF 4
ENDMDL
MODEL 5
REMARK VINA RESULT:    -6.883      6.131     11.808
REMARK INTER + INTRA:          -9.066
REMARK INTER:                  -8.474
REMARK INTRA:                  -0.593
REMARK UNBOUND:                -0.574
REMARK  Name = /home/qwerty/github/datacon2025hack/step_04_hit_selection/docking/ligands/lig_517.pdb
REMARK  7 active torsions:
REMARK  status: ('A' for Active; 'I' for Inactive)
REMARK    1  A    between atoms: C1_1  and  C2_2
REMARK    2  A    between atoms: N1_4  and  C4_5
REMARK    3  A    between atoms: C7_8  and  N2_9
REMARK    4  A    between atoms: C8_10  and  C9_12
REMARK    5  A    between atoms: C13_16  and  C14_17
REMARK    6  A    between atoms: N4_20  and  C16_21
REMARK    7  A    between atoms: C22_27  and  C23_28
REMARK                            x       y       z     vdW  Elec       q    Type
REMARK                         _______ _______ _______ _____ _____    ______ ____
ROOT
ATOM      1  N2  UNL     1      22.236   6.330  23.937  0.00  0.00    -0.282 N 
ATOM      2  C8  UNL     1      22.031   6.211  22.517  0.00  0.00    +0.248 C 
ATOM      3  O1  UNL     1      21.476   5.182  22.045  0.00  0.00    -0.270 OA
ATOM      4  H9  UNL     1      22.575   7.236  24.330  0.00  0.00    +0.155 HD
ENDROOT
BRANCH   1   8
ATOM      5  C4  UNL     1      21.393   3.180  26.677  0.00  0.00    +0.030 A 
ATOM      6  C5  UNL     1      20.351   3.979  26.180  0.00  0.00    +0.025 A 
ATOM      7  C6  UNL     1      20.618   5.015  25.282  0.00  0.00    +0.025 A 
ATOM      8  C7  UNL     1      21.937   5.286  24.880  0.00  0.00    +0.034 A 
ATOM      9  C19 UNL     1      22.976   4.478  25.363  0.00  0.00    +0.025 A 
ATOM     10  C20 UNL     1      22.709   3.441  26.261  0.00  0.00    +0.025 A 
BRANCH   5  14
ATOM     11  C1  UNL     1      22.397  -1.152  28.991  0.00  0.00    +0.039 C 
ATOM     12  C2  UNL     1      22.312   0.372  28.888  0.00  0.00    +0.133 C 
ATOM     13  C3  UNL     1      21.784   0.816  27.498  0.00  0.00    +0.136 C 
ATOM     14  N1  UNL     1      21.122   2.119  27.612  0.00  0.00    -0.325 N 
ATOM     15  C21 UNL     1      20.142   2.311  28.686  0.00  0.00    +0.136 C 
ATOM     16  C22 UNL     1      20.232   1.152  29.694  0.00  0.00    +0.133 C 
ATOM     17  C23 UNL     1      19.483   1.493  30.981  0.00  0.00    +0.039 C 
ATOM     18  O2  UNL     1      21.589   0.896  30.001  0.00  0.00    -0.371 OA
ENDBRANCH   5  14
ENDBRANCH   1   8
BRANCH   2  19
ATOM     19  C9  UNL     1      22.454   7.287  21.587  0.00  0.00    +0.038 A 
ATOM     20  C10 UNL     1      23.783   7.387  21.143  0.00  0.00    +0.013 A 
ATOM     21  C11 UNL     1      24.160   8.409  20.270  0.00  0.00    +0.001 A 
ATOM     22  C12 UNL     1      23.222   9.347  19.836  0.00  0.00    +0.008 A 
ATOM     23  C13 UNL     1      21.888   9.279  20.276  0.00  0.00    -0.014 A 
ATOM     24  C18 UNL     1      21.517   8.244  21.156  0.00  0.00    +0.021 A 
BRANCH  23  25
ATOM     25  C14 UNL     1      20.889  10.279  19.818  0.00  0.00    +0.020 A 
ATOM     26  C15 UNL     1      21.124  11.451  19.110  0.00  0.00    +0.142 A 
ATOM     27  N3  UNL     1      19.953  12.074  18.874  0.00  0.00    -0.179 NA
ATOM     28  N4  UNL     1      18.994  11.346  19.422  0.00  0.00    -0.274 N 
ATOM     29  C16 UNL     1      17.576  11.664  19.325  0.00  0.00    +0.172 C 
ATOM     30  C17 UNL     1      19.516  10.243  19.990  0.00  0.00    +0.116 A 
ENDBRANCH  23  25
ENDBRANCH   2  19
TORSDOF 4
ENDMDL
MODEL 6
REMARK VINA RESULT:    -6.846     11.226     15.603
REMARK INTER + INTRA:          -9.022
REMARK INTER:                  -8.642
REMARK INTRA:                  -0.379
REMARK UNBOUND:                -0.574
REMARK  Name = /home/qwerty/github/datacon2025hack/step_04_hit_selection/docking/ligands/lig_517.pdb
REMARK  7 active torsions:
REMARK  status: ('A' for Active; 'I' for Inactive)
REMARK    1  A    between atoms: C1_1  and  C2_2
REMARK    2  A    between atoms: N1_4  and  C4_5
REMARK    3  A    between atoms: C7_8  and  N2_9
REMARK    4  A    between atoms: C8_10  and  C9_12
REMARK    5  A    between atoms: C13_16  and  C14_17
REMARK    6  A    between atoms: N4_20  and  C16_21
REMARK    7  A    between atoms: C22_27  and  C23_28
REMARK                            x       y       z     vdW  Elec       q    Type
REMARK                         _______ _______ _______ _____ _____    ______ ____
ROOT
ATOM      1  N2  UNL     1      23.187  12.122  29.558  0.00  0.00    -0.282 N 
ATOM      2  C8  UNL     1      22.179  13.149  29.609  0.00  0.00    +0.248 C 
ATOM      3  O1  UNL     1      21.263  13.090  30.474  0.00  0.00    -0.270 OA
ATOM      4  H9  UNL     1      24.011  12.246  28.929  0.00  0.00    +0.155 HD
ENDROOT
BRANCH   1   8
ATOM      5  C4  UNL     1      23.215   8.601  31.954  0.00  0.00    +0.030 A 
ATOM      6  C5  UNL     1      22.051   8.972  31.262  0.00  0.00    +0.025 A 
ATOM      7  C6  UNL     1      22.032  10.126  30.474  0.00  0.00    +0.025 A 
ATOM      8  C7  UNL     1      23.172  10.943  30.381  0.00  0.00    +0.034 A 
ATOM      9  C19 UNL     1      24.339  10.564  31.059  0.00  0.00    +0.025 A 
ATOM     10  C20 UNL     1      24.359   9.410  31.847  0.00  0.00    +0.025 A 
BRANCH   5  14
ATOM     11  C1  UNL     1      23.345   6.156  36.328  0.00  0.00    +0.039 C 
ATOM     12  C2  UNL     1      22.668   6.700  35.069  0.00  0.00    +0.133 C 
ATOM     13  C3  UNL     1      23.674   7.470  34.173  0.00  0.00    +0.136 C 
ATOM     14  N1  UNL     1      23.234   7.419  32.776  0.00  0.00    -0.325 N 
ATOM     15  C21 UNL     1      22.843   6.121  32.215  0.00  0.00    +0.136 C 
ATOM     16  C22 UNL     1      22.688   5.086  33.343  0.00  0.00    +0.133 C 
ATOM     17  C23 UNL     1      21.958   3.842  32.839  0.00  0.00    +0.039 C 
ATOM     18  O2  UNL     1      21.953   5.655  34.410  0.00  0.00    -0.371 OA
ENDBRANCH   5  14
ENDBRANCH   1   8
BRANCH   2  19
ATOM     19  C9  UNL     1      22.196  14.291  28.663  0.00  0.00    +0.038 A 
ATOM     20  C10 UNL     1      21.567  15.507  28.974  0.00  0.00    +0.013 A 
ATOM     21  C11 UNL     1      21.594  16.568  28.068  0.00  0.00    +0.001 A 
ATOM     22  C12 UNL     1      22.240  16.429  26.839  0.00  0.00    +0.008 A 
ATOM     23  C13 UNL     1      22.865  15.218  26.494  0.00  0.00    -0.014 A 
ATOM     24  C18 UNL     1      22.834  14.153  27.415  0.00  0.00    +0.021 A 
BRANCH  23  25
ATOM     25  C14 UNL     1      23.549  15.066  25.184  0.00  0.00    +0.020 A 
ATOM     26  C15 UNL     1      23.735  13.900  24.453  0.00  0.00    +0.142 A 
ATOM     27  N3  UNL     1      24.390  14.187  23.310  0.00  0.00    -0.179 NA
ATOM     28  N4  UNL     1      24.635  15.487  23.305  0.00  0.00    -0.274 N 
ATOM     29  C16 UNL     1      25.276  16.188  22.201  0.00  0.00    +0.172 C 
ATOM     30  C17 UNL     1      24.130  16.059  24.413  0.00  0.00    +0.116 A 
ENDBRANCH  23  25
ENDBRANCH   2  19
TORSDOF 4
ENDMDL
MODEL 7
REMARK VINA RESULT:    -6.730      7.595     12.549
REMARK INTER + INTRA:          -8.877
REMARK INTER:                  -8.310
REMARK INTRA:                  -0.568
REMARK UNBOUND:                -0.574
REMARK  Name = /home/qwerty/github/datacon2025hack/step_04_hit_selection/docking/ligands/lig_517.pdb
REMARK  7 active torsions:
REMARK  status: ('A' for Active; 'I' for Inactive)
REMARK    1  A    between atoms: C1_1  and  C2_2
REMARK    2  A    between atoms: N1_4  and  C4_5
REMARK    3  A    between atoms: C7_8  and  N2_9
REMARK    4  A    between atoms: C8_10  and  C9_12
REMARK    5  A    between atoms: C13_16  and  C14_17
REMARK    6  A    between atoms: N4_20  and  C16_21
REMARK    7  A    between atoms: C22_27  and  C23_28
REMARK                            x       y       z     vdW  Elec       q    Type
REMARK                         _______ _______ _______ _____ _____    ______ ____
ROOT
ATOM      1  N2  UNL     1      21.209   3.622  24.903  0.00  0.00    -0.282 N 
ATOM      2  C8  UNL     1      21.869   4.833  24.490  0.00  0.00    +0.248 C 
ATOM      3  O1  UNL     1      22.475   5.541  25.340  0.00  0.00    -0.270 OA
ATOM      4  H9  UNL     1      20.825   2.977  24.177  0.00  0.00    +0.155 HD
ENDROOT
BRANCH   1   8
ATOM      5  C4  UNL     1      20.911   2.278  28.933  0.00  0.00    +0.030 A 
ATOM      6  C5  UNL     1      19.824   2.926  28.325  0.00  0.00    +0.025 A 
ATOM      7  C6  UNL     1      19.912   3.372  27.003  0.00  0.00    +0.025 A 
ATOM      8  C7  UNL     1      21.100   3.196  26.272  0.00  0.00    +0.034 A 
ATOM      9  C19 UNL     1      22.180   2.534  26.874  0.00  0.00    +0.025 A 
ATOM     10  C20 UNL     1      22.091   2.088  28.195  0.00  0.00    +0.025 A 
BRANCH   5  14
ATOM     11  C1  UNL     1      21.416   2.813  33.892  0.00  0.00    +0.039 C 
ATOM     12  C2  UNL     1      20.628   2.746  32.583  0.00  0.00    +0.133 C 
ATOM     13  C3  UNL     1      21.564   2.504  31.370  0.00  0.00    +0.136 C 
ATOM     14  N1  UNL     1      20.826   1.829  30.299  0.00  0.00    -0.325 N 
ATOM     15  C21 UNL     1      20.018   0.654  30.643  0.00  0.00    +0.136 C 
ATOM     16  C22 UNL     1      19.872   0.544  32.171  0.00  0.00    +0.133 C 
ATOM     17  C23 UNL     1      18.771  -0.447  32.540  0.00  0.00    +0.039 C 
ATOM     18  O2  UNL     1      19.554   1.815  32.708  0.00  0.00    -0.371 OA
ENDBRANCH   5  14
ENDBRANCH   1   8
BRANCH   2  19
ATOM     19  C9  UNL     1      21.860   5.268  23.072  0.00  0.00    +0.038 A 
ATOM     20  C10 UNL     1      21.005   4.672  22.131  0.00  0.00    +0.013 A 
ATOM     21  C11 UNL     1      21.015   5.094  20.800  0.00  0.00    +0.001 A 
ATOM     22  C12 UNL     1      21.881   6.109  20.390  0.00  0.00    +0.008 A 
ATOM     23  C13 UNL     1      22.758   6.714  21.308  0.00  0.00    -0.014 A 
ATOM     24  C18 UNL     1      22.740   6.281  22.648  0.00  0.00    +0.021 A 
BRANCH  23  25
ATOM     25  C14 UNL     1      23.683   7.791  20.872  0.00  0.00    +0.020 A 
ATOM     26  C15 UNL     1      25.065   7.828  21.001  0.00  0.00    +0.142 A 
ATOM     27  N3  UNL     1      25.536   8.972  20.466  0.00  0.00    -0.179 NA
ATOM     28  N4  UNL     1      24.499   9.661  20.020  0.00  0.00    -0.274 N 
ATOM     29  C16 UNL     1      24.610  10.932  19.318  0.00  0.00    +0.172 C 
ATOM     30  C17 UNL     1      23.361   8.976  20.233  0.00  0.00    +0.116 A 
ENDBRANCH  23  25
ENDBRANCH   2  19
TORSDOF 4
ENDMDL
MODEL 8
REMARK VINA RESULT:    -6.578     12.864     16.314
REMARK INTER + INTRA:          -8.690
REMARK INTER:                  -8.045
REMARK INTRA:                  -0.645
REMARK UNBOUND:                -0.574
REMARK  Name = /home/qwerty/github/datacon2025hack/step_04_hit_selection/docking/ligands/lig_517.pdb
REMARK  7 active torsions:
REMARK  status: ('A' for Active; 'I' for Inactive)
REMARK    1  A    between atoms: C1_1  and  C2_2
REMARK    2  A    between atoms: N1_4  and  C4_5
REMARK    3  A    between atoms: C7_8  and  N2_9
REMARK    4  A    between atoms: C8_10  and  C9_12
REMARK    5  A    between atoms: C13_16  and  C14_17
REMARK    6  A    between atoms: N4_20  and  C16_21
REMARK    7  A    between atoms: C22_27  and  C23_28
REMARK                            x       y       z     vdW  Elec       q    Type
REMARK                         _______ _______ _______ _____ _____    ______ ____
ROOT
ATOM      1  N2  UNL     1      16.921   0.312  33.893  0.00  0.00    -0.282 N 
ATOM      2  C8  UNL     1      16.970   0.560  35.311  0.00  0.00    +0.248 C 
ATOM      3  O1  UNL     1      17.897   1.266  35.795  0.00  0.00    -0.270 OA
ATOM      4  H9  UNL     1      16.084  -0.160  33.486  0.00  0.00    +0.155 HD
ENDROOT
BRANCH   1   8
ATOM      5  C4  UNL     1      19.995   1.554  31.219  0.00  0.00    +0.030 A 
ATOM      6  C5  UNL     1      18.927   2.417  31.514  0.00  0.00    +0.025 A 
ATOM      7  C6  UNL     1      17.913   2.018  32.389  0.00  0.00    +0.025 A 
ATOM      8  C7  UNL     1      17.938   0.738  32.970  0.00  0.00    +0.034 A 
ATOM      9  C19 UNL     1      19.013  -0.117  32.689  0.00  0.00    +0.025 A 
ATOM     10  C20 UNL     1      20.027   0.282  31.814  0.00  0.00    +0.025 A 
BRANCH   5  14
ATOM     11  C1  UNL     1      24.446   1.078  28.964  0.00  0.00    +0.039 C 
ATOM     12  C2  UNL     1      22.921   0.993  29.042  0.00  0.00    +0.133 C 
ATOM     13  C3  UNL     1      22.399   1.442  30.433  0.00  0.00    +0.136 C 
ATOM     14  N1  UNL     1      21.034   1.959  30.308  0.00  0.00    -0.325 N 
ATOM     15  C21 UNL     1      20.752   2.934  29.249  0.00  0.00    +0.136 C 
ATOM     16  C22 UNL     1      21.930   2.992  28.260  0.00  0.00    +0.133 C 
ATOM     17  C23 UNL     1      21.529   3.725  26.982  0.00  0.00    +0.039 C 
ATOM     18  O2  UNL     1      22.338   1.676  27.933  0.00  0.00    -0.371 OA
ENDBRANCH   5  14
ENDBRANCH   1   8
BRANCH   2  19
ATOM     19  C9  UNL     1      15.940   0.007  36.224  0.00  0.00    +0.038 A 
ATOM     20  C10 UNL     1      16.030  -1.305  36.717  0.00  0.00    +0.013 A 
ATOM     21  C11 UNL     1      15.048  -1.806  37.572  0.00  0.00    +0.001 A 
ATOM     22  C12 UNL     1      13.962  -1.012  37.941  0.00  0.00    +0.008 A 
ATOM     23  C13 UNL     1      13.839   0.301  37.451  0.00  0.00    -0.014 A 
ATOM     24  C18 UNL     1      14.835   0.798  36.589  0.00  0.00    +0.021 A 
BRANCH  23  25
ATOM     25  C14 UNL     1      12.680   1.147  37.838  0.00  0.00    +0.020 A 
ATOM     26  C15 UNL     1      11.489   0.739  38.424  0.00  0.00    +0.142 A 
ATOM     27  N3  UNL     1      10.701   1.812  38.632  0.00  0.00    -0.179 NA
ATOM     28  N4  UNL     1      11.346   2.875  38.183  0.00  0.00    -0.274 N 
ATOM     29  C16 UNL     1      10.840   4.237  38.289  0.00  0.00    +0.172 C 
ATOM     30  C17 UNL     1      12.554   2.519  37.709  0.00  0.00    +0.116 A 
ENDBRANCH  23  25
ENDBRANCH   2  19
TORSDOF 4
ENDMDL
MODEL 9
REMARK VINA RESULT:    -6.393     10.579     16.519
REMARK INTER + INTRA:          -8.462
REMARK INTER:                  -7.815
REMARK INTRA:                  -0.647
REMARK UNBOUND:                -0.574
REMARK  Name = /home/qwerty/github/datacon2025hack/step_04_hit_selection/docking/ligands/lig_517.pdb
REMARK  7 active torsions:
REMARK  status: ('A' for Active; 'I' for Inactive)
REMARK    1  A    between atoms: C1_1  and  C2_2
REMARK    2  A    between atoms: N1_4  and  C4_5
REMARK    3  A    between atoms: C7_8  and  N2_9
REMARK    4  A    between atoms: C8_10  and  C9_12
REMARK    5  A    between atoms: C13_16  and  C14_17
REMARK    6  A    between atoms: N4_20  and  C16_21
REMARK    7  A    between atoms: C22_27  and  C23_28
REMARK                            x       y       z     vdW  Elec       q    Type
REMARK                         _______ _______ _______ _____ _____    ______ ____
ROOT
ATOM      1  N2  UNL     1       8.859   0.287  26.549  0.00  0.00    -0.282 N 
ATOM      2  C8  UNL     1       9.415   1.547  26.130  0.00  0.00    +0.248 C 
ATOM      3  O1  UNL     1       9.826   2.372  26.991  0.00  0.00    -0.270 OA
ATOM      4  H9  UNL     1       8.643  -0.440  25.831  0.00  0.00    +0.155 HD
ENDROOT
BRANCH   1   8
ATOM      5  C4  UNL     1       8.220  -0.864  30.599  0.00  0.00    +0.030 A 
ATOM      6  C5  UNL     1       7.226  -0.157  29.903  0.00  0.00    +0.025 A 
ATOM      7  C6  UNL     1       7.427   0.226  28.574  0.00  0.00    +0.025 A 
ATOM      8  C7  UNL     1       8.636  -0.073  27.923  0.00  0.00    +0.034 A 
ATOM      9  C19 UNL     1       9.622  -0.793  28.613  0.00  0.00    +0.025 A 
ATOM     10  C20 UNL     1       9.421  -1.176  29.942  0.00  0.00    +0.025 A 
BRANCH   5  14
ATOM     11  C1  UNL     1       9.543  -3.082  34.896  0.00  0.00    +0.039 C 
ATOM     12  C2  UNL     1       9.326  -1.884  33.968  0.00  0.00    +0.133 C 
ATOM     13  C3  UNL     1       8.797  -2.332  32.580  0.00  0.00    +0.136 C 
ATOM     14  N1  UNL     1       8.019  -1.249  31.972  0.00  0.00    -0.325 N 
ATOM     15  C21 UNL     1       6.998  -0.581  32.787  0.00  0.00    +0.136 C 
ATOM     16  C22 UNL     1       7.164  -0.976  34.266  0.00  0.00    +0.133 C 
ATOM     17  C23 UNL     1       6.355  -0.046  35.168  0.00  0.00    +0.039 C 
ATOM     18  O2  UNL     1       8.531  -0.898  34.625  0.00  0.00    -0.371 OA
ENDBRANCH   5  14
ENDBRANCH   1   8
BRANCH   2  19
ATOM     19  C9  UNL     1       9.526   1.898  24.693  0.00  0.00    +0.038 A 
ATOM     20  C10 UNL     1      10.076   1.001  23.762  0.00  0.00    +0.013 A 
ATOM     21  C11 UNL     1      10.174   1.353  22.415  0.00  0.00    +0.001 A 
ATOM     22  C12 UNL     1       9.733   2.603  21.980  0.00  0.00    +0.008 A 
ATOM     23  C13 UNL     1       9.191   3.526  22.892  0.00  0.00    -0.014 A 
ATOM     24  C18 UNL     1       9.096   3.162  24.249  0.00  0.00    +0.021 A 
BRANCH  23  25
ATOM     25  C14 UNL     1       8.725   4.860  22.431  0.00  0.00    +0.020 A 
ATOM     26  C15 UNL     1       7.972   5.152  21.301  0.00  0.00    +0.142 A 
ATOM     27  N3  UNL     1       7.745   6.480  21.244  0.00  0.00    -0.179 NA
ATOM     28  N4  UNL     1       8.341   7.032  22.288  0.00  0.00    -0.274 N 
ATOM     29  C16 UNL     1       8.269   8.451  22.607  0.00  0.00    +0.172 C 
ATOM     30  C17 UNL     1       8.932   6.085  23.040  0.00  0.00    +0.116 A 
ENDBRANCH  23  25
ENDBRANCH   2  19
TORSDOF 4
ENDMDL
