REMARK  Name = /home/qwerty/github/datacon2025hack/step_04_hit_selection/docking/ligands/lig_334.pdb
REMARK  8 active torsions:
REMARK  status: ('A' for Active; 'I' for Inactive)
REMARK    1  A    between atoms: C1_1  and  C2_2
REMARK    2  A    between atoms: C8_9  and  C9_10
REMARK    3  A    between atoms: C9_10  and  N2_11
REMARK    4  A    between atoms: C10_12  and  C11_14
REMARK    5  A    between atoms: C15_18  and  N3_19
REMARK    6  A    between atoms: C16_20  and  C17_22
REMARK    7  A    between atoms: C20_25  and  C21_26
REMARK    8  A    between atoms: N5_34  and  C27_35
REMARK                            x       y       z     vdW  Elec       q    Type
REMARK                         _______ _______ _______ _____ _____    ______ ____
ROOT
ATOM      1  N2  UNL     1      -1.895   0.455   0.991  0.00  0.00    -0.304 N 
ATOM      2  C10 UNL     1      -0.567  -0.008   1.280  0.00  0.00    +0.244 C 
ATOM      3  O1  UNL     1      -0.411  -1.024   2.012  0.00  0.00    -0.270 OA
ATOM      4  H9  UNL     1      -2.045   1.154   0.229  0.00  0.00    +0.149 HD
ENDROOT
BRANCH   2   5
ATOM      5  C11 UNL     1       0.629   0.677   0.725  0.00  0.00    +0.038 A 
ATOM      6  C12 UNL     1       0.568   2.013   0.288  0.00  0.00    +0.013 A 
ATOM      7  C13 UNL     1       1.708   2.646  -0.213  0.00  0.00    +0.003 A 
ATOM      8  C14 UNL     1       2.922   1.961  -0.283  0.00  0.00    +0.023 A 
ATOM      9  C15 UNL     1       3.005   0.625   0.143  0.00  0.00    +0.034 A 
ATOM     10  C26 UNL     1       1.860  -0.002   0.660  0.00  0.00    +0.036 A 
BRANCH   9  11
ATOM     11  N3  UNL     1       4.254  -0.089   0.130  0.00  0.00    -0.281 N 
ATOM     12  C16 UNL     1       5.268   0.099  -0.875  0.00  0.00    +0.250 C 
ATOM     13  O2  UNL     1       4.964   0.664  -1.962  0.00  0.00    -0.270 OA
ATOM     14  H13 UNL     1       4.384  -0.815   0.868  0.00  0.00    +0.155 HD
BRANCH  12  15
ATOM     15  C17 UNL     1       6.672  -0.354  -0.671  0.00  0.00    +0.055 A 
ATOM     16  C18 UNL     1       7.702   0.196  -1.454  0.00  0.00    +0.016 A 
ATOM     17  C19 UNL     1       9.026  -0.203  -1.268  0.00  0.00    +0.029 A 
ATOM     18  C20 UNL     1       9.328  -1.165  -0.295  0.00  0.00    +0.078 A 
ATOM     19  N4  UNL     1       8.319  -1.697   0.446  0.00  0.00    -0.254 NA
ATOM     20  C25 UNL     1       7.021  -1.325   0.286  0.00  0.00    +0.124 A 
BRANCH  18  21
ATOM     21  C21 UNL     1      10.715  -1.611  -0.058  0.00  0.00    +0.038 A 
ATOM     22  C22 UNL     1      11.116  -2.538   0.900  0.00  0.00    +0.017 A 
ATOM     23  C23 UNL     1      12.498  -2.766   0.910  0.00  0.00    +0.008 A 
ATOM     24  C24 UNL     1      13.195  -2.026  -0.035  0.00  0.00    +0.046 A 
ATOM     25  S1  UNL     1      12.088  -1.087  -0.884  0.00  0.00    -0.095 S 
ENDBRANCH  18  21
ENDBRANCH  12  15
ENDBRANCH   9  11
ENDBRANCH   2   5
BRANCH   1  26
ATOM     26  C9  UNL     1      -3.060  -0.128   1.657  0.00  0.00    +0.179 C 
BRANCH  26  35
ATOM     27  C1  UNL     1      -8.529   4.754   1.268  0.00  0.00    +0.044 C 
ATOM     28  C2  UNL     1      -7.687   3.548   0.973  0.00  0.00    -0.048 A 
ATOM     29  C3  UNL     1      -8.018   2.699  -0.112  0.00  0.00    +0.005 A 
ATOM     30  C4  UNL     1      -7.218   1.584  -0.421  0.00  0.00    +0.028 A 
ATOM     31  C5  UNL     1      -6.083   1.352   0.367  0.00  0.00    +0.069 A 
ATOM     32  C6  UNL     1      -5.760   2.178   1.403  0.00  0.00    +0.090 A 
ATOM     33  C7  UNL     1      -6.529   3.291   1.735  0.00  0.00    +0.033 A 
ATOM     34  N1  UNL     1      -4.642   1.757   2.012  0.00  0.00    -0.231 NA
ATOM     35  C8  UNL     1      -4.305   0.641   1.315  0.00  0.00    +0.128 A 
ATOM     36  N5  UNL     1      -5.161   0.368   0.280  0.00  0.00    -0.323 N 
BRANCH  36  37
ATOM     37  C27 UNL     1      -5.153  -0.752  -0.684  0.00  0.00    +0.089 C 
ATOM     38  C28 UNL     1      -5.472  -2.101   0.010  0.00  0.00    +0.025 C 
ATOM     39  C29 UNL     1      -4.771  -3.299  -0.657  0.00  0.00    +0.002 C 
ATOM     40  C30 UNL     1      -4.726  -3.136  -2.180  0.00  0.00    +0.000 C 
ATOM     41  C31 UNL     1      -3.937  -1.878  -2.611  0.00  0.00    +0.002 C 
ATOM     42  C32 UNL     1      -3.856  -0.798  -1.514  0.00  0.00    +0.025 C 
ENDBRANCH  36  37
ENDBRANCH  26  35
ENDBRANCH   1  26
TORSDOF 7
