MODEL 1
REMARK VINA RESULT:    -6.531      0.000      0.000
REMARK INTER + INTRA:          -8.278
REMARK INTER:                  -7.867
REMARK INTRA:                  -0.411
REMARK UNBOUND:                -0.411
REMARK  Name = /home/qwerty/github/datacon2025hack/step_04_hit_selection/docking/ligands/lig_50.pdb
REMARK  4 active torsions:
REMARK  status: ('A' for Active; 'I' for Inactive)
REMARK    1  A    between atoms: C1_2  and  C2_3
REMARK    2  A    between atoms: C14_18  and  C15_19
REMARK    3  A    between atoms: C15_19  and  O2_20
REMARK    4  A    between atoms: C15_19  and  C16_21
REMARK                            x       y       z     vdW  Elec       q    Type
REMARK                         _______ _______ _______ _____ _____    ______ ____
ROOT
ATOM      1  O1  UNL     1      19.469   3.442  32.691  0.00  0.00    -0.270 OA
ATOM      2  C1  UNL     1      20.647   3.437  32.244  0.00  0.00    +0.247 C 
ATOM      3  N2  UNL     1      21.100   2.345  31.418  0.00  0.00    -0.292 N 
ATOM      4  C11 UNL     1      22.408   2.304  30.778  0.00  0.00    +0.108 C 
ATOM      5  C12 UNL     1      22.479   0.970  30.048  0.00  0.00    +0.021 C 
ATOM      6  C13 UNL     1      21.043   0.455  29.971  0.00  0.00    +0.027 C 
ATOM      7  C14 UNL     1      20.265   1.201  31.062  0.00  0.00    +0.114 C 
ENDROOT
BRANCH   2   8
ATOM      8  C2  UNL     1      21.546   4.540  32.623  0.00  0.00    +0.040 A 
ATOM      9  C3  UNL     1      22.032   4.620  33.936  0.00  0.00    +0.053 A 
ATOM     10  C4  UNL     1      22.881   5.665  34.317  0.00  0.00    +0.150 A 
ATOM     11  F1  UNL     1      23.349   5.720  35.588  0.00  0.00    -0.203 F 
ATOM     12  C5  UNL     1      23.242   6.646  33.386  0.00  0.00    +0.106 A 
ATOM     13  N1  UNL     1      24.069   7.664  33.749  0.00  0.00    -0.252 NA
ATOM     14  C6  UNL     1      24.434   8.638  32.872  0.00  0.00    +0.111 A 
ATOM     15  C7  UNL     1      23.960   8.611  31.557  0.00  0.00    +0.020 A 
ATOM     16  C8  UNL     1      23.110   7.580  31.154  0.00  0.00    +0.011 A 
ATOM     17  C9  UNL     1      22.743   6.582  32.066  0.00  0.00    +0.004 A 
ATOM     18  C10 UNL     1      21.891   5.532  31.692  0.00  0.00    +0.023 A 
ENDBRANCH   2   8
BRANCH   7  19
ATOM     19  C15 UNL     1      19.904   0.321  32.299  0.00  0.00    +0.238 C 
BRANCH  19  20
ATOM     20  C16 UNL     1      18.402   0.238  32.639  0.00  0.00    +0.417 C 
ATOM     21  F2  UNL     1      17.897  -1.019  32.361  0.00  0.00    -0.168 F 
ATOM     22  F3  UNL     1      18.175   0.537  33.969  0.00  0.00    -0.168 F 
ATOM     23  F4  UNL     1      17.715   1.159  31.868  0.00  0.00    -0.168 F 
ENDBRANCH  19  20
BRANCH  19  24
ATOM     24  O2  UNL     1      20.599   0.783  33.430  0.00  0.00    -0.381 OA
ATOM     25  H14 UNL     1      20.224   0.305  34.215  0.00  0.00    +0.210 HD
ENDBRANCH  19  24
ENDBRANCH   7  19
TORSDOF 4
ENDMDL
MODEL 2
REMARK VINA RESULT:    -6.417      6.860     10.481
REMARK INTER + INTRA:          -8.141
REMARK INTER:                  -7.717
REMARK INTRA:                  -0.424
REMARK UNBOUND:                -0.411
REMARK  Name = /home/qwerty/github/datacon2025hack/step_04_hit_selection/docking/ligands/lig_50.pdb
REMARK  4 active torsions:
REMARK  status: ('A' for Active; 'I' for Inactive)
REMARK    1  A    between atoms: C1_2  and  C2_3
REMARK    2  A    between atoms: C14_18  and  C15_19
REMARK    3  A    between atoms: C15_19  and  O2_20
REMARK    4  A    between atoms: C15_19  and  C16_21
REMARK                            x       y       z     vdW  Elec       q    Type
REMARK                         _______ _______ _______ _____ _____    ______ ____
ROOT
ATOM      1  O1  UNL     1      19.328   3.313  25.119  0.00  0.00    -0.270 OA
ATOM      2  C1  UNL     1      19.484   2.172  25.632  0.00  0.00    +0.247 C 
ATOM      3  N2  UNL     1      20.605   1.922  26.504  0.00  0.00    -0.292 N 
ATOM      4  C11 UNL     1      20.810   0.668  27.217  0.00  0.00    +0.108 C 
ATOM      5  C12 UNL     1      22.120   0.824  27.976  0.00  0.00    +0.021 C 
ATOM      6  C13 UNL     1      22.428   2.320  27.983  0.00  0.00    +0.027 C 
ATOM      7  C14 UNL     1      21.612   2.926  26.835  0.00  0.00    +0.114 C 
ENDROOT
BRANCH   2   8
ATOM      8  C2  UNL     1      18.527   1.109  25.282  0.00  0.00    +0.040 A 
ATOM      9  C3  UNL     1      18.573   0.526  24.008  0.00  0.00    +0.053 A 
ATOM     10  C4  UNL     1      17.668  -0.481  23.655  0.00  0.00    +0.150 A 
ATOM     11  F1  UNL     1      17.734  -1.041  22.422  0.00  0.00    -0.203 F 
ATOM     12  C5  UNL     1      16.700  -0.904  24.574  0.00  0.00    +0.106 A 
ATOM     13  N1  UNL     1      15.817  -1.883  24.237  0.00  0.00    -0.252 NA
ATOM     14  C6  UNL     1      14.860  -2.313  25.104  0.00  0.00    +0.111 A 
ATOM     15  C7  UNL     1      14.763  -1.748  26.378  0.00  0.00    +0.020 A 
ATOM     16  C8  UNL     1      15.653  -0.741  26.754  0.00  0.00    +0.011 A 
ATOM     17  C9  UNL     1      16.636  -0.308  25.853  0.00  0.00    +0.004 A 
ATOM     18  C10 UNL     1      17.546   0.701  26.200  0.00  0.00    +0.023 A 
ENDBRANCH   2   8
BRANCH   7  19
ATOM     19  C15 UNL     1      22.467   3.341  25.597  0.00  0.00    +0.238 C 
BRANCH  19  20
ATOM     20  C16 UNL     1      22.438   4.842  25.243  0.00  0.00    +0.417 C 
ATOM     21  F2  UNL     1      23.645   5.447  25.536  0.00  0.00    -0.168 F 
ATOM     22  F3  UNL     1      22.143   5.031  23.905  0.00  0.00    -0.168 F 
ATOM     23  F4  UNL     1      21.453   5.461  25.991  0.00  0.00    -0.168 F 
ENDBRANCH  19  20
BRANCH  19  24
ATOM     24  O2  UNL     1      22.064   2.603  24.472  0.00  0.00    -0.381 OA
ATOM     25  H14 UNL     1      22.749   1.899  24.327  0.00  0.00    +0.210 HD
ENDBRANCH  19  24
ENDBRANCH   7  19
TORSDOF 4
ENDMDL
MODEL 3
REMARK VINA RESULT:    -6.382     13.451     14.700
REMARK INTER + INTRA:          -8.099
REMARK INTER:                  -7.738
REMARK INTRA:                  -0.361
REMARK UNBOUND:                -0.411
REMARK  Name = /home/qwerty/github/datacon2025hack/step_04_hit_selection/docking/ligands/lig_50.pdb
REMARK  4 active torsions:
REMARK  status: ('A' for Active; 'I' for Inactive)
REMARK    1  A    between atoms: C1_2  and  C2_3
REMARK    2  A    between atoms: C14_18  and  C15_19
REMARK    3  A    between atoms: C15_19  and  O2_20
REMARK    4  A    between atoms: C15_19  and  C16_21
REMARK                            x       y       z     vdW  Elec       q    Type
REMARK                         _______ _______ _______ _____ _____    ______ ____
ROOT
ATOM      1  O1  UNL     1      13.674  13.169  29.978  0.00  0.00    -0.270 OA
ATOM      2  C1  UNL     1      12.540  13.225  30.525  0.00  0.00    +0.247 C 
ATOM      3  N2  UNL     1      11.357  13.393  29.717  0.00  0.00    -0.292 N 
ATOM      4  C11 UNL     1      10.003  13.368  30.252  0.00  0.00    +0.108 C 
ATOM      5  C12 UNL     1       9.078  13.623  29.070  0.00  0.00    +0.021 C 
ATOM      6  C13 UNL     1       9.922  13.395  27.818  0.00  0.00    +0.027 C 
ATOM      7  C14 UNL     1      11.384  13.519  28.263  0.00  0.00    +0.114 C 
ENDROOT
BRANCH   2   8
ATOM      8  C2  UNL     1      12.466  13.160  31.994  0.00  0.00    +0.040 A 
ATOM      9  C3  UNL     1      12.999  14.204  32.763  0.00  0.00    +0.053 A 
ATOM     10  C4  UNL     1      12.944  14.157  34.160  0.00  0.00    +0.150 A 
ATOM     11  F1  UNL     1      13.456  15.181  34.887  0.00  0.00    -0.203 F 
ATOM     12  C5  UNL     1      12.364  13.055  34.800  0.00  0.00    +0.106 A 
ATOM     13  N1  UNL     1      12.307  13.004  36.159  0.00  0.00    -0.252 NA
ATOM     14  C6  UNL     1      11.756  11.945  36.812  0.00  0.00    +0.111 A 
ATOM     15  C7  UNL     1      11.229  10.871  36.089  0.00  0.00    +0.020 A 
ATOM     16  C8  UNL     1      11.273  10.894  34.695  0.00  0.00    +0.011 A 
ATOM     17  C9  UNL     1      11.841  11.991  34.033  0.00  0.00    +0.004 A 
ATOM     18  C10 UNL     1      11.900  12.045  32.633  0.00  0.00    +0.023 A 
ENDBRANCH   2   8
BRANCH   7  19
ATOM     19  C15 UNL     1      12.081  14.834  27.793  0.00  0.00    +0.238 C 
BRANCH  19  20
ATOM     20  C16 UNL     1      13.370  14.644  26.968  0.00  0.00    +0.417 C 
ATOM     21  F2  UNL     1      14.402  15.415  27.470  0.00  0.00    -0.168 F 
ATOM     22  F3  UNL     1      13.758  13.317  26.949  0.00  0.00    -0.168 F 
ATOM     23  F4  UNL     1      13.131  15.041  25.664  0.00  0.00    -0.168 F 
ENDBRANCH  19  20
BRANCH  19  24
ATOM     24  O2  UNL     1      12.372  15.641  28.906  0.00  0.00    -0.381 OA
ATOM     25  H14 UNL     1      11.918  15.231  29.687  0.00  0.00    +0.210 HD
ENDBRANCH  19  24
ENDBRANCH   7  19
TORSDOF 4
ENDMDL
MODEL 4
REMARK VINA RESULT:    -6.178     15.081     16.390
REMARK INTER + INTRA:          -7.853
REMARK INTER:                  -7.414
REMARK INTRA:                  -0.440
REMARK UNBOUND:                -0.411
REMARK  Name = /home/qwerty/github/datacon2025hack/step_04_hit_selection/docking/ligands/lig_50.pdb
REMARK  4 active torsions:
REMARK  status: ('A' for Active; 'I' for Inactive)
REMARK    1  A    between atoms: C1_2  and  C2_3
REMARK    2  A    between atoms: C14_18  and  C15_19
REMARK    3  A    between atoms: C15_19  and  O2_20
REMARK    4  A    between atoms: C15_19  and  C16_21
REMARK                            x       y       z     vdW  Elec       q    Type
REMARK                         _______ _______ _______ _____ _____    ______ ____
ROOT
ATOM      1  O1  UNL     1       8.969   8.343  27.149  0.00  0.00    -0.270 OA
ATOM      2  C1  UNL     1       8.850   9.528  26.737  0.00  0.00    +0.247 C 
ATOM      3  N2  UNL     1       8.587  10.592  27.675  0.00  0.00    -0.292 N 
ATOM      4  C11 UNL     1       8.533  12.000  27.304  0.00  0.00    +0.108 C 
ATOM      5  C12 UNL     1       8.193  12.759  28.579  0.00  0.00    +0.021 C 
ATOM      6  C13 UNL     1       8.450  11.788  29.729  0.00  0.00    +0.027 C 
ATOM      7  C14 UNL     1       8.432  10.384  29.111  0.00  0.00    +0.114 C 
ENDROOT
BRANCH   2   8
ATOM      8  C2  UNL     1       8.940   9.781  25.290  0.00  0.00    +0.040 A 
ATOM      9  C3  UNL     1       7.772  10.033  24.555  0.00  0.00    +0.053 A 
ATOM     10  C4  UNL     1       7.838  10.269  23.177  0.00  0.00    +0.150 A 
ATOM     11  F1  UNL     1       6.699  10.521  22.485  0.00  0.00    -0.203 F 
ATOM     12  C5  UNL     1       9.074  10.243  22.522  0.00  0.00    +0.106 A 
ATOM     13  N1  UNL     1       9.144  10.472  21.182  0.00  0.00    -0.252 NA
ATOM     14  C6  UNL     1      10.329  10.447  20.513  0.00  0.00    +0.111 A 
ATOM     15  C7  UNL     1      11.517  10.181  21.199  0.00  0.00    +0.020 A 
ATOM     16  C8  UNL     1      11.478   9.942  22.573  0.00  0.00    +0.011 A 
ATOM     17  C9  UNL     1      10.252   9.972  23.252  0.00  0.00    +0.004 A 
ATOM     18  C10 UNL     1      10.179   9.736  24.632  0.00  0.00    +0.023 A 
ENDBRANCH   2   8
BRANCH   7  19
ATOM     19  C15 UNL     1       7.157   9.554  29.458  0.00  0.00    +0.238 C 
BRANCH  19  20
ATOM     20  C16 UNL     1       7.403   8.266  30.269  0.00  0.00    +0.417 C 
ATOM     21  F2  UNL     1       8.755   7.999  30.383  0.00  0.00    -0.168 F 
ATOM     22  F3  UNL     1       6.848   8.360  31.532  0.00  0.00    -0.168 F 
ATOM     23  F4  UNL     1       6.807   7.202  29.615  0.00  0.00    -0.168 F 
ENDBRANCH  19  20
BRANCH  19  24
ATOM     24  O2  UNL     1       6.472   9.221  28.277  0.00  0.00    -0.381 OA
ATOM     25  H14 UNL     1       7.146   8.865  27.642  0.00  0.00    +0.210 HD
ENDBRANCH  19  24
ENDBRANCH   7  19
TORSDOF 4
ENDMDL
MODEL 5
REMARK VINA RESULT:    -6.177     14.633     16.443
REMARK INTER + INTRA:          -7.852
REMARK INTER:                  -7.497
REMARK INTRA:                  -0.355
REMARK UNBOUND:                -0.411
REMARK  Name = /home/qwerty/github/datacon2025hack/step_04_hit_selection/docking/ligands/lig_50.pdb
REMARK  4 active torsions:
REMARK  status: ('A' for Active; 'I' for Inactive)
REMARK    1  A    between atoms: C1_2  and  C2_3
REMARK    2  A    between atoms: C14_18  and  C15_19
REMARK    3  A    between atoms: C15_19  and  O2_20
REMARK    4  A    between atoms: C15_19  and  C16_21
REMARK                            x       y       z     vdW  Elec       q    Type
REMARK                         _______ _______ _______ _____ _____    ______ ____
ROOT
ATOM      1  O1  UNL     1       9.282   3.887  20.949  0.00  0.00    -0.270 OA
ATOM      2  C1  UNL     1      10.302   4.559  21.256  0.00  0.00    +0.247 C 
ATOM      3  N2  UNL     1      10.154   5.819  21.943  0.00  0.00    -0.292 N 
ATOM      4  C11 UNL     1      11.277   6.613  22.425  0.00  0.00    +0.108 C 
ATOM      5  C12 UNL     1      10.672   7.866  23.043  0.00  0.00    +0.021 C 
ATOM      6  C13 UNL     1       9.189   7.562  23.246  0.00  0.00    +0.027 C 
ATOM      7  C14 UNL     1       8.863   6.394  22.308  0.00  0.00    +0.114 C 
ENDROOT
BRANCH   2   8
ATOM      8  C2  UNL     1      11.625   4.049  20.859  0.00  0.00    +0.040 A 
ATOM      9  C3  UNL     1      12.403   4.775  19.944  0.00  0.00    +0.053 A 
ATOM     10  C4  UNL     1      13.659   4.302  19.550  0.00  0.00    +0.150 A 
ATOM     11  F1  UNL     1      14.401   5.023  18.673  0.00  0.00    -0.203 F 
ATOM     12  C5  UNL     1      14.142   3.092  20.059  0.00  0.00    +0.106 A 
ATOM     13  N1  UNL     1      15.364   2.627  19.680  0.00  0.00    -0.252 NA
ATOM     14  C6  UNL     1      15.860   1.451  20.151  0.00  0.00    +0.111 A 
ATOM     15  C7  UNL     1      15.114   0.684  21.049  0.00  0.00    +0.020 A 
ATOM     16  C8  UNL     1      13.857   1.132  21.457  0.00  0.00    +0.011 A 
ATOM     17  C9  UNL     1      13.357   2.346  20.967  0.00  0.00    +0.004 A 
ATOM     18  C10 UNL     1      12.098   2.826  21.358  0.00  0.00    +0.023 A 
ENDBRANCH   2   8
BRANCH   7  19
ATOM     19  C15 UNL     1       8.018   6.798  21.060  0.00  0.00    +0.238 C 
BRANCH  19  20
ATOM     20  C16 UNL     1       6.698   6.024  20.872  0.00  0.00    +0.417 C 
ATOM     21  F2  UNL     1       6.452   5.189  21.947  0.00  0.00    -0.168 F 
ATOM     22  F3  UNL     1       5.632   6.890  20.713  0.00  0.00    -0.168 F 
ATOM     23  F4  UNL     1       6.792   5.244  19.733  0.00  0.00    -0.168 F 
ENDBRANCH  19  20
BRANCH  19  24
ATOM     24  O2  UNL     1       8.794   6.658  19.896  0.00  0.00    -0.381 OA
ATOM     25  H14 UNL     1       8.584   7.434  19.313  0.00  0.00    +0.210 HD
ENDBRANCH  19  24
ENDBRANCH   7  19
TORSDOF 4
ENDMDL
MODEL 6
REMARK VINA RESULT:    -6.085     14.792     16.043
REMARK INTER + INTRA:          -7.742
REMARK INTER:                  -7.373
REMARK INTRA:                  -0.369
REMARK UNBOUND:                -0.411
REMARK  Name = /home/qwerty/github/datacon2025hack/step_04_hit_selection/docking/ligands/lig_50.pdb
REMARK  4 active torsions:
REMARK  status: ('A' for Active; 'I' for Inactive)
REMARK    1  A    between atoms: C1_2  and  C2_3
REMARK    2  A    between atoms: C14_18  and  C15_19
REMARK    3  A    between atoms: C15_19  and  O2_20
REMARK    4  A    between atoms: C15_19  and  C16_21
REMARK                            x       y       z     vdW  Elec       q    Type
REMARK                         _______ _______ _______ _____ _____    ______ ____
ROOT
ATOM      1  O1  UNL     1       9.368   8.251  27.555  0.00  0.00    -0.270 OA
ATOM      2  C1  UNL     1       9.267   9.400  27.047  0.00  0.00    +0.247 C 
ATOM      3  N2  UNL     1       8.795  10.503  27.848  0.00  0.00    -0.292 N 
ATOM      4  C11 UNL     1       8.742  11.880  27.375  0.00  0.00    +0.108 C 
ATOM      5  C12 UNL     1       8.149  12.694  28.516  0.00  0.00    +0.021 C 
ATOM      6  C13 UNL     1       8.245  11.812  29.759  0.00  0.00    +0.027 C 
ATOM      7  C14 UNL     1       8.401  10.374  29.247  0.00  0.00    +0.114 C 
ENDROOT
BRANCH   2   8
ATOM      8  C2  UNL     1       9.599   9.569  25.622  0.00  0.00    +0.040 A 
ATOM      9  C3  UNL     1      10.931   9.451  25.201  0.00  0.00    +0.053 A 
ATOM     10  C4  UNL     1      11.266   9.615  23.852  0.00  0.00    +0.150 A 
ATOM     11  F1  UNL     1      12.559   9.487  23.462  0.00  0.00    -0.203 F 
ATOM     12  C5  UNL     1      10.269   9.910  22.916  0.00  0.00    +0.106 A 
ATOM     13  N1  UNL     1      10.588  10.070  21.602  0.00  0.00    -0.252 NA
ATOM     14  C6  UNL     1       9.645  10.365  20.667  0.00  0.00    +0.111 A 
ATOM     15  C7  UNL     1       8.307  10.511  21.042  0.00  0.00    +0.020 A 
ATOM     16  C8  UNL     1       7.947  10.353  22.381  0.00  0.00    +0.011 A 
ATOM     17  C9  UNL     1       8.928  10.049  23.335  0.00  0.00    +0.004 A 
ATOM     18  C10 UNL     1       8.599   9.883  24.689  0.00  0.00    +0.023 A 
ENDBRANCH   2   8
BRANCH   7  19
ATOM     19  C15 UNL     1       7.124   9.495  29.427  0.00  0.00    +0.238 C 
BRANCH  19  20
ATOM     20  C16 UNL     1       7.306   8.228  30.287  0.00  0.00    +0.417 C 
ATOM     21  F2  UNL     1       6.753   8.394  31.543  0.00  0.00    -0.168 F 
ATOM     22  F3  UNL     1       6.735   7.126  29.678  0.00  0.00    -0.168 F 
ATOM     23  F4  UNL     1       8.659   7.980  30.441  0.00  0.00    -0.168 F 
ENDBRANCH  19  20
BRANCH  19  24
ATOM     24  O2  UNL     1       6.625   9.119  28.168  0.00  0.00    -0.381 OA
ATOM     25  H14 UNL     1       5.644   9.008  28.267  0.00  0.00    +0.210 HD
ENDBRANCH  19  24
ENDBRANCH   7  19
TORSDOF 4
ENDMDL
MODEL 7
REMARK VINA RESULT:    -5.981      5.665      8.798
REMARK INTER + INTRA:          -7.616
REMARK INTER:                  -7.354
REMARK INTRA:                  -0.261
REMARK UNBOUND:                -0.411
REMARK  Name = /home/qwerty/github/datacon2025hack/step_04_hit_selection/docking/ligands/lig_50.pdb
REMARK  4 active torsions:
REMARK  status: ('A' for Active; 'I' for Inactive)
REMARK    1  A    between atoms: C1_2  and  C2_3
REMARK    2  A    between atoms: C14_18  and  C15_19
REMARK    3  A    between atoms: C15_19  and  O2_20
REMARK    4  A    between atoms: C15_19  and  C16_21
REMARK                            x       y       z     vdW  Elec       q    Type
REMARK                         _______ _______ _______ _____ _____    ______ ____
ROOT
ATOM      1  O1  UNL     1      22.558   2.471  26.277  0.00  0.00    -0.270 OA
ATOM      2  C1  UNL     1      21.404   2.193  26.702  0.00  0.00    +0.247 C 
ATOM      3  N2  UNL     1      21.190   1.972  28.111  0.00  0.00    -0.292 N 
ATOM      4  C11 UNL     1      19.878   1.745  28.703  0.00  0.00    +0.108 C 
ATOM      5  C12 UNL     1      20.119   1.521  30.189  0.00  0.00    +0.021 C 
ATOM      6  C13 UNL     1      21.536   2.020  30.466  0.00  0.00    +0.027 C 
ATOM      7  C14 UNL     1      22.252   2.038  29.110  0.00  0.00    +0.114 C 
ENDROOT
BRANCH   2   8
ATOM      8  C2  UNL     1      20.310   2.059  25.726  0.00  0.00    +0.040 A 
ATOM      9  C3  UNL     1      19.802   3.202  25.091  0.00  0.00    +0.053 A 
ATOM     10  C4  UNL     1      18.758   3.095  24.166  0.00  0.00    +0.150 A 
ATOM     11  F1  UNL     1      18.286   4.209  23.555  0.00  0.00    -0.203 F 
ATOM     12  C5  UNL     1      18.206   1.841  23.877  0.00  0.00    +0.106 A 
ATOM     13  N1  UNL     1      17.190   1.730  22.978  0.00  0.00    -0.252 NA
ATOM     14  C6  UNL     1      16.627   0.528  22.680  0.00  0.00    +0.111 A 
ATOM     15  C7  UNL     1      17.087  -0.636  23.301  0.00  0.00    +0.020 A 
ATOM     16  C8  UNL     1      18.126  -0.556  24.228  0.00  0.00    +0.011 A 
ATOM     17  C9  UNL     1      18.700   0.688  24.526  0.00  0.00    +0.004 A 
ATOM     18  C10 UNL     1      19.747   0.803  25.452  0.00  0.00    +0.023 A 
ENDBRANCH   2   8
BRANCH   7  19
ATOM     19  C15 UNL     1      23.306   0.900  28.933  0.00  0.00    +0.238 C 
BRANCH  19  20
ATOM     20  C16 UNL     1      22.733  -0.530  28.868  0.00  0.00    +0.417 C 
ATOM     21  F2  UNL     1      21.875  -0.773  29.924  0.00  0.00    -0.168 F 
ATOM     22  F3  UNL     1      22.065  -0.745  27.677  0.00  0.00    -0.168 F 
ATOM     23  F4  UNL     1      23.777  -1.436  28.945  0.00  0.00    -0.168 F 
ENDBRANCH  19  20
BRANCH  19  24
ATOM     24  O2  UNL     1      24.251   0.963  29.971  0.00  0.00    -0.381 OA
ATOM     25  H14 UNL     1      24.154   1.853  30.398  0.00  0.00    +0.210 HD
ENDBRANCH  19  24
ENDBRANCH   7  19
TORSDOF 4
ENDMDL
MODEL 8
REMARK VINA RESULT:    -5.924     13.557     14.478
REMARK INTER + INTRA:          -7.547
REMARK INTER:                  -7.391
REMARK INTRA:                  -0.156
REMARK UNBOUND:                -0.411
REMARK  Name = /home/qwerty/github/datacon2025hack/step_04_hit_selection/docking/ligands/lig_50.pdb
REMARK  4 active torsions:
REMARK  status: ('A' for Active; 'I' for Inactive)
REMARK    1  A    between atoms: C1_2  and  C2_3
REMARK    2  A    between atoms: C14_18  and  C15_19
REMARK    3  A    between atoms: C15_19  and  O2_20
REMARK    4  A    between atoms: C15_19  and  C16_21
REMARK                            x       y       z     vdW  Elec       q    Type
REMARK                         _______ _______ _______ _____ _____    ______ ____
ROOT
ATOM      1  O1  UNL     1      12.291  14.599  30.067  0.00  0.00    -0.270 OA
ATOM      2  C1  UNL     1      11.923  13.659  30.821  0.00  0.00    +0.247 C 
ATOM      3  N2  UNL     1      11.141  12.571  30.287  0.00  0.00    -0.292 N 
ATOM      4  C11 UNL     1      10.758  11.396  31.059  0.00  0.00    +0.108 C 
ATOM      5  C12 UNL     1       9.916  10.536  30.127  0.00  0.00    +0.021 C 
ATOM      6  C13 UNL     1      10.173  11.065  28.717  0.00  0.00    +0.027 C 
ATOM      7  C14 UNL     1      10.722  12.486  28.891  0.00  0.00    +0.114 C 
ENDROOT
BRANCH   2   8
ATOM      8  C2  UNL     1      12.272  13.727  32.250  0.00  0.00    +0.040 A 
ATOM      9  C3  UNL     1      11.282  14.041  33.192  0.00  0.00    +0.053 A 
ATOM     10  C4  UNL     1      11.596  14.118  34.553  0.00  0.00    +0.150 A 
ATOM     11  F1  UNL     1      10.623  14.412  35.451  0.00  0.00    -0.203 F 
ATOM     12  C5  UNL     1      12.910  13.892  34.981  0.00  0.00    +0.106 A 
ATOM     13  N1  UNL     1      13.222  13.965  36.304  0.00  0.00    -0.252 NA
ATOM     14  C6  UNL     1      14.489  13.758  36.752  0.00  0.00    +0.111 A 
ATOM     15  C7  UNL     1      15.514  13.462  35.849  0.00  0.00    +0.020 A 
ATOM     16  C8  UNL     1      15.226  13.380  34.486  0.00  0.00    +0.011 A 
ATOM     17  C9  UNL     1      13.916  13.594  34.036  0.00  0.00    +0.004 A 
ATOM     18  C10 UNL     1      13.594  13.519  32.673  0.00  0.00    +0.023 A 
ENDBRANCH   2   8
BRANCH   7  19
ATOM     19  C15 UNL     1       9.709  13.609  28.506  0.00  0.00    +0.238 C 
BRANCH  19  20
ATOM     20  C16 UNL     1       8.304  13.123  28.094  0.00  0.00    +0.417 C 
ATOM     21  F2  UNL     1       8.381  12.133  27.132  0.00  0.00    -0.168 F 
ATOM     22  F3  UNL     1       7.602  12.647  29.185  0.00  0.00    -0.168 F 
ATOM     23  F4  UNL     1       7.599  14.188  27.560  0.00  0.00    -0.168 F 
ENDBRANCH  19  20
BRANCH  19  24
ATOM     24  O2  UNL     1      10.240  14.392  27.467  0.00  0.00    -0.381 OA
ATOM     25  H14 UNL     1      10.467  13.773  26.725  0.00  0.00    +0.210 HD
ENDBRANCH  19  24
ENDBRANCH   7  19
TORSDOF 4
ENDMDL
MODEL 9
REMARK VINA RESULT:    -5.838     13.052     14.286
REMARK INTER + INTRA:          -7.444
REMARK INTER:                  -7.010
REMARK INTRA:                  -0.434
REMARK UNBOUND:                -0.411
REMARK  Name = /home/qwerty/github/datacon2025hack/step_04_hit_selection/docking/ligands/lig_50.pdb
REMARK  4 active torsions:
REMARK  status: ('A' for Active; 'I' for Inactive)
REMARK    1  A    between atoms: C1_2  and  C2_3
REMARK    2  A    between atoms: C14_18  and  C15_19
REMARK    3  A    between atoms: C15_19  and  O2_20
REMARK    4  A    between atoms: C15_19  and  C16_21
REMARK                            x       y       z     vdW  Elec       q    Type
REMARK                         _______ _______ _______ _____ _____    ______ ____
ROOT
ATOM      1  O1  UNL     1      13.676  11.340  32.628  0.00  0.00    -0.270 OA
ATOM      2  C1  UNL     1      12.722  12.153  32.767  0.00  0.00    +0.247 C 
ATOM      3  N2  UNL     1      12.365  12.626  34.081  0.00  0.00    -0.292 N 
ATOM      4  C11 UNL     1      11.346  13.639  34.326  0.00  0.00    +0.108 C 
ATOM      5  C12 UNL     1      11.268  13.801  35.837  0.00  0.00    +0.021 C 
ATOM      6  C13 UNL     1      12.532  13.152  36.397  0.00  0.00    +0.027 C 
ATOM      7  C14 UNL     1      13.043  12.206  35.304  0.00  0.00    +0.114 C 
ENDROOT
BRANCH   2   8
ATOM      8  C2  UNL     1      11.970  12.562  31.569  0.00  0.00    +0.040 A 
ATOM      9  C3  UNL     1      12.371  13.698  30.851  0.00  0.00    +0.053 A 
ATOM     10  C4  UNL     1      11.664  14.105  29.715  0.00  0.00    +0.150 A 
ATOM     11  F1  UNL     1      12.073  15.200  29.027  0.00  0.00    -0.203 F 
ATOM     12  C5  UNL     1      10.540  13.384  29.295  0.00  0.00    +0.106 A 
ATOM     13  N1  UNL     1       9.849  13.776  28.190  0.00  0.00    -0.252 NA
ATOM     14  C6  UNL     1       8.749  13.101  27.758  0.00  0.00    +0.111 A 
ATOM     15  C7  UNL     1       8.299  11.975  28.452  0.00  0.00    +0.020 A 
ATOM     16  C8  UNL     1       8.986  11.548  29.589  0.00  0.00    +0.011 A 
ATOM     17  C9  UNL     1      10.119  12.250  30.023  0.00  0.00    +0.004 A 
ATOM     18  C10 UNL     1      10.833  11.847  31.161  0.00  0.00    +0.023 A 
ENDBRANCH   2   8
BRANCH   7  19
ATOM     19  C15 UNL     1      12.821  10.694  35.618  0.00  0.00    +0.238 C 
BRANCH  19  20
ATOM     20  C16 UNL     1      11.360  10.279  35.885  0.00  0.00    +0.417 C 
ATOM     21  F2  UNL     1      10.877  10.871  37.037  0.00  0.00    -0.168 F 
ATOM     22  F3  UNL     1      10.544  10.615  34.821  0.00  0.00    -0.168 F 
ATOM     23  F4  UNL     1      11.306   8.907  36.051  0.00  0.00    -0.168 F 
ENDBRANCH  19  20
BRANCH  19  24
ATOM     24  O2  UNL     1      13.607  10.317  36.720  0.00  0.00    -0.381 OA
ATOM     25  H14 UNL     1      13.160   9.538  37.142  0.00  0.00    +0.210 HD
ENDBRANCH  19  24
ENDBRANCH   7  19
TORSDOF 4
ENDMDL
