MODEL 1
REMARK VINA RESULT:    -7.805      0.000      0.000
REMARK INTER + INTRA:         -10.330
REMARK INTER:                  -9.630
REMARK INTRA:                  -0.700
REMARK UNBOUND:                -0.700
REMARK  Name = /home/qwerty/github/datacon2025hack/step_04_hit_selection/docking/ligands/lig_194.pdb
REMARK  4 active torsions:
REMARK  status: ('A' for Active; 'I' for Inactive)
REMARK    1  A    between atoms: C1_2  and  C20_27
REMARK    2  A    between atoms: N1_3  and  C2_4
REMARK    3  A    between atoms: C10_12  and  C11_13
REMARK    4  A    between atoms: N2_15  and  C12_16
REMARK                            x       y       z     vdW  Elec       q    Type
REMARK                         _______ _______ _______ _____ _____    ______ ____
ROOT
ATOM      1  C2  UNL     1      16.979  11.268  36.722  0.00  0.00    +0.034 A 
ATOM      2  C3  UNL     1      15.882  10.635  37.335  0.00  0.00    +0.027 A 
ATOM      3  C4  UNL     1      14.612  11.215  37.284  0.00  0.00    +0.048 A 
ATOM      4  C5  UNL     1      14.423  12.440  36.638  0.00  0.00    +0.125 A 
ATOM      5  C6  UNL     1      15.520  13.106  36.060  0.00  0.00    -0.004 A 
ATOM      6  C7  UNL     1      16.789  12.511  36.098  0.00  0.00    +0.030 A 
ATOM      7  C8  UNL     1      15.319  14.418  35.346  0.00  0.00    +0.043 C 
ATOM      8  C9  UNL     1      14.047  15.134  35.823  0.00  0.00    +0.059 C 
ATOM      9  C10 UNL     1      12.840  14.179  35.832  0.00  0.00    +0.259 C 
ATOM     10  O5  UNL     1      13.142  13.005  36.594  0.00  0.00    -0.479 OA
ENDROOT
BRANCH   1  13
ATOM     11  O1  UNL     1      18.140   9.443  34.804  0.00  0.00    -0.270 OA
ATOM     12  C1  UNL     1      18.743   9.646  35.893  0.00  0.00    +0.248 C 
ATOM     13  N1  UNL     1      18.297  10.696  36.770  0.00  0.00    -0.281 N 
ATOM     14  H1  UNL     1      19.004  11.151  37.389  0.00  0.00    +0.155 HD
BRANCH  12  15
ATOM     15  C20 UNL     1      19.935   8.829  36.229  0.00  0.00    +0.037 A 
ATOM     16  C21 UNL     1      21.118   8.960  35.476  0.00  0.00    +0.014 A 
ATOM     17  C22 UNL     1      22.244   8.194  35.787  0.00  0.00    +0.021 A 
ATOM     18  C23 UNL     1      22.204   7.282  36.844  0.00  0.00    +0.041 A 
ATOM     19 CL1  UNL     1      23.619   6.322  37.231  0.00  0.00    -0.084 Cl
ATOM     20  C24 UNL     1      21.032   7.134  37.591  0.00  0.00    +0.021 A 
ATOM     21  C25 UNL     1      19.902   7.900  37.286  0.00  0.00    +0.014 A 
ENDBRANCH  12  15
ENDBRANCH   1  13
BRANCH   9  22
ATOM     22  C11 UNL     1      12.429  13.811  34.431  0.00  0.00    +0.258 C 
ATOM     23  O2  UNL     1      12.328  12.596  34.104  0.00  0.00    -0.271 OA
ATOM     24  N2  UNL     1      12.157  14.846  33.474  0.00  0.00    -0.282 N 
ATOM     25  H10 UNL     1      11.966  15.808  33.836  0.00  0.00    +0.155 HD
BRANCH  24  26
ATOM     26  C12 UNL     1      12.052  14.624  32.057  0.00  0.00    +0.037 A 
ATOM     27  C13 UNL     1      13.032  15.099  31.164  0.00  0.00    +0.027 A 
ATOM     28  C14 UNL     1      12.898  14.887  29.788  0.00  0.00    +0.051 A 
ATOM     29  C15 UNL     1      11.781  14.211  29.293  0.00  0.00    +0.162 A 
ATOM     30  C16 UNL     1      10.777  13.778  30.170  0.00  0.00    +0.164 A 
ATOM     31  C17 UNL     1      10.914  13.977  31.547  0.00  0.00    +0.072 A 
ATOM     32  O3  UNL     1       9.642  13.150  29.647  0.00  0.00    -0.485 OA
ATOM     33  C18 UNL     1       9.359  13.185  28.245  0.00  0.00    +0.270 C 
ATOM     34  C19 UNL     1      10.656  13.046  27.438  0.00  0.00    +0.270 C 
ATOM     35  O4  UNL     1      11.643  13.960  27.924  0.00  0.00    -0.485 OA
ENDBRANCH  24  26
ENDBRANCH   9  22
TORSDOF 4
ENDMDL
MODEL 2
REMARK VINA RESULT:    -7.757      9.503     11.107
REMARK INTER + INTRA:         -10.271
REMARK INTER:                  -9.562
REMARK INTRA:                  -0.709
REMARK UNBOUND:                -0.700
REMARK  Name = /home/qwerty/github/datacon2025hack/step_04_hit_selection/docking/ligands/lig_194.pdb
REMARK  4 active torsions:
REMARK  status: ('A' for Active; 'I' for Inactive)
REMARK    1  A    between atoms: C1_2  and  C20_27
REMARK    2  A    between atoms: N1_3  and  C2_4
REMARK    3  A    between atoms: C10_12  and  C11_13
REMARK    4  A    between atoms: N2_15  and  C12_16
REMARK                            x       y       z     vdW  Elec       q    Type
REMARK                         _______ _______ _______ _____ _____    ______ ____
ROOT
ATOM      1  C2  UNL     1      22.973  13.448  28.768  0.00  0.00    +0.034 A 
ATOM      2  C3  UNL     1      22.095  14.442  29.237  0.00  0.00    +0.027 A 
ATOM      3  C4  UNL     1      21.793  15.551  28.443  0.00  0.00    +0.048 A 
ATOM      4  C5  UNL     1      22.373  15.691  27.179  0.00  0.00    +0.125 A 
ATOM      5  C6  UNL     1      23.287  14.726  26.715  0.00  0.00    -0.004 A 
ATOM      6  C7  UNL     1      23.574  13.606  27.510  0.00  0.00    +0.030 A 
ATOM      7  C8  UNL     1      23.903  14.862  25.346  0.00  0.00    +0.043 C 
ATOM      8  C9  UNL     1      23.886  16.318  24.858  0.00  0.00    +0.059 C 
ATOM      9  C10 UNL     1      22.494  16.950  25.039  0.00  0.00    +0.259 C 
ATOM     10  O5  UNL     1      22.056  16.807  26.395  0.00  0.00    -0.479 OA
ENDROOT
BRANCH   1  13
ATOM     11  O1  UNL     1      21.216  11.265  29.480  0.00  0.00    -0.270 OA
ATOM     12  C1  UNL     1      22.338  11.354  30.050  0.00  0.00    +0.248 C 
ATOM     13  N1  UNL     1      23.307  12.304  29.571  0.00  0.00    -0.281 N 
ATOM     14  H1  UNL     1      24.319  12.083  29.708  0.00  0.00    +0.155 HD
BRANCH  12  15
ATOM     15  C20 UNL     1      22.658  10.443  31.176  0.00  0.00    +0.037 A 
ATOM     16  C21 UNL     1      23.991  10.063  31.423  0.00  0.00    +0.014 A 
ATOM     17  C22 UNL     1      24.299   9.205  32.482  0.00  0.00    +0.021 A 
ATOM     18  C23 UNL     1      23.283   8.708  33.301  0.00  0.00    +0.041 A 
ATOM     19 CL1  UNL     1      23.673   7.631  34.629  0.00  0.00    -0.084 Cl
ATOM     20  C24 UNL     1      21.955   9.067  33.059  0.00  0.00    +0.021 A 
ATOM     21  C25 UNL     1      21.640   9.927  32.002  0.00  0.00    +0.014 A 
ENDBRANCH  12  15
ENDBRANCH   1  13
BRANCH   9  22
ATOM     22  C11 UNL     1      21.494  16.340  24.092  0.00  0.00    +0.258 C 
ATOM     23  O2  UNL     1      20.297  16.179  24.458  0.00  0.00    -0.271 OA
ATOM     24  N2  UNL     1      21.912  15.942  22.776  0.00  0.00    -0.282 N 
ATOM     25  H10 UNL     1      22.804  16.343  22.405  0.00  0.00    +0.155 HD
BRANCH  24  26
ATOM     26  C12 UNL     1      21.139  15.094  21.910  0.00  0.00    +0.037 A 
ATOM     27  C13 UNL     1      20.626  15.567  20.686  0.00  0.00    +0.027 A 
ATOM     28  C14 UNL     1      19.860  14.728  19.868  0.00  0.00    +0.051 A 
ATOM     29  C15 UNL     1      19.592  13.419  20.272  0.00  0.00    +0.162 A 
ATOM     30  C16 UNL     1      20.056  12.957  21.510  0.00  0.00    +0.164 A 
ATOM     31  C17 UNL     1      20.832  13.788  22.323  0.00  0.00    +0.072 A 
ATOM     32  O3  UNL     1      19.730  11.659  21.918  0.00  0.00    -0.485 OA
ATOM     33  C18 UNL     1      18.723  10.904  21.238  0.00  0.00    +0.270 C 
ATOM     34  C19 UNL     1      18.803  11.151  19.726  0.00  0.00    +0.270 C 
ATOM     35  O4  UNL     1      18.855  12.554  19.455  0.00  0.00    -0.485 OA
ENDBRANCH  24  26
ENDBRANCH   9  22
TORSDOF 4
ENDMDL
MODEL 3
REMARK VINA RESULT:    -7.685     11.017     15.221
REMARK INTER + INTRA:         -10.182
REMARK INTER:                  -9.380
REMARK INTRA:                  -0.802
REMARK UNBOUND:                -0.700
REMARK  Name = /home/qwerty/github/datacon2025hack/step_04_hit_selection/docking/ligands/lig_194.pdb
REMARK  4 active torsions:
REMARK  status: ('A' for Active; 'I' for Inactive)
REMARK    1  A    between atoms: C1_2  and  C20_27
REMARK    2  A    between atoms: N1_3  and  C2_4
REMARK    3  A    between atoms: C10_12  and  C11_13
REMARK    4  A    between atoms: N2_15  and  C12_16
REMARK                            x       y       z     vdW  Elec       q    Type
REMARK                         _______ _______ _______ _____ _____    ______ ____
ROOT
ATOM      1  C2  UNL     1      21.342   2.944  25.411  0.00  0.00    +0.034 A 
ATOM      2  C3  UNL     1      19.991   2.558  25.484  0.00  0.00    +0.027 A 
ATOM      3  C4  UNL     1      19.504   1.903  26.618  0.00  0.00    +0.048 A 
ATOM      4  C5  UNL     1      20.360   1.610  27.684  0.00  0.00    +0.125 A 
ATOM      5  C6  UNL     1      21.723   1.951  27.604  0.00  0.00    -0.004 A 
ATOM      6  C7  UNL     1      22.203   2.624  26.471  0.00  0.00    +0.030 A 
ATOM      7  C8  UNL     1      22.647   1.654  28.758  0.00  0.00    +0.043 C 
ATOM      8  C9  UNL     1      22.107   0.519  29.640  0.00  0.00    +0.059 C 
ATOM      9  C10 UNL     1      20.628   0.750  30.001  0.00  0.00    +0.259 C 
ATOM     10  O5  UNL     1      19.854   0.955  28.814  0.00  0.00    -0.479 OA
ENDROOT
BRANCH   1  13
ATOM     11  O1  UNL     1      21.428   5.797  24.946  0.00  0.00    -0.270 OA
ATOM     12  C1  UNL     1      21.705   5.017  23.995  0.00  0.00    +0.248 C 
ATOM     13  N1  UNL     1      21.868   3.611  24.250  0.00  0.00    -0.281 N 
ATOM     14  H1  UNL     1      22.508   3.070  23.626  0.00  0.00    +0.155 HD
BRANCH  12  15
ATOM     15  C20 UNL     1      21.906   5.571  22.633  0.00  0.00    +0.037 A 
ATOM     16  C21 UNL     1      22.792   6.647  22.431  0.00  0.00    +0.014 A 
ATOM     17  C22 UNL     1      22.986   7.174  21.152  0.00  0.00    +0.021 A 
ATOM     18  C23 UNL     1      22.294   6.643  20.061  0.00  0.00    +0.041 A 
ATOM     19 CL1  UNL     1      22.540   7.307  18.457  0.00  0.00    -0.084 Cl
ATOM     20  C24 UNL     1      21.402   5.584  20.250  0.00  0.00    +0.021 A 
ATOM     21  C25 UNL     1      21.205   5.051  21.528  0.00  0.00    +0.014 A 
ENDBRANCH  12  15
ENDBRANCH   1  13
BRANCH   9  22
ATOM     22  C11 UNL     1      20.475   1.915  30.943  0.00  0.00    +0.258 C 
ATOM     23  O2  UNL     1      19.575   2.775  30.738  0.00  0.00    -0.271 OA
ATOM     24  N2  UNL     1      21.358   2.040  32.068  0.00  0.00    -0.282 N 
ATOM     25  H10 UNL     1      21.884   1.189  32.374  0.00  0.00    +0.155 HD
BRANCH  24  26
ATOM     26  C12 UNL     1      21.501   3.239  32.848  0.00  0.00    +0.037 A 
ATOM     27  C13 UNL     1      20.501   3.652  33.750  0.00  0.00    +0.027 A 
ATOM     28  C14 UNL     1      20.653   4.833  34.485  0.00  0.00    +0.051 A 
ATOM     29  C15 UNL     1      21.797   5.615  34.315  0.00  0.00    +0.162 A 
ATOM     30  C16 UNL     1      22.773   5.238  33.384  0.00  0.00    +0.164 A 
ATOM     31  C17 UNL     1      22.630   4.052  32.658  0.00  0.00    +0.072 A 
ATOM     32  O3  UNL     1      23.885   6.065  33.192  0.00  0.00    -0.485 OA
ATOM     33  C18 UNL     1      23.913   7.397  33.713  0.00  0.00    +0.270 C 
ATOM     34  C19 UNL     1      23.253   7.440  35.097  0.00  0.00    +0.270 C 
ATOM     35  O4  UNL     1      21.984   6.783  35.062  0.00  0.00    -0.485 OA
ENDBRANCH  24  26
ENDBRANCH   9  22
TORSDOF 4
ENDMDL
MODEL 4
REMARK VINA RESULT:    -7.648     14.184     17.990
REMARK INTER + INTRA:         -10.136
REMARK INTER:                  -9.331
REMARK INTRA:                  -0.805
REMARK UNBOUND:                -0.700
REMARK  Name = /home/qwerty/github/datacon2025hack/step_04_hit_selection/docking/ligands/lig_194.pdb
REMARK  4 active torsions:
REMARK  status: ('A' for Active; 'I' for Inactive)
REMARK    1  A    between atoms: C1_2  and  C20_27
REMARK    2  A    between atoms: N1_3  and  C2_4
REMARK    3  A    between atoms: C10_12  and  C11_13
REMARK    4  A    between atoms: N2_15  and  C12_16
REMARK                            x       y       z     vdW  Elec       q    Type
REMARK                         _______ _______ _______ _____ _____    ______ ____
ROOT
ATOM      1  C2  UNL     1      12.612   1.432  22.550  0.00  0.00    +0.034 A 
ATOM      2  C3  UNL     1      12.263   0.647  23.664  0.00  0.00    +0.027 A 
ATOM      3  C4  UNL     1      13.197  -0.220  24.238  0.00  0.00    +0.048 A 
ATOM      4  C5  UNL     1      14.482  -0.328  23.699  0.00  0.00    +0.125 A 
ATOM      5  C6  UNL     1      14.829   0.418  22.557  0.00  0.00    -0.004 A 
ATOM      6  C7  UNL     1      13.894   1.300  21.995  0.00  0.00    +0.030 A 
ATOM      7  C8  UNL     1      16.219   0.321  21.982  0.00  0.00    +0.043 C 
ATOM      8  C9  UNL     1      16.904  -0.997  22.376  0.00  0.00    +0.059 C 
ATOM      9  C10 UNL     1      16.779  -1.259  23.887  0.00  0.00    +0.259 C 
ATOM     10  O5  UNL     1      15.406  -1.199  24.289  0.00  0.00    -0.479 OA
ENDROOT
BRANCH   1  13
ATOM     11  O1  UNL     1      11.997   4.134  23.375  0.00  0.00    -0.270 OA
ATOM     12  C1  UNL     1      11.265   3.580  22.510  0.00  0.00    +0.248 C 
ATOM     13  N1  UNL     1      11.665   2.323  21.936  0.00  0.00    -0.281 N 
ATOM     14  H1  UNL     1      11.348   2.105  20.965  0.00  0.00    +0.155 HD
BRANCH  12  15
ATOM     15  C20 UNL     1      10.025   4.260  22.063  0.00  0.00    +0.037 A 
ATOM     16  C21 UNL     1       8.773   3.845  22.556  0.00  0.00    +0.014 A 
ATOM     17  C22 UNL     1       7.601   4.482  22.139  0.00  0.00    +0.021 A 
ATOM     18  C23 UNL     1       7.660   5.532  21.220  0.00  0.00    +0.041 A 
ATOM     19 CL1  UNL     1       6.188   6.328  20.699  0.00  0.00    -0.084 Cl
ATOM     20  C24 UNL     1       8.895   5.945  20.714  0.00  0.00    +0.021 A 
ATOM     21  C25 UNL     1      10.072   5.313  21.129  0.00  0.00    +0.014 A 
ENDBRANCH  12  15
ENDBRANCH   1  13
BRANCH   9  22
ATOM     22  C11 UNL     1      17.607  -0.281  24.678  0.00  0.00    +0.258 C 
ATOM     23  O2  UNL     1      17.040   0.555  25.435  0.00  0.00    -0.271 OA
ATOM     24  N2  UNL     1      19.038  -0.305  24.564  0.00  0.00    -0.282 N 
ATOM     25  H10 UNL     1      19.482  -1.168  24.174  0.00  0.00    +0.155 HD
BRANCH  24  26
ATOM     26  C12 UNL     1      19.899   0.749  25.027  0.00  0.00    +0.037 A 
ATOM     27  C13 UNL     1      20.454   0.729  26.321  0.00  0.00    +0.027 A 
ATOM     28  C14 UNL     1      21.274   1.776  26.756  0.00  0.00    +0.051 A 
ATOM     29  C15 UNL     1      21.534   2.855  25.908  0.00  0.00    +0.162 A 
ATOM     30  C16 UNL     1      20.945   2.907  24.639  0.00  0.00    +0.164 A 
ATOM     31  C17 UNL     1      20.136   1.856  24.196  0.00  0.00    +0.072 A 
ATOM     32  O3  UNL     1      21.177   4.022  23.827  0.00  0.00    -0.485 OA
ATOM     33  C18 UNL     1      21.765   5.213  24.360  0.00  0.00    +0.270 C 
ATOM     34  C19 UNL     1      22.862   4.857  25.371  0.00  0.00    +0.270 C 
ATOM     35  O4  UNL     1      22.376   3.896  26.312  0.00  0.00    -0.485 OA
ENDBRANCH  24  26
ENDBRANCH   9  22
TORSDOF 4
ENDMDL
MODEL 5
REMARK VINA RESULT:    -7.644      8.294     11.689
REMARK INTER + INTRA:         -10.131
REMARK INTER:                  -9.390
REMARK INTRA:                  -0.741
REMARK UNBOUND:                -0.700
REMARK  Name = /home/qwerty/github/datacon2025hack/step_04_hit_selection/docking/ligands/lig_194.pdb
REMARK  4 active torsions:
REMARK  status: ('A' for Active; 'I' for Inactive)
REMARK    1  A    between atoms: C1_2  and  C20_27
REMARK    2  A    between atoms: N1_3  and  C2_4
REMARK    3  A    between atoms: C10_12  and  C11_13
REMARK    4  A    between atoms: N2_15  and  C12_16
REMARK                            x       y       z     vdW  Elec       q    Type
REMARK                         _______ _______ _______ _____ _____    ______ ____
ROOT
ATOM      1  C2  UNL     1      15.841  15.445  29.261  0.00  0.00    +0.034 A 
ATOM      2  C3  UNL     1      16.501  16.688  29.238  0.00  0.00    +0.027 A 
ATOM      3  C4  UNL     1      17.861  16.772  29.547  0.00  0.00    +0.048 A 
ATOM      4  C5  UNL     1      18.576  15.623  29.898  0.00  0.00    +0.125 A 
ATOM      5  C6  UNL     1      17.918  14.381  29.967  0.00  0.00    -0.004 A 
ATOM      6  C7  UNL     1      16.557  14.299  29.640  0.00  0.00    +0.030 A 
ATOM      7  C8  UNL     1      18.688  13.135  30.327  0.00  0.00    +0.043 C 
ATOM      8  C9  UNL     1      19.964  13.465  31.115  0.00  0.00    +0.059 C 
ATOM      9  C10 UNL     1      20.770  14.582  30.427  0.00  0.00    +0.259 C 
ATOM     10  O5  UNL     1      19.939  15.726  30.201  0.00  0.00    -0.479 OA
ENDROOT
BRANCH   1  13
ATOM     11  O1  UNL     1      13.701  14.932  31.136  0.00  0.00    -0.270 OA
ATOM     12  C1  UNL     1      13.452  14.887  29.900  0.00  0.00    +0.248 C 
ATOM     13  N1  UNL     1      14.441  15.335  28.957  0.00  0.00    -0.281 N 
ATOM     14  H1  UNL     1      14.108  15.719  28.044  0.00  0.00    +0.155 HD
BRANCH  12  15
ATOM     15  C20 UNL     1      12.121  14.416  29.443  0.00  0.00    +0.037 A 
ATOM     16  C21 UNL     1      11.240  13.797  30.350  0.00  0.00    +0.014 A 
ATOM     17  C22 UNL     1       9.985  13.351  29.926  0.00  0.00    +0.021 A 
ATOM     18  C23 UNL     1       9.597  13.509  28.594  0.00  0.00    +0.041 A 
ATOM     19 CL1  UNL     1       8.022  12.949  28.065  0.00  0.00    -0.084 Cl
ATOM     20  C24 UNL     1      10.467  14.111  27.681  0.00  0.00    +0.021 A 
ATOM     21  C25 UNL     1      11.724  14.561  28.100  0.00  0.00    +0.014 A 
ENDBRANCH  12  15
ENDBRANCH   1  13
BRANCH   9  22
ATOM     22  C11 UNL     1      21.372  14.099  29.134  0.00  0.00    +0.258 C 
ATOM     23  O2  UNL     1      22.062  13.042  29.118  0.00  0.00    -0.271 OA
ATOM     24  N2  UNL     1      21.158  14.846  27.926  0.00  0.00    -0.282 N 
ATOM     25  H10 UNL     1      20.366  15.529  27.909  0.00  0.00    +0.155 HD
BRANCH  24  26
ATOM     26  C12 UNL     1      21.912  14.653  26.718  0.00  0.00    +0.037 A 
ATOM     27  C13 UNL     1      23.151  15.292  26.516  0.00  0.00    +0.027 A 
ATOM     28  C14 UNL     1      23.859  15.104  25.323  0.00  0.00    +0.051 A 
ATOM     29  C15 UNL     1      23.329  14.288  24.321  0.00  0.00    +0.162 A 
ATOM     30  C16 UNL     1      22.075  13.690  24.494  0.00  0.00    +0.164 A 
ATOM     31  C17 UNL     1      21.371  13.865  25.689  0.00  0.00    +0.072 A 
ATOM     32  O3  UNL     1      21.539  12.920  23.456  0.00  0.00    -0.485 OA
ATOM     33  C18 UNL     1      22.107  12.955  22.143  0.00  0.00    +0.270 C 
ATOM     34  C19 UNL     1      23.637  13.030  22.227  0.00  0.00    +0.270 C 
ATOM     35  O4  UNL     1      24.034  14.062  23.134  0.00  0.00    -0.485 OA
ENDBRANCH  24  26
ENDBRANCH   9  22
TORSDOF 4
ENDMDL
MODEL 6
REMARK VINA RESULT:    -7.563     10.260     15.087
REMARK INTER + INTRA:         -10.031
REMARK INTER:                  -9.449
REMARK INTRA:                  -0.583
REMARK UNBOUND:                -0.700
REMARK  Name = /home/qwerty/github/datacon2025hack/step_04_hit_selection/docking/ligands/lig_194.pdb
REMARK  4 active torsions:
REMARK  status: ('A' for Active; 'I' for Inactive)
REMARK    1  A    between atoms: C1_2  and  C20_27
REMARK    2  A    between atoms: N1_3  and  C2_4
REMARK    3  A    between atoms: C10_12  and  C11_13
REMARK    4  A    between atoms: N2_15  and  C12_16
REMARK                            x       y       z     vdW  Elec       q    Type
REMARK                         _______ _______ _______ _____ _____    ______ ____
ROOT
ATOM      1  C2  UNL     1       9.074   7.643  26.663  0.00  0.00    +0.034 A 
ATOM      2  C3  UNL     1       8.472   6.678  27.491  0.00  0.00    +0.027 A 
ATOM      3  C4  UNL     1       7.977   5.490  26.947  0.00  0.00    +0.048 A 
ATOM      4  C5  UNL     1       8.060   5.257  25.571  0.00  0.00    +0.125 A 
ATOM      5  C6  UNL     1       8.619   6.234  24.726  0.00  0.00    -0.004 A 
ATOM      6  C7  UNL     1       9.130   7.417  25.279  0.00  0.00    +0.030 A 
ATOM      7  C8  UNL     1       8.728   5.981  23.244  0.00  0.00    +0.043 C 
ATOM      8  C9  UNL     1       7.711   4.932  22.771  0.00  0.00    +0.059 C 
ATOM      9  C10 UNL     1       7.738   3.685  23.673  0.00  0.00    +0.259 C 
ATOM     10  O5  UNL     1       7.561   4.059  25.044  0.00  0.00    -0.479 OA
ENDROOT
BRANCH   1  13
ATOM     11  O1  UNL     1       7.726  10.201  26.686  0.00  0.00    -0.270 OA
ATOM     12  C1  UNL     1       8.946  10.153  27.005  0.00  0.00    +0.248 C 
ATOM     13  N1  UNL     1       9.581   8.877  27.198  0.00  0.00    -0.281 N 
ATOM     14  H1  UNL     1      10.383   8.826  27.866  0.00  0.00    +0.155 HD
BRANCH  12  15
ATOM     15  C20 UNL     1       9.692  11.416  27.223  0.00  0.00    +0.037 A 
ATOM     16  C21 UNL     1      11.041  11.517  26.834  0.00  0.00    +0.014 A 
ATOM     17  C22 UNL     1      11.750  12.704  27.036  0.00  0.00    +0.021 A 
ATOM     18  C23 UNL     1      11.127  13.801  27.636  0.00  0.00    +0.041 A 
ATOM     19 CL1  UNL     1      12.019  15.289  27.889  0.00  0.00    -0.084 Cl
ATOM     20  C24 UNL     1       9.792  13.710  28.038  0.00  0.00    +0.021 A 
ATOM     21  C25 UNL     1       9.077  12.524  27.836  0.00  0.00    +0.014 A 
ENDBRANCH  12  15
ENDBRANCH   1  13
BRANCH   9  22
ATOM     22  C11 UNL     1       9.019   2.914  23.494  0.00  0.00    +0.258 C 
ATOM     23  O2  UNL     1       9.695   2.575  24.505  0.00  0.00    -0.271 OA
ATOM     24  N2  UNL     1       9.464   2.570  22.173  0.00  0.00    -0.282 N 
ATOM     25  H10 UNL     1       8.762   2.601  21.398  0.00  0.00    +0.155 HD
BRANCH  24  26
ATOM     26  C12 UNL     1      10.790   2.109  21.866  0.00  0.00    +0.037 A 
ATOM     27  C13 UNL     1      11.314   0.940  22.451  0.00  0.00    +0.027 A 
ATOM     28  C14 UNL     1      12.616   0.520  22.152  0.00  0.00    +0.051 A 
ATOM     29  C15 UNL     1      13.405   1.271  21.278  0.00  0.00    +0.162 A 
ATOM     30  C16 UNL     1      12.909   2.461  20.732  0.00  0.00    +0.164 A 
ATOM     31  C17 UNL     1      11.605   2.876  21.018  0.00  0.00    +0.072 A 
ATOM     32  O3  UNL     1      13.736   3.225  19.901  0.00  0.00    -0.485 OA
ATOM     33  C18 UNL     1      15.141   2.967  19.820  0.00  0.00    +0.270 C 
ATOM     34  C19 UNL     1      15.406   1.456  19.855  0.00  0.00    +0.270 C 
ATOM     35  O4  UNL     1      14.697   0.854  20.941  0.00  0.00    -0.485 OA
ENDBRANCH  24  26
ENDBRANCH   9  22
TORSDOF 4
ENDMDL
MODEL 7
REMARK VINA RESULT:    -7.537     12.812     14.734
REMARK INTER + INTRA:          -9.999
REMARK INTER:                  -9.150
REMARK INTRA:                  -0.849
REMARK UNBOUND:                -0.700
REMARK  Name = /home/qwerty/github/datacon2025hack/step_04_hit_selection/docking/ligands/lig_194.pdb
REMARK  4 active torsions:
REMARK  status: ('A' for Active; 'I' for Inactive)
REMARK    1  A    between atoms: C1_2  and  C20_27
REMARK    2  A    between atoms: N1_3  and  C2_4
REMARK    3  A    between atoms: C10_12  and  C11_13
REMARK    4  A    between atoms: N2_15  and  C12_16
REMARK                            x       y       z     vdW  Elec       q    Type
REMARK                         _______ _______ _______ _____ _____    ______ ____
ROOT
ATOM      1  C2  UNL     1      20.965   5.572  21.735  0.00  0.00    +0.034 A 
ATOM      2  C3  UNL     1      21.368   5.416  20.395  0.00  0.00    +0.027 A 
ATOM      3  C4  UNL     1      20.843   6.243  19.399  0.00  0.00    +0.048 A 
ATOM      4  C5  UNL     1      19.898   7.221  19.721  0.00  0.00    +0.125 A 
ATOM      5  C6  UNL     1      19.453   7.357  21.049  0.00  0.00    -0.004 A 
ATOM      6  C7  UNL     1      19.997   6.537  22.049  0.00  0.00    +0.030 A 
ATOM      7  C8  UNL     1      18.448   8.423  21.407  0.00  0.00    +0.043 C 
ATOM      8  C9  UNL     1      17.621   8.854  20.186  0.00  0.00    +0.059 C 
ATOM      9  C10 UNL     1      18.527   9.157  18.979  0.00  0.00    +0.259 C 
ATOM     10  O5  UNL     1      19.384   8.043  18.710  0.00  0.00    -0.479 OA
ENDROOT
BRANCH   1  13
ATOM     11  O1  UNL     1      19.657   3.277  22.912  0.00  0.00    -0.270 OA
ATOM     12  C1  UNL     1      20.707   3.723  23.451  0.00  0.00    +0.248 C 
ATOM     13  N1  UNL     1      21.484   4.727  22.776  0.00  0.00    -0.281 N 
ATOM     14  H1  UNL     1      22.512   4.759  22.963  0.00  0.00    +0.155 HD
BRANCH  12  15
ATOM     15  C20 UNL     1      21.148   3.167  24.754  0.00  0.00    +0.037 A 
ATOM     16  C21 UNL     1      22.191   3.784  25.470  0.00  0.00    +0.014 A 
ATOM     17  C22 UNL     1      22.612   3.267  26.698  0.00  0.00    +0.021 A 
ATOM     18  C23 UNL     1      22.005   2.124  27.223  0.00  0.00    +0.041 A 
ATOM     19 CL1  UNL     1      22.534   1.476  28.764  0.00  0.00    -0.084 Cl
ATOM     20  C24 UNL     1      20.976   1.495  26.516  0.00  0.00    +0.021 A 
ATOM     21  C25 UNL     1      20.550   2.010  25.288  0.00  0.00    +0.014 A 
ENDBRANCH  12  15
ENDBRANCH   1  13
BRANCH   9  22
ATOM     22  C11 UNL     1      19.336  10.407  19.208  0.00  0.00    +0.258 C 
ATOM     23  O2  UNL     1      20.591  10.376  19.077  0.00  0.00    -0.271 OA
ATOM     24  N2  UNL     1      18.673  11.626  19.577  0.00  0.00    -0.282 N 
ATOM     25  H10 UNL     1      17.646  11.697  19.396  0.00  0.00    +0.155 HD
BRANCH  24  26
ATOM     26  C12 UNL     1      19.349  12.781  20.103  0.00  0.00    +0.037 A 
ATOM     27  C13 UNL     1      19.814  13.807  19.258  0.00  0.00    +0.027 A 
ATOM     28  C14 UNL     1      20.486  14.913  19.790  0.00  0.00    +0.051 A 
ATOM     29  C15 UNL     1      20.709  14.995  21.166  0.00  0.00    +0.162 A 
ATOM     30  C16 UNL     1      20.294  13.955  22.007  0.00  0.00    +0.164 A 
ATOM     31  C17 UNL     1      19.611  12.856  21.480  0.00  0.00    +0.072 A 
ATOM     32  O3  UNL     1      20.575  14.034  23.376  0.00  0.00    -0.485 OA
ATOM     33  C18 UNL     1      21.499  15.000  23.884  0.00  0.00    +0.270 C 
ATOM     34  C19 UNL     1      21.345  16.330  23.135  0.00  0.00    +0.270 C 
ATOM     35  O4  UNL     1      21.351  16.106  21.723  0.00  0.00    -0.485 OA
ENDBRANCH  24  26
ENDBRANCH   9  22
TORSDOF 4
ENDMDL
MODEL 8
REMARK VINA RESULT:    -7.484      3.838     10.898
REMARK INTER + INTRA:          -9.934
REMARK INTER:                  -9.194
REMARK INTRA:                  -0.740
REMARK UNBOUND:                -0.700
REMARK  Name = /home/qwerty/github/datacon2025hack/step_04_hit_selection/docking/ligands/lig_194.pdb
REMARK  4 active torsions:
REMARK  status: ('A' for Active; 'I' for Inactive)
REMARK    1  A    between atoms: C1_2  and  C20_27
REMARK    2  A    between atoms: N1_3  and  C2_4
REMARK    3  A    between atoms: C10_12  and  C11_13
REMARK    4  A    between atoms: N2_15  and  C12_16
REMARK                            x       y       z     vdW  Elec       q    Type
REMARK                         _______ _______ _______ _____ _____    ______ ____
ROOT
ATOM      1  C2  UNL     1      15.313  12.452  35.024  0.00  0.00    +0.034 A 
ATOM      2  C3  UNL     1      15.653  13.150  36.197  0.00  0.00    +0.027 A 
ATOM      3  C4  UNL     1      16.203  12.472  37.288  0.00  0.00    +0.048 A 
ATOM      4  C5  UNL     1      16.406  11.091  37.230  0.00  0.00    +0.125 A 
ATOM      5  C6  UNL     1      16.029  10.374  36.079  0.00  0.00    -0.004 A 
ATOM      6  C7  UNL     1      15.493  11.061  34.980  0.00  0.00    +0.030 A 
ATOM      7  C8  UNL     1      16.263   8.886  36.003  0.00  0.00    +0.043 C 
ATOM      8  C9  UNL     1      16.364   8.256  37.400  0.00  0.00    +0.059 C 
ATOM      9  C10 UNL     1      17.333   9.046  38.298  0.00  0.00    +0.259 C 
ATOM     10  O5  UNL     1      16.962  10.429  38.332  0.00  0.00    -0.479 OA
ENDROOT
BRANCH   1  13
ATOM     11  O1  UNL     1      12.501  12.914  34.537  0.00  0.00    -0.270 OA
ATOM     12  C1  UNL     1      13.326  13.151  33.612  0.00  0.00    +0.248 C 
ATOM     13  N1  UNL     1      14.737  13.125  33.892  0.00  0.00    -0.281 N 
ATOM     14  H1  UNL     1      15.362  13.730  33.314  0.00  0.00    +0.155 HD
BRANCH  12  15
ATOM     15  C20 UNL     1      12.824  13.501  32.261  0.00  0.00    +0.037 A 
ATOM     16  C21 UNL     1      11.449  13.408  31.971  0.00  0.00    +0.014 A 
ATOM     17  C22 UNL     1      10.970  13.736  30.700  0.00  0.00    +0.021 A 
ATOM     18  C23 UNL     1      11.853  14.153  29.702  0.00  0.00    +0.041 A 
ATOM     19 CL1  UNL     1      11.248  14.564  28.108  0.00  0.00    -0.084 Cl
ATOM     20  C24 UNL     1      13.221  14.238  29.974  0.00  0.00    +0.021 A 
ATOM     21  C25 UNL     1      13.707  13.912  31.244  0.00  0.00    +0.014 A 
ENDBRANCH  12  15
ENDBRANCH   1  13
BRANCH   9  22
ATOM     22  C11 UNL     1      18.756   8.890  37.831  0.00  0.00    +0.258 C 
ATOM     23  O2  UNL     1      19.375   9.883  37.358  0.00  0.00    -0.271 OA
ATOM     24  N2  UNL     1      19.399   7.609  37.925  0.00  0.00    -0.282 N 
ATOM     25  H10 UNL     1      18.982   6.900  38.570  0.00  0.00    +0.155 HD
BRANCH  24  26
ATOM     26  C12 UNL     1      20.623   7.274  37.250  0.00  0.00    +0.037 A 
ATOM     27  C13 UNL     1      21.825   7.085  37.960  0.00  0.00    +0.027 A 
ATOM     28  C14 UNL     1      23.008   6.777  37.280  0.00  0.00    +0.051 A 
ATOM     29  C15 UNL     1      23.002   6.668  35.888  0.00  0.00    +0.162 A 
ATOM     30  C16 UNL     1      21.823   6.903  35.170  0.00  0.00    +0.164 A 
ATOM     31  C17 UNL     1      20.636   7.198  35.848  0.00  0.00    +0.072 A 
ATOM     32  O3  UNL     1      21.852   6.840  33.773  0.00  0.00    -0.485 OA
ATOM     33  C18 UNL     1      23.093   6.815  33.062  0.00  0.00    +0.270 C 
ATOM     34  C19 UNL     1      24.118   5.954  33.812  0.00  0.00    +0.270 C 
ATOM     35  O4  UNL     1      24.167   6.330  35.191  0.00  0.00    -0.485 OA
ENDBRANCH  24  26
ENDBRANCH   9  22
TORSDOF 4
ENDMDL
MODEL 9
REMARK VINA RESULT:    -7.397     12.197     17.190
REMARK INTER + INTRA:          -9.827
REMARK INTER:                  -8.993
REMARK INTRA:                  -0.834
REMARK UNBOUND:                -0.700
REMARK  Name = /home/qwerty/github/datacon2025hack/step_04_hit_selection/docking/ligands/lig_194.pdb
REMARK  4 active torsions:
REMARK  status: ('A' for Active; 'I' for Inactive)
REMARK    1  A    between atoms: C1_2  and  C20_27
REMARK    2  A    between atoms: N1_3  and  C2_4
REMARK    3  A    between atoms: C10_12  and  C11_13
REMARK    4  A    between atoms: N2_15  and  C12_16
REMARK                            x       y       z     vdW  Elec       q    Type
REMARK                         _______ _______ _______ _____ _____    ______ ____
ROOT
ATOM      1  C2  UNL     1      10.177   6.058  22.540  0.00  0.00    +0.034 A 
ATOM      2  C3  UNL     1       9.654   5.695  21.284  0.00  0.00    +0.027 A 
ATOM      3  C4  UNL     1      10.504   5.264  20.263  0.00  0.00    +0.048 A 
ATOM      4  C5  UNL     1      11.884   5.204  20.472  0.00  0.00    +0.125 A 
ATOM      5  C6  UNL     1      12.424   5.607  21.708  0.00  0.00    -0.004 A 
ATOM      6  C7  UNL     1      11.566   6.023  22.737  0.00  0.00    +0.030 A 
ATOM      7  C8  UNL     1      13.911   5.528  21.947  0.00  0.00    +0.043 C 
ATOM      8  C9  UNL     1      14.699   5.549  20.629  0.00  0.00    +0.059 C 
ATOM      9  C10 UNL     1      14.122   4.541  19.619  0.00  0.00    +0.259 C 
ATOM     10  O5  UNL     1      12.720   4.766  19.438  0.00  0.00    -0.479 OA
ENDROOT
BRANCH   1  13
ATOM     11  O1  UNL     1       9.263   8.765  22.980  0.00  0.00    -0.270 OA
ATOM     12  C1  UNL     1       9.065   7.902  23.878  0.00  0.00    +0.248 C 
ATOM     13  N1  UNL     1       9.324   6.515  23.603  0.00  0.00    -0.281 N 
ATOM     14  H1  UNL     1       8.767   5.800  24.121  0.00  0.00    +0.155 HD
BRANCH  12  15
ATOM     15  C20 UNL     1       8.521   8.329  25.191  0.00  0.00    +0.037 A 
ATOM     16  C21 UNL     1       8.079   7.368  26.120  0.00  0.00    +0.014 A 
ATOM     17  C22 UNL     1       7.566   7.763  27.358  0.00  0.00    +0.021 A 
ATOM     18  C23 UNL     1       7.477   9.119  27.682  0.00  0.00    +0.041 A 
ATOM     19 CL1  UNL     1       6.832   9.612  29.236  0.00  0.00    -0.084 Cl
ATOM     20  C24 UNL     1       7.901  10.083  26.763  0.00  0.00    +0.021 A 
ATOM     21  C25 UNL     1       8.418   9.694  25.523  0.00  0.00    +0.014 A 
ENDBRANCH  12  15
ENDBRANCH   1  13
BRANCH   9  22
ATOM     22  C11 UNL     1      14.380   3.124  20.060  0.00  0.00    +0.258 C 
ATOM     23  O2  UNL     1      13.409   2.357  20.309  0.00  0.00    -0.271 OA
ATOM     24  N2  UNL     1      15.730   2.656  20.198  0.00  0.00    -0.282 N 
ATOM     25  H10 UNL     1      16.486   3.197  19.719  0.00  0.00    +0.155 HD
BRANCH  24  26
ATOM     26  C12 UNL     1      16.096   1.447  20.884  0.00  0.00    +0.037 A 
ATOM     27  C13 UNL     1      16.286   0.237  20.188  0.00  0.00    +0.027 A 
ATOM     28  C14 UNL     1      16.623  -0.932  20.880  0.00  0.00    +0.051 A 
ATOM     29  C15 UNL     1      16.759  -0.904  22.269  0.00  0.00    +0.162 A 
ATOM     30  C16 UNL     1      16.523   0.284  22.973  0.00  0.00    +0.164 A 
ATOM     31  C17 UNL     1      16.199   1.456  22.284  0.00  0.00    +0.072 A 
ATOM     32  O3  UNL     1      16.614   0.276  24.369  0.00  0.00    -0.485 OA
ATOM     33  C18 UNL     1      16.670  -0.953  25.098  0.00  0.00    +0.270 C 
ATOM     34  C19 UNL     1      17.529  -1.978  24.347  0.00  0.00    +0.270 C 
ATOM     35  O4  UNL     1      17.126  -2.053  22.977  0.00  0.00    -0.485 OA
ENDBRANCH  24  26
ENDBRANCH   9  22
TORSDOF 4
ENDMDL
