MODEL 1
REMARK VINA RESULT:    -6.215      0.000      0.000
REMARK INTER + INTRA:          -7.627
REMARK INTER:                  -7.305
REMARK INTRA:                  -0.321
REMARK UNBOUND:                -0.321
REMARK  Name = /home/qwerty/github/datacon2025hack/step_04_hit_selection/docking/ligands/lig_487.pdb
REMARK  6 active torsions:
REMARK  status: ('A' for Active; 'I' for Inactive)
REMARK    1  A    between atoms: C1_1  and  C2_2
REMARK    2  A    between atoms: C4_4  and  C5_5
REMARK    3  A    between atoms: C8_10  and  N2_11
REMARK    4  A    between atoms: C9_12  and  C10_14
REMARK    5  A    between atoms: N3_17  and  C13_18
REMARK    6  A    between atoms: C15_20  and  C16_21
REMARK                            x       y       z     vdW  Elec       q    Type
REMARK                         _______ _______ _______ _____ _____    ______ ____
ROOT
ATOM      1  C5  UNL     1      12.521  14.400  30.436  0.00  0.00    +0.267 C 
ATOM      2  O1  UNL     1      13.623  14.910  30.099  0.00  0.00    -0.268 OA
ATOM      3  N1  UNL     1      12.287  14.066  31.811  0.00  0.00    -0.296 N 
ATOM      4  C6  UNL     1      12.321  15.123  32.827  0.00  0.00    +0.110 C 
ATOM      5  C7  UNL     1      13.068  14.626  34.068  0.00  0.00    +0.041 C 
ATOM      6  C8  UNL     1      12.508  13.291  34.628  0.00  0.00    +0.079 C 
ATOM      7  C15 UNL     1      11.538  12.575  33.643  0.00  0.00    +0.024 C 
ATOM      8  C16 UNL     1      11.254  11.119  34.042  0.00  0.00    +0.011 C 
ATOM      9  C17 UNL     1      12.037  12.668  32.190  0.00  0.00    +0.113 C 
ENDROOT
BRANCH   1  13
ATOM     10  C1  UNL     1       8.249  13.220  28.061  0.00  0.00    +0.065 C 
ATOM     11  C2  UNL     1       9.637  13.668  28.381  0.00  0.00    +0.034 A 
ATOM     12  C3  UNL     1      10.254  13.579  29.613  0.00  0.00    +0.057 A 
ATOM     13  C4  UNL     1      11.480  14.190  29.417  0.00  0.00    +0.147 A 
ATOM     14  N4  UNL     1      11.573  14.638  28.146  0.00  0.00    -0.169 NA
ATOM     15  N5  UNL     1      10.449  14.316  27.525  0.00  0.00    -0.281 N 
ATOM     16  H23 UNL     1      10.240  14.552  26.529  0.00  0.00    +0.189 HD
ENDBRANCH   1  13
BRANCH   6  17
ATOM     17  N2  UNL     1      13.627  12.418  35.001  0.00  0.00    -0.308 N 
ATOM     18  C9  UNL     1      14.274  12.498  36.280  0.00  0.00    +0.246 C 
ATOM     19  O2  UNL     1      13.933  13.388  37.106  0.00  0.00    -0.270 OA
ATOM     20  H10 UNL     1      14.067  11.838  34.253  0.00  0.00    +0.149 HD
BRANCH  18  21
ATOM     21  C10 UNL     1      15.343  11.550  36.646  0.00  0.00    +0.054 A 
ATOM     22  C11 UNL     1      15.186  10.192  36.859  0.00  0.00    +0.032 A 
ATOM     23  C12 UNL     1      16.443   9.695  37.143  0.00  0.00    +0.086 A 
ATOM     24  N3  UNL     1      17.344  10.695  37.120  0.00  0.00    -0.356 N 
ATOM     25  C13 UNL     1      18.785  10.554  37.285  0.00  0.00    +0.148 C 
ATOM     26  C14 UNL     1      16.690  11.827  36.805  0.00  0.00    +0.098 A 
ENDBRANCH  18  21
ENDBRANCH   6  17
TORSDOF 3
ENDMDL
MODEL 2
REMARK VINA RESULT:    -6.155      1.623      1.766
REMARK INTER + INTRA:          -7.556
REMARK INTER:                  -7.030
REMARK INTRA:                  -0.525
REMARK UNBOUND:                -0.321
REMARK  Name = /home/qwerty/github/datacon2025hack/step_04_hit_selection/docking/ligands/lig_487.pdb
REMARK  6 active torsions:
REMARK  status: ('A' for Active; 'I' for Inactive)
REMARK    1  A    between atoms: C1_1  and  C2_2
REMARK    2  A    between atoms: C4_4  and  C5_5
REMARK    3  A    between atoms: C8_10  and  N2_11
REMARK    4  A    between atoms: C9_12  and  C10_14
REMARK    5  A    between atoms: N3_17  and  C13_18
REMARK    6  A    between atoms: C15_20  and  C16_21
REMARK                            x       y       z     vdW  Elec       q    Type
REMARK                         _______ _______ _______ _____ _____    ______ ____
ROOT
ATOM      1  C5  UNL     1      11.263  13.189  30.667  0.00  0.00    +0.267 C 
ATOM      2  O1  UNL     1      12.193  13.554  29.898  0.00  0.00    -0.268 OA
ATOM      3  N1  UNL     1      11.423  13.330  32.085  0.00  0.00    -0.296 N 
ATOM      4  C6  UNL     1      11.627  14.664  32.661  0.00  0.00    +0.110 C 
ATOM      5  C7  UNL     1      12.709  14.603  33.741  0.00  0.00    +0.041 C 
ATOM      6  C8  UNL     1      12.431  13.531  34.829  0.00  0.00    +0.079 C 
ATOM      7  C15 UNL     1      11.305  12.533  34.428  0.00  0.00    +0.024 C 
ATOM      8  C16 UNL     1      11.261  11.292  35.333  0.00  0.00    +0.011 C 
ATOM      9  C17 UNL     1      11.402  12.138  32.944  0.00  0.00    +0.113 C 
ENDROOT
BRANCH   1  13
ATOM     10  C1  UNL     1       7.559  10.160  29.123  0.00  0.00    +0.065 C 
ATOM     11  C2  UNL     1       8.417  11.348  29.409  0.00  0.00    +0.034 A 
ATOM     12  C3  UNL     1       9.685  11.321  29.951  0.00  0.00    +0.057 A 
ATOM     13  C4  UNL     1      10.017  12.658  30.092  0.00  0.00    +0.147 A 
ATOM     14  N4  UNL     1       8.991  13.433  29.681  0.00  0.00    -0.169 NA
ATOM     15  N5  UNL     1       8.024  12.629  29.267  0.00  0.00    -0.281 N 
ATOM     16  H23 UNL     1       7.100  12.958  28.905  0.00  0.00    +0.189 HD
ENDBRANCH   1  13
BRANCH   6  17
ATOM     17  N2  UNL     1      13.680  12.826  35.141  0.00  0.00    -0.308 N 
ATOM     18  C9  UNL     1      14.514  13.192  36.251  0.00  0.00    +0.246 C 
ATOM     19  O2  UNL     1      14.222  14.196  36.957  0.00  0.00    -0.270 OA
ATOM     20  H10 UNL     1      14.049  12.148  34.439  0.00  0.00    +0.149 HD
BRANCH  18  21
ATOM     21  C10 UNL     1      15.721  12.410  36.579  0.00  0.00    +0.054 A 
ATOM     22  C11 UNL     1      15.742  11.172  37.198  0.00  0.00    +0.032 A 
ATOM     23  C12 UNL     1      17.069  10.798  37.275  0.00  0.00    +0.086 A 
ATOM     24  N3  UNL     1      17.844  11.759  36.739  0.00  0.00    -0.356 N 
ATOM     25  C13 UNL     1      19.289  11.694  36.558  0.00  0.00    +0.148 C 
ATOM     26  C14 UNL     1      17.035  12.739  36.298  0.00  0.00    +0.098 A 
ENDBRANCH  18  21
ENDBRANCH   6  17
TORSDOF 3
ENDMDL
MODEL 3
REMARK VINA RESULT:    -6.138     13.638     14.671
REMARK INTER + INTRA:          -7.535
REMARK INTER:                  -7.006
REMARK INTRA:                  -0.530
REMARK UNBOUND:                -0.321
REMARK  Name = /home/qwerty/github/datacon2025hack/step_04_hit_selection/docking/ligands/lig_487.pdb
REMARK  6 active torsions:
REMARK  status: ('A' for Active; 'I' for Inactive)
REMARK    1  A    between atoms: C1_1  and  C2_2
REMARK    2  A    between atoms: C4_4  and  C5_5
REMARK    3  A    between atoms: C8_10  and  N2_11
REMARK    4  A    between atoms: C9_12  and  C10_14
REMARK    5  A    between atoms: N3_17  and  C13_18
REMARK    6  A    between atoms: C15_20  and  C16_21
REMARK                            x       y       z     vdW  Elec       q    Type
REMARK                         _______ _______ _______ _____ _____    ______ ____
ROOT
ATOM      1  C5  UNL     1      18.881   3.398  23.882  0.00  0.00    +0.267 C 
ATOM      2  O1  UNL     1      17.639   3.280  24.059  0.00  0.00    -0.268 OA
ATOM      3  N1  UNL     1      19.785   2.613  24.672  0.00  0.00    -0.296 N 
ATOM      4  C6  UNL     1      19.725   1.149  24.599  0.00  0.00    +0.110 C 
ATOM      5  C7  UNL     1      19.859   0.554  26.002  0.00  0.00    +0.041 C 
ATOM      6  C8  UNL     1      21.117   1.052  26.763  0.00  0.00    +0.079 C 
ATOM      7  C15 UNL     1      21.792   2.282  26.087  0.00  0.00    +0.024 C 
ATOM      8  C16 UNL     1      22.815   2.975  27.000  0.00  0.00    +0.011 C 
ATOM      9  C17 UNL     1      20.747   3.281  25.560  0.00  0.00    +0.113 C 
ENDROOT
BRANCH   1  13
ATOM     10  C1  UNL     1      21.558   5.530  20.198  0.00  0.00    +0.065 C 
ATOM     11  C2  UNL     1      20.544   5.246  21.256  0.00  0.00    +0.034 A 
ATOM     12  C3  UNL     1      20.553   4.172  22.122  0.00  0.00    +0.057 A 
ATOM     13  C4  UNL     1      19.379   4.313  22.842  0.00  0.00    +0.147 A 
ATOM     14  N4  UNL     1      18.700   5.396  22.408  0.00  0.00    -0.169 NA
ATOM     15  N5  UNL     1      19.415   5.957  21.446  0.00  0.00    -0.281 N 
ATOM     16  H23 UNL     1      19.123   6.809  20.917  0.00  0.00    +0.189 HD
ENDBRANCH   1  13
BRANCH   6  17
ATOM     17  N2  UNL     1      20.755   1.344  28.155  0.00  0.00    -0.308 N 
ATOM     18  C9  UNL     1      21.374   0.680  29.267  0.00  0.00    +0.246 C 
ATOM     19  O2  UNL     1      22.213  -0.241  29.066  0.00  0.00    -0.270 OA
ATOM     20  H10 UNL     1      19.909   1.930  28.330  0.00  0.00    +0.149 HD
BRANCH  18  21
ATOM     21  C10 UNL     1      21.039   1.056  30.653  0.00  0.00    +0.054 A 
ATOM     22  C11 UNL     1      20.111   0.425  31.464  0.00  0.00    +0.032 A 
ATOM     23  C12 UNL     1      20.147   1.080  32.679  0.00  0.00    +0.086 A 
ATOM     24  N3  UNL     1      21.046   2.081  32.630  0.00  0.00    -0.356 N 
ATOM     25  C13 UNL     1      21.430   2.943  33.741  0.00  0.00    +0.148 C 
ATOM     26  C14 UNL     1      21.607   2.068  31.408  0.00  0.00    +0.098 A 
ENDBRANCH  18  21
ENDBRANCH   6  17
TORSDOF 3
ENDMDL
MODEL 4
REMARK VINA RESULT:    -6.043      9.461     12.407
REMARK INTER + INTRA:          -7.424
REMARK INTER:                  -6.822
REMARK INTRA:                  -0.603
REMARK UNBOUND:                -0.321
REMARK  Name = /home/qwerty/github/datacon2025hack/step_04_hit_selection/docking/ligands/lig_487.pdb
REMARK  6 active torsions:
REMARK  status: ('A' for Active; 'I' for Inactive)
REMARK    1  A    between atoms: C1_1  and  C2_2
REMARK    2  A    between atoms: C4_4  and  C5_5
REMARK    3  A    between atoms: C8_10  and  N2_11
REMARK    4  A    between atoms: C9_12  and  C10_14
REMARK    5  A    between atoms: N3_17  and  C13_18
REMARK    6  A    between atoms: C15_20  and  C16_21
REMARK                            x       y       z     vdW  Elec       q    Type
REMARK                         _______ _______ _______ _____ _____    ______ ____
ROOT
ATOM      1  C5  UNL     1      20.995   3.377  30.252  0.00  0.00    +0.267 C 
ATOM      2  O1  UNL     1      19.810   2.984  30.415  0.00  0.00    -0.268 OA
ATOM      3  N1  UNL     1      21.713   3.935  31.362  0.00  0.00    -0.296 N 
ATOM      4  C6  UNL     1      21.951   3.114  32.554  0.00  0.00    +0.110 C 
ATOM      5  C7  UNL     1      21.717   3.951  33.815  0.00  0.00    +0.041 C 
ATOM      6  C8  UNL     1      22.536   5.270  33.837  0.00  0.00    +0.079 C 
ATOM      7  C15 UNL     1      23.159   5.625  32.454  0.00  0.00    +0.024 C 
ATOM      8  C16 UNL     1      23.673   7.071  32.388  0.00  0.00    +0.011 C 
ATOM      9  C17 UNL     1      22.184   5.326  31.302  0.00  0.00    +0.113 C 
ENDROOT
BRANCH   1  13
ATOM     10  C1  UNL     1      22.631   4.127  25.557  0.00  0.00    +0.065 C 
ATOM     11  C2  UNL     1      22.332   3.539  26.897  0.00  0.00    +0.034 A 
ATOM     12  C3  UNL     1      21.528   4.099  27.868  0.00  0.00    +0.057 A 
ATOM     13  C4  UNL     1      21.633   3.224  28.935  0.00  0.00    +0.147 A 
ATOM     14  N4  UNL     1      22.475   2.216  28.622  0.00  0.00    -0.169 NA
ATOM     15  N5  UNL     1      22.894   2.415  27.382  0.00  0.00    -0.281 N 
ATOM     16  H23 UNL     1      23.568   1.793  26.882  0.00  0.00    +0.189 HD
ENDBRANCH   1  13
BRANCH   6  17
ATOM     17  N2  UNL     1      21.684   6.358  34.331  0.00  0.00    -0.308 N 
ATOM     18  C9  UNL     1      21.888   6.976  35.611  0.00  0.00    +0.246 C 
ATOM     19  O2  UNL     1      22.781   6.540  36.387  0.00  0.00    -0.270 OA
ATOM     20  H10 UNL     1      20.808   6.573  33.805  0.00  0.00    +0.149 HD
BRANCH  18  21
ATOM     21  C10 UNL     1      21.059   8.118  36.038  0.00  0.00    +0.054 A 
ATOM     22  C11 UNL     1      21.065   9.381  35.472  0.00  0.00    +0.032 A 
ATOM     23  C12 UNL     1      20.118  10.118  36.157  0.00  0.00    +0.086 A 
ATOM     24  N3  UNL     1      19.554   9.358  37.113  0.00  0.00    -0.356 N 
ATOM     25  C13 UNL     1      18.455   9.754  37.985  0.00  0.00    +0.148 C 
ATOM     26  C14 UNL     1      20.107   8.134  37.042  0.00  0.00    +0.098 A 
ENDBRANCH  18  21
ENDBRANCH   6  17
TORSDOF 3
ENDMDL
MODEL 5
REMARK VINA RESULT:    -6.002      1.684      8.603
REMARK INTER + INTRA:          -7.376
REMARK INTER:                  -6.788
REMARK INTRA:                  -0.587
REMARK UNBOUND:                -0.321
REMARK  Name = /home/qwerty/github/datacon2025hack/step_04_hit_selection/docking/ligands/lig_487.pdb
REMARK  6 active torsions:
REMARK  status: ('A' for Active; 'I' for Inactive)
REMARK    1  A    between atoms: C1_1  and  C2_2
REMARK    2  A    between atoms: C4_4  and  C5_5
REMARK    3  A    between atoms: C8_10  and  N2_11
REMARK    4  A    between atoms: C9_12  and  C10_14
REMARK    5  A    between atoms: N3_17  and  C13_18
REMARK    6  A    between atoms: C15_20  and  C16_21
REMARK                            x       y       z     vdW  Elec       q    Type
REMARK                         _______ _______ _______ _____ _____    ______ ____
ROOT
ATOM      1  C5  UNL     1      13.364  12.665  36.070  0.00  0.00    +0.267 C 
ATOM      2  O1  UNL     1      12.332  12.848  36.769  0.00  0.00    -0.268 OA
ATOM      3  N1  UNL     1      13.388  13.126  34.712  0.00  0.00    -0.296 N 
ATOM      4  C6  UNL     1      13.226  14.557  34.432  0.00  0.00    +0.110 C 
ATOM      5  C7  UNL     1      12.297  14.747  33.230  0.00  0.00    +0.041 C 
ATOM      6  C8  UNL     1      12.746  13.951  31.975  0.00  0.00    +0.079 C 
ATOM      7  C15 UNL     1      13.837  12.884  32.287  0.00  0.00    +0.024 C 
ATOM      8  C16 UNL     1      14.034  11.883  31.139  0.00  0.00    +0.011 C 
ATOM      9  C17 UNL     1      13.556  12.161  33.616  0.00  0.00    +0.113 C 
ENDROOT
BRANCH   1  13
ATOM     10  C1  UNL     1      16.749   9.290  37.627  0.00  0.00    +0.065 C 
ATOM     11  C2  UNL     1      16.000  10.553  37.360  0.00  0.00    +0.034 A 
ATOM     12  C3  UNL     1      14.759  10.649  36.764  0.00  0.00    +0.057 A 
ATOM     13  C4  UNL     1      14.537  12.013  36.672  0.00  0.00    +0.147 A 
ATOM     14  N4  UNL     1      15.600  12.686  37.163  0.00  0.00    -0.169 NA
ATOM     15  N5  UNL     1      16.482  11.791  37.579  0.00  0.00    -0.281 N 
ATOM     16  H23 UNL     1      17.411  12.030  37.996  0.00  0.00    +0.189 HD
ENDBRANCH   1  13
BRANCH   6  17
ATOM     17  N2  UNL     1      11.570  13.339  31.346  0.00  0.00    -0.308 N 
ATOM     18  C9  UNL     1      11.126  13.700  30.029  0.00  0.00    +0.246 C 
ATOM     19  O2  UNL     1      11.709  14.622  29.396  0.00  0.00    -0.270 OA
ATOM     20  H10 UNL     1      10.948  12.748  31.939  0.00  0.00    +0.149 HD
BRANCH  18  21
ATOM     21  C10 UNL     1       9.986  13.007  29.400  0.00  0.00    +0.054 A 
ATOM     22  C11 UNL     1       9.338  13.397  28.240  0.00  0.00    +0.032 A 
ATOM     23  C12 UNL     1       8.363  12.449  28.002  0.00  0.00    +0.086 A 
ATOM     24  N3  UNL     1       8.390  11.515  28.970  0.00  0.00    -0.356 N 
ATOM     25  C13 UNL     1       7.573  10.308  29.020  0.00  0.00    +0.148 C 
ATOM     26  C14 UNL     1       9.383  11.834  29.820  0.00  0.00    +0.098 A 
ENDBRANCH  18  21
ENDBRANCH   6  17
TORSDOF 3
ENDMDL
MODEL 6
REMARK VINA RESULT:    -5.945     11.368     14.727
REMARK INTER + INTRA:          -7.309
REMARK INTER:                  -6.816
REMARK INTRA:                  -0.493
REMARK UNBOUND:                -0.321
REMARK  Name = /home/qwerty/github/datacon2025hack/step_04_hit_selection/docking/ligands/lig_487.pdb
REMARK  6 active torsions:
REMARK  status: ('A' for Active; 'I' for Inactive)
REMARK    1  A    between atoms: C1_1  and  C2_2
REMARK    2  A    between atoms: C4_4  and  C5_5
REMARK    3  A    between atoms: C8_10  and  N2_11
REMARK    4  A    between atoms: C9_12  and  C10_14
REMARK    5  A    between atoms: N3_17  and  C13_18
REMARK    6  A    between atoms: C15_20  and  C16_21
REMARK                            x       y       z     vdW  Elec       q    Type
REMARK                         _______ _______ _______ _____ _____    ______ ____
ROOT
ATOM      1  C5  UNL     1      19.281   4.180  34.265  0.00  0.00    +0.267 C 
ATOM      2  O1  UNL     1      19.378   5.422  34.076  0.00  0.00    -0.268 OA
ATOM      3  N1  UNL     1      20.120   3.285  33.522  0.00  0.00    -0.296 N 
ATOM      4  C6  UNL     1      21.578   3.380  33.658  0.00  0.00    +0.110 C 
ATOM      5  C7  UNL     1      22.237   3.242  32.284  0.00  0.00    +0.041 C 
ATOM      6  C8  UNL     1      21.802   1.963  31.520  0.00  0.00    +0.079 C 
ATOM      7  C15 UNL     1      20.559   1.268  32.151  0.00  0.00    +0.024 C 
ATOM      8  C16 UNL     1      19.931   0.218  31.223  0.00  0.00    +0.011 C 
ATOM      9  C17 UNL     1      19.514   2.296  32.619  0.00  0.00    +0.113 C 
ENDROOT
BRANCH   1  13
ATOM     10  C1  UNL     1      16.965   1.401  37.757  0.00  0.00    +0.065 C 
ATOM     11  C2  UNL     1      17.320   2.467  36.773  0.00  0.00    +0.034 A 
ATOM     12  C3  UNL     1      18.391   2.444  35.904  0.00  0.00    +0.057 A 
ATOM     13  C4  UNL     1      18.333   3.674  35.270  0.00  0.00    +0.147 A 
ATOM     14  N4  UNL     1      17.300   4.394  35.757  0.00  0.00    -0.169 NA
ATOM     15  N5  UNL     1      16.690   3.652  36.668  0.00  0.00    -0.281 N 
ATOM     16  H23 UNL     1      15.859   3.965  37.220  0.00  0.00    +0.189 HD
ENDBRANCH   1  13
BRANCH   6  17
ATOM     17  N2  UNL     1      21.563   2.301  30.112  0.00  0.00    -0.308 N 
ATOM     18  C9  UNL     1      22.302   1.695  29.039  0.00  0.00    +0.246 C 
ATOM     19  O2  UNL     1      23.241   0.893  29.292  0.00  0.00    -0.270 OA
ATOM     20  H10 UNL     1      20.955   3.122  29.900  0.00  0.00    +0.149 HD
BRANCH  18  21
ATOM     21  C10 UNL     1      21.979   2.003  27.633  0.00  0.00    +0.054 A 
ATOM     22  C11 UNL     1      22.609   2.951  26.845  0.00  0.00    +0.032 A 
ATOM     23  C12 UNL     1      22.016   2.877  25.600  0.00  0.00    +0.086 A 
ATOM     24  N3  UNL     1      21.054   1.935  25.609  0.00  0.00    -0.356 N 
ATOM     25  C13 UNL     1      20.264   1.505  24.461  0.00  0.00    +0.148 C 
ATOM     26  C14 UNL     1      21.031   1.386  26.836  0.00  0.00    +0.098 A 
ENDBRANCH  18  21
ENDBRANCH   6  17
TORSDOF 3
ENDMDL
MODEL 7
REMARK VINA RESULT:    -5.845     12.502     15.924
REMARK INTER + INTRA:          -7.191
REMARK INTER:                  -6.560
REMARK INTRA:                  -0.631
REMARK UNBOUND:                -0.321
REMARK  Name = /home/qwerty/github/datacon2025hack/step_04_hit_selection/docking/ligands/lig_487.pdb
REMARK  6 active torsions:
REMARK  status: ('A' for Active; 'I' for Inactive)
REMARK    1  A    between atoms: C1_1  and  C2_2
REMARK    2  A    between atoms: C4_4  and  C5_5
REMARK    3  A    between atoms: C8_10  and  N2_11
REMARK    4  A    between atoms: C9_12  and  C10_14
REMARK    5  A    between atoms: N3_17  and  C13_18
REMARK    6  A    between atoms: C15_20  and  C16_21
REMARK                            x       y       z     vdW  Elec       q    Type
REMARK                         _______ _______ _______ _____ _____    ______ ____
ROOT
ATOM      1  C5  UNL     1      14.781   3.232  20.796  0.00  0.00    +0.267 C 
ATOM      2  O1  UNL     1      15.592   4.183  20.959  0.00  0.00    -0.268 OA
ATOM      3  N1  UNL     1      13.381   3.514  20.661  0.00  0.00    -0.296 N 
ATOM      4  C6  UNL     1      12.915   4.348  19.548  0.00  0.00    +0.110 C 
ATOM      5  C7  UNL     1      11.853   5.331  20.046  0.00  0.00    +0.041 C 
ATOM      6  C8  UNL     1      10.679   4.641  20.792  0.00  0.00    +0.079 C 
ATOM      7  C15 UNL     1      10.981   3.159  21.165  0.00  0.00    +0.024 C 
ATOM      8  C16 UNL     1       9.981   2.587  22.181  0.00  0.00    +0.011 C 
ATOM      9  C17 UNL     1      12.431   2.982  21.648  0.00  0.00    +0.113 C 
ENDROOT
BRANCH   1  13
ATOM     10  C1  UNL     1      16.984  -1.176  21.791  0.00  0.00    +0.065 C 
ATOM     11  C2  UNL     1      16.254  -0.052  21.133  0.00  0.00    +0.034 A 
ATOM     12  C3  UNL     1      16.092   1.219  21.644  0.00  0.00    +0.057 A 
ATOM     13  C4  UNL     1      15.290   1.854  20.712  0.00  0.00    +0.147 A 
ATOM     14  N4  UNL     1      14.973   0.997  19.717  0.00  0.00    -0.169 NA
ATOM     15  N5  UNL     1      15.564  -0.157  19.982  0.00  0.00    -0.281 N 
ATOM     16  H23 UNL     1      15.480  -1.011  19.384  0.00  0.00    +0.189 HD
ENDBRANCH   1  13
BRANCH   6  17
ATOM     17  N2  UNL     1      10.335   5.428  21.982  0.00  0.00    -0.308 N 
ATOM     18  C9  UNL     1       9.220   6.332  22.011  0.00  0.00    +0.246 C 
ATOM     19  O2  UNL     1       8.536   6.526  20.969  0.00  0.00    -0.270 OA
ATOM     20  H10 UNL     1      11.019   5.452  22.770  0.00  0.00    +0.149 HD
BRANCH  18  21
ATOM     21  C10 UNL     1       8.859   7.046  23.250  0.00  0.00    +0.054 A 
ATOM     22  C11 UNL     1       8.853   6.508  24.525  0.00  0.00    +0.032 A 
ATOM     23  C12 UNL     1       8.490   7.532  25.378  0.00  0.00    +0.086 A 
ATOM     24  N3  UNL     1       8.269   8.656  24.671  0.00  0.00    -0.356 N 
ATOM     25  C13 UNL     1       7.952   9.967  25.223  0.00  0.00    +0.148 C 
ATOM     26  C14 UNL     1       8.504   8.378  23.376  0.00  0.00    +0.098 A 
ENDBRANCH  18  21
ENDBRANCH   6  17
TORSDOF 3
ENDMDL
MODEL 8
REMARK VINA RESULT:    -5.817      9.323     12.799
REMARK INTER + INTRA:          -7.159
REMARK INTER:                  -6.523
REMARK INTRA:                  -0.636
REMARK UNBOUND:                -0.321
REMARK  Name = /home/qwerty/github/datacon2025hack/step_04_hit_selection/docking/ligands/lig_487.pdb
REMARK  6 active torsions:
REMARK  status: ('A' for Active; 'I' for Inactive)
REMARK    1  A    between atoms: C1_1  and  C2_2
REMARK    2  A    between atoms: C4_4  and  C5_5
REMARK    3  A    between atoms: C8_10  and  N2_11
REMARK    4  A    between atoms: C9_12  and  C10_14
REMARK    5  A    between atoms: N3_17  and  C13_18
REMARK    6  A    between atoms: C15_20  and  C16_21
REMARK                            x       y       z     vdW  Elec       q    Type
REMARK                         _______ _______ _______ _____ _____    ______ ____
ROOT
ATOM      1  C5  UNL     1      20.171   2.608  30.792  0.00  0.00    +0.267 C 
ATOM      2  O1  UNL     1      18.937   2.769  30.600  0.00  0.00    -0.268 OA
ATOM      3  N1  UNL     1      20.798   3.239  31.918  0.00  0.00    -0.296 N 
ATOM      4  C6  UNL     1      20.354   2.903  33.275  0.00  0.00    +0.110 C 
ATOM      5  C7  UNL     1      20.263   4.175  34.121  0.00  0.00    +0.041 C 
ATOM      6  C8  UNL     1      21.575   5.006  34.122  0.00  0.00    +0.079 C 
ATOM      7  C15 UNL     1      22.581   4.559  33.021  0.00  0.00    +0.024 C 
ATOM      8  C16 UNL     1      23.711   5.576  32.801  0.00  0.00    +0.011 C 
ATOM      9  C17 UNL     1      21.864   4.227  31.701  0.00  0.00    +0.113 C 
ENDROOT
BRANCH   1  13
ATOM     10  C1  UNL     1      22.793  -1.181  28.780  0.00  0.00    +0.065 C 
ATOM     11  C2  UNL     1      22.087   0.115  29.007  0.00  0.00    +0.034 A 
ATOM     12  C3  UNL     1      21.537   0.542  30.199  0.00  0.00    +0.057 A 
ATOM     13  C4  UNL     1      20.940   1.748  29.878  0.00  0.00    +0.147 A 
ATOM     14  N4  UNL     1      21.105   2.009  28.564  0.00  0.00    -0.169 NA
ATOM     15  N5  UNL     1      21.803   1.012  28.043  0.00  0.00    -0.281 N 
ATOM     16  H23 UNL     1      22.068   0.943  27.035  0.00  0.00    +0.189 HD
ENDBRANCH   1  13
BRANCH   6  17
ATOM     17  N2  UNL     1      21.243   6.430  33.992  0.00  0.00    -0.308 N 
ATOM     18  C9  UNL     1      21.427   7.365  35.066  0.00  0.00    +0.246 C 
ATOM     19  O2  UNL     1      21.821   6.961  36.194  0.00  0.00    -0.270 OA
ATOM     20  H10 UNL     1      20.706   6.734  33.150  0.00  0.00    +0.149 HD
BRANCH  18  21
ATOM     21  C10 UNL     1      21.156   8.801  34.872  0.00  0.00    +0.054 A 
ATOM     22  C11 UNL     1      21.048   9.449  33.654  0.00  0.00    +0.032 A 
ATOM     23  C12 UNL     1      20.757  10.768  33.939  0.00  0.00    +0.086 A 
ATOM     24  N3  UNL     1      20.696  10.943  35.272  0.00  0.00    -0.356 N 
ATOM     25  C13 UNL     1      20.329  12.174  35.960  0.00  0.00    +0.148 C 
ATOM     26  C14 UNL     1      20.923   9.750  35.852  0.00  0.00    +0.098 A 
ENDBRANCH  18  21
ENDBRANCH   6  17
TORSDOF 3
ENDMDL
MODEL 9
REMARK VINA RESULT:    -5.780      6.176      9.812
REMARK INTER + INTRA:          -7.115
REMARK INTER:                  -6.548
REMARK INTRA:                  -0.566
REMARK UNBOUND:                -0.321
REMARK  Name = /home/qwerty/github/datacon2025hack/step_04_hit_selection/docking/ligands/lig_487.pdb
REMARK  6 active torsions:
REMARK  status: ('A' for Active; 'I' for Inactive)
REMARK    1  A    between atoms: C1_1  and  C2_2
REMARK    2  A    between atoms: C4_4  and  C5_5
REMARK    3  A    between atoms: C8_10  and  N2_11
REMARK    4  A    between atoms: C9_12  and  C10_14
REMARK    5  A    between atoms: N3_17  and  C13_18
REMARK    6  A    between atoms: C15_20  and  C16_21
REMARK                            x       y       z     vdW  Elec       q    Type
REMARK                         _______ _______ _______ _____ _____    ______ ____
ROOT
ATOM      1  C5  UNL     1      19.624  15.856  29.650  0.00  0.00    +0.267 C 
ATOM      2  O1  UNL     1      19.506  16.692  30.586  0.00  0.00    -0.268 OA
ATOM      3  N1  UNL     1      18.536  15.661  28.736  0.00  0.00    -0.296 N 
ATOM      4  C6  UNL     1      18.065  16.787  27.921  0.00  0.00    +0.110 C 
ATOM      5  C7  UNL     1      16.535  16.795  27.884  0.00  0.00    +0.041 C 
ATOM      6  C8  UNL     1      15.925  15.443  27.425  0.00  0.00    +0.079 C 
ATOM      7  C15 UNL     1      16.958  14.278  27.417  0.00  0.00    +0.024 C 
ATOM      8  C16 UNL     1      16.296  12.898  27.295  0.00  0.00    +0.011 C 
ATOM      9  C17 UNL     1      17.892  14.343  28.638  0.00  0.00    +0.113 C 
ENDROOT
BRANCH   1  13
ATOM     10  C1  UNL     1      23.805  13.778  27.786  0.00  0.00    +0.065 C 
ATOM     11  C2  UNL     1      22.695  14.209  28.686  0.00  0.00    +0.034 A 
ATOM     12  C3  UNL     1      21.557  14.890  28.302  0.00  0.00    +0.057 A 
ATOM     13  C4  UNL     1      20.889  15.123  29.492  0.00  0.00    +0.147 A 
ATOM     14  N4  UNL     1      21.605  14.629  30.525  0.00  0.00    -0.169 NA
ATOM     15  N5  UNL     1      22.699  14.076  30.026  0.00  0.00    -0.281 N 
ATOM     16  H23 UNL     1      23.445  13.625  30.602  0.00  0.00    +0.189 HD
ENDBRANCH   1  13
BRANCH   6  17
ATOM     17  N2  UNL     1      14.770  15.123  28.273  0.00  0.00    -0.308 N 
ATOM     18  C9  UNL     1      13.472  14.839  27.730  0.00  0.00    +0.246 C 
ATOM     19  O2  UNL     1      13.273  14.928  26.488  0.00  0.00    -0.270 OA
ATOM     20  H10 UNL     1      14.862  15.269  29.302  0.00  0.00    +0.149 HD
BRANCH  18  21
ATOM     21  C10 UNL     1      12.355  14.445  28.610  0.00  0.00    +0.054 A 
ATOM     22  C11 UNL     1      12.378  14.435  29.994  0.00  0.00    +0.032 A 
ATOM     23  C12 UNL     1      11.120  14.036  30.400  0.00  0.00    +0.086 A 
ATOM     24  N3  UNL     1      10.348  13.797  29.323  0.00  0.00    -0.356 N 
ATOM     25  C13 UNL     1       8.935  13.440  29.343  0.00  0.00    +0.148 C 
ATOM     26  C14 UNL     1      11.084  14.055  28.227  0.00  0.00    +0.098 A 
ENDBRANCH  18  21
ENDBRANCH   6  17
TORSDOF 3
ENDMDL
