REMARK  Name = /home/qwerty/github/datacon2025hack/step_04_hit_selection/docking/ligands/lig_603.pdb
REMARK  7 active torsions:
REMARK  status: ('A' for Active; 'I' for Inactive)
REMARK    1  A    between atoms: C1_1  and  C2_2
REMARK    2  A    between atoms: C2_2  and  C3_3
REMARK    3  A    between atoms: C3_3  and  N1_4
REMARK    4  A    between atoms: C3_3  and  C11_15
REMARK    5  A    between atoms: N2_7  and  C5_8
REMARK    6  A    between atoms: C14_18  and  N3_19
REMARK    7  A    between atoms: C15_20  and  C16_21
REMARK                            x       y       z     vdW  Elec       q    Type
REMARK                         _______ _______ _______ _____ _____    ______ ____
ROOT
ATOM      1  C3  UNL     1      -0.121   1.282  -0.051  0.00  0.00    +0.104 C 
ENDROOT
BRANCH   1   2
ATOM      2  N1  UNL     1      -0.921   0.197   0.530  0.00  0.00    -0.292 N 
ATOM      3  C4  UNL     1      -2.355   0.182   0.474  0.00  0.00    +0.304 C 
ATOM      4  O1  UNL     1      -2.974   1.112  -0.113  0.00  0.00    -0.252 OA
ATOM      5  N2  UNL     1      -3.079  -0.875   1.122  0.00  0.00    -0.269 N 
ATOM      6  H7  UNL     1      -0.445  -0.592   1.025  0.00  0.00    +0.151 HD
ATOM      7  H8  UNL     1      -2.567  -1.449   1.828  0.00  0.00    +0.156 HD
BRANCH   5   8
ATOM      8  C5  UNL     1      -4.485  -1.115   0.945  0.00  0.00    +0.035 A 
ATOM      9  C6  UNL     1      -5.234  -1.634   2.013  0.00  0.00    +0.025 A 
ATOM     10  C7  UNL     1      -6.599  -1.897   1.859  0.00  0.00    +0.022 A 
ATOM     11  C8  UNL     1      -7.225  -1.659   0.632  0.00  0.00    +0.041 A 
ATOM     12 CL1  UNL     1      -8.937  -1.993   0.439  0.00  0.00    -0.084 Cl
ATOM     13  C9  UNL     1      -6.482  -1.165  -0.445  0.00  0.00    +0.022 A 
ATOM     14  C10 UNL     1      -5.117  -0.901  -0.294  0.00  0.00    +0.025 A 
ENDBRANCH   5   8
ENDBRANCH   1   2
BRANCH   1  15
ATOM     15  C11 UNL     1       1.286   0.795  -0.353  0.00  0.00    -0.027 A 
ATOM     16  C12 UNL     1       1.778   0.833  -1.669  0.00  0.00    +0.007 A 
ATOM     17  C13 UNL     1       3.073   0.394  -1.955  0.00  0.00    +0.023 A 
ATOM     18  C14 UNL     1       3.898  -0.105  -0.937  0.00  0.00    +0.033 A 
ATOM     19  C17 UNL     1       3.419  -0.122   0.384  0.00  0.00    +0.023 A 
ATOM     20  C18 UNL     1       2.124   0.319   0.672  0.00  0.00    +0.007 A 
BRANCH  18  21
ATOM     21  N3  UNL     1       5.233  -0.534  -1.258  0.00  0.00    -0.286 N 
ATOM     22  C15 UNL     1       5.915  -1.610  -0.595  0.00  0.00    +0.214 C 
ATOM     23  C16 UNL     1       7.354  -1.873  -0.897  0.00  0.00    +0.109 C 
ATOM     24  O2  UNL     1       5.293  -2.386   0.180  0.00  0.00    -0.276 OA
ATOM     25  H15 UNL     1       5.702  -0.101  -2.086  0.00  0.00    +0.155 HD
ENDBRANCH  18  21
ENDBRANCH   1  15
BRANCH   1  27
ATOM     26  C1  UNL     1       0.583   3.712   0.283  0.00  0.00    +0.006 C 
ATOM     27  C2  UNL     1      -0.118   2.500   0.896  0.00  0.00    +0.024 C 
ENDBRANCH   1  27
TORSDOF 5
