MODEL 1
REMARK VINA RESULT:    -6.646      0.000      0.000
REMARK INTER + INTRA:          -9.248
REMARK INTER:                  -8.589
REMARK INTRA:                  -0.659
REMARK UNBOUND:                -0.659
REMARK  Name = /home/qwerty/github/datacon2025hack/step_04_hit_selection/docking/ligands/lig_113.pdb
REMARK  8 active torsions:
REMARK  status: ('A' for Active; 'I' for Inactive)
REMARK    1  A    between atoms: C1_1  and  C2_2
REMARK    2  A    between atoms: C2_2  and  C3_3
REMARK    3  A    between atoms: C2_2  and  C4_4
REMARK    4  A    between atoms: C2_2  and  O1_5
REMARK    5  A    between atoms: O1_5  and  C5_6
REMARK    6  A    between atoms: C11_14  and  C12_15
REMARK    7  A    between atoms: C13_17  and  C14_18
REMARK    8  A    between atoms: C17_21  and  N3_22
REMARK                            x       y       z     vdW  Elec       q    Type
REMARK                         _______ _______ _______ _____ _____    ______ ____
ROOT
ATOM      1  C12 UNL     1      18.002  15.736  27.310  0.00  0.00    +0.231 A 
ATOM      2  N2  UNL     1      17.022  15.029  27.901  0.00  0.00    -0.191 NA
ATOM      3  C13 UNL     1      15.921  15.575  27.338  0.00  0.00    +0.202 A 
ATOM      4  N5  UNL     1      16.226  16.549  26.458  0.00  0.00    -0.056 NA
ATOM      5  O3  UNL     1      17.521  16.615  26.466  0.00  0.00    -0.337 OA
ENDROOT
BRANCH   1  14
ATOM      6  C5  UNL     1      23.420  14.691  26.680  0.00  0.00    +0.403 C 
ATOM      7  O2  UNL     1      23.944  13.622  27.099  0.00  0.00    -0.226 OA
ATOM      8  N1  UNL     1      22.395  15.338  27.459  0.00  0.00    -0.267 N 
ATOM      9  C6  UNL     1      22.102  14.820  28.806  0.00  0.00    +0.111 C 
ATOM     10  C7  UNL     1      21.163  15.733  29.601  0.00  0.00    +0.023 C 
ATOM     11  C8  UNL     1      19.967  16.282  28.809  0.00  0.00    +0.008 C 
ATOM     12  C9  UNL     1      20.317  16.780  27.415  0.00  0.00    +0.023 C 
ATOM     13  C10 UNL     1      21.765  16.563  26.937  0.00  0.00    +0.115 C 
ATOM     14  C11 UNL     1      19.457  15.524  27.577  0.00  0.00    +0.086 C 
BRANCH   6  15
ATOM     15  O1  UNL     1      23.832  15.257  25.462  0.00  0.00    -0.445 OA
BRANCH  15  17
ATOM     16  C1  UNL     1      24.649  14.265  23.379  0.00  0.00    +0.055 C 
ATOM     17  C2  UNL     1      23.440  14.831  24.149  0.00  0.00    +0.107 C 
ATOM     18  C3  UNL     1      22.309  13.789  24.229  0.00  0.00    +0.055 C 
ATOM     19  C4  UNL     1      22.919  16.071  23.408  0.00  0.00    +0.055 C 
ENDBRANCH  15  17
ENDBRANCH   6  15
ENDBRANCH   1  14
BRANCH   3  20
ATOM     20  C14 UNL     1      14.540  15.149  27.650  0.00  0.00    +0.023 A 
ATOM     21  C15 UNL     1      13.605  14.954  26.621  0.00  0.00    +0.014 A 
ATOM     22  C16 UNL     1      12.297  14.561  26.917  0.00  0.00    +0.027 A 
ATOM     23  C17 UNL     1      11.896  14.345  28.248  0.00  0.00    +0.047 A 
ATOM     24  C21 UNL     1      12.839  14.535  29.275  0.00  0.00    +0.027 A 
ATOM     25  C22 UNL     1      14.144  14.937  28.979  0.00  0.00    +0.014 A 
BRANCH  23  26
ATOM     26  N3  UNL     1      10.545  13.941  28.553  0.00  0.00    -0.306 N 
ATOM     27  C18 UNL     1      10.059  13.546  29.745  0.00  0.00    +0.112 A 
ATOM     28  C19 UNL     1       8.725  13.249  29.588  0.00  0.00    +0.130 A 
ATOM     29  N4  UNL     1       8.365  13.451  28.306  0.00  0.00    -0.244 NA
ATOM     30  C20 UNL     1       9.497  13.872  27.703  0.00  0.00    +0.204 A 
ENDBRANCH  23  26
ENDBRANCH   3  20
TORSDOF 5
ENDMDL
MODEL 2
REMARK VINA RESULT:    -6.548      9.439     12.597
REMARK INTER + INTRA:          -9.122
REMARK INTER:                  -8.413
REMARK INTRA:                  -0.709
REMARK UNBOUND:                -0.659
REMARK  Name = /home/qwerty/github/datacon2025hack/step_04_hit_selection/docking/ligands/lig_113.pdb
REMARK  8 active torsions:
REMARK  status: ('A' for Active; 'I' for Inactive)
REMARK    1  A    between atoms: C1_1  and  C2_2
REMARK    2  A    between atoms: C2_2  and  C3_3
REMARK    3  A    between atoms: C2_2  and  C4_4
REMARK    4  A    between atoms: C2_2  and  O1_5
REMARK    5  A    between atoms: O1_5  and  C5_6
REMARK    6  A    between atoms: C11_14  and  C12_15
REMARK    7  A    between atoms: C13_17  and  C14_18
REMARK    8  A    between atoms: C17_21  and  N3_22
REMARK                            x       y       z     vdW  Elec       q    Type
REMARK                         _______ _______ _______ _____ _____    ______ ____
ROOT
ATOM      1  C12 UNL     1      21.115   7.402  21.654  0.00  0.00    +0.231 A 
ATOM      2  N2  UNL     1      20.671   6.548  22.595  0.00  0.00    -0.191 NA
ATOM      3  C13 UNL     1      21.832   6.027  23.052  0.00  0.00    +0.202 A 
ATOM      4  N5  UNL     1      22.907   6.543  22.424  0.00  0.00    -0.056 NA
ATOM      5  O3  UNL     1      22.422   7.392  21.570  0.00  0.00    -0.337 OA
ENDROOT
BRANCH   1  14
ATOM      6  C5  UNL     1      18.735  11.784  19.208  0.00  0.00    +0.403 C 
ATOM      7  O2  UNL     1      17.588  12.191  19.544  0.00  0.00    -0.226 OA
ATOM      8  N1  UNL     1      19.006  10.369  19.159  0.00  0.00    -0.267 N 
ATOM      9  C6  UNL     1      17.885   9.432  19.343  0.00  0.00    +0.111 C 
ATOM     10  C7  UNL     1      18.272   7.980  19.041  0.00  0.00    +0.023 C 
ATOM     11  C8  UNL     1      19.628   7.538  19.610  0.00  0.00    +0.008 C 
ATOM     12  C9  UNL     1      20.746   8.552  19.418  0.00  0.00    +0.023 C 
ATOM     13  C10 UNL     1      20.361   9.911  18.805  0.00  0.00    +0.115 C 
ATOM     14  C11 UNL     1      20.218   8.264  20.825  0.00  0.00    +0.086 C 
BRANCH   6  15
ATOM     15  O1  UNL     1      19.748  12.699  18.879  0.00  0.00    -0.445 OA
BRANCH  15  17
ATOM     16  C1  UNL     1      19.950  14.918  19.891  0.00  0.00    +0.055 C 
ATOM     17  C2  UNL     1      20.516  13.488  19.800  0.00  0.00    +0.107 C 
ATOM     18  C3  UNL     1      20.549  12.826  21.190  0.00  0.00    +0.055 C 
ATOM     19  C4  UNL     1      21.949  13.557  19.251  0.00  0.00    +0.055 C 
ENDBRANCH  15  17
ENDBRANCH   6  15
ENDBRANCH   1  14
BRANCH   3  20
ATOM     20  C14 UNL     1      21.914   5.010  24.122  0.00  0.00    +0.023 A 
ATOM     21  C15 UNL     1      22.834   5.153  25.172  0.00  0.00    +0.014 A 
ATOM     22  C16 UNL     1      22.917   4.186  26.178  0.00  0.00    +0.027 A 
ATOM     23  C17 UNL     1      22.075   3.060  26.161  0.00  0.00    +0.047 A 
ATOM     24  C21 UNL     1      21.149   2.925  25.111  0.00  0.00    +0.027 A 
ATOM     25  C22 UNL     1      21.073   3.887  24.101  0.00  0.00    +0.014 A 
BRANCH  23  26
ATOM     26  N3  UNL     1      22.162   2.061  27.200  0.00  0.00    -0.306 N 
ATOM     27  C18 UNL     1      23.098   1.961  28.162  0.00  0.00    +0.112 A 
ATOM     28  C19 UNL     1      22.804   0.863  28.936  0.00  0.00    +0.130 A 
ATOM     29  N4  UNL     1      21.690   0.266  28.469  0.00  0.00    -0.244 NA
ATOM     30  C20 UNL     1      21.326   1.022  27.411  0.00  0.00    +0.204 A 
ENDBRANCH  23  26
ENDBRANCH   3  20
TORSDOF 5
ENDMDL
MODEL 3
REMARK VINA RESULT:    -6.426      8.992     12.295
REMARK INTER + INTRA:          -8.964
REMARK INTER:                  -8.297
REMARK INTRA:                  -0.668
REMARK UNBOUND:                -0.659
REMARK  Name = /home/qwerty/github/datacon2025hack/step_04_hit_selection/docking/ligands/lig_113.pdb
REMARK  8 active torsions:
REMARK  status: ('A' for Active; 'I' for Inactive)
REMARK    1  A    between atoms: C1_1  and  C2_2
REMARK    2  A    between atoms: C2_2  and  C3_3
REMARK    3  A    between atoms: C2_2  and  C4_4
REMARK    4  A    between atoms: C2_2  and  O1_5
REMARK    5  A    between atoms: O1_5  and  C5_6
REMARK    6  A    between atoms: C11_14  and  C12_15
REMARK    7  A    between atoms: C13_17  and  C14_18
REMARK    8  A    between atoms: C17_21  and  N3_22
REMARK                            x       y       z     vdW  Elec       q    Type
REMARK                         _______ _______ _______ _____ _____    ______ ____
ROOT
ATOM      1  C12 UNL     1       8.897   9.937  24.951  0.00  0.00    +0.231 A 
ATOM      2  N2  UNL     1       9.805  10.651  25.643  0.00  0.00    -0.191 NA
ATOM      3  C13 UNL     1       9.139  10.885  26.795  0.00  0.00    +0.202 A 
ATOM      4  N5  UNL     1       7.906  10.340  26.794  0.00  0.00    -0.056 NA
ATOM      5  O3  UNL     1       7.796   9.759  25.639  0.00  0.00    -0.337 OA
ENDROOT
BRANCH   1  14
ATOM      6  C5  UNL     1       9.834   6.532  20.664  0.00  0.00    +0.403 C 
ATOM      7  O2  UNL     1      10.944   6.510  20.063  0.00  0.00    -0.226 OA
ATOM      8  N1  UNL     1       9.289   7.788  21.116  0.00  0.00    -0.267 N 
ATOM      9  C6  UNL     1       9.967   9.032  20.717  0.00  0.00    +0.111 C 
ATOM     10  C7  UNL     1       9.160  10.286  21.071  0.00  0.00    +0.023 C 
ATOM     11  C8  UNL     1       8.526  10.276  22.470  0.00  0.00    +0.008 C 
ATOM     12  C9  UNL     1       7.862   8.959  22.845  0.00  0.00    +0.023 C 
ATOM     13  C10 UNL     1       8.014   7.791  21.853  0.00  0.00    +0.115 C 
ATOM     14  C11 UNL     1       9.132   9.403  23.575  0.00  0.00    +0.086 C 
BRANCH   6  15
ATOM     15  O1  UNL     1       9.124   5.342  20.894  0.00  0.00    -0.445 OA
BRANCH  15  17
ATOM     16  C1  UNL     1      10.032   3.148  21.487  0.00  0.00    +0.055 C 
ATOM     17  C2  UNL     1       9.325   4.425  21.980  0.00  0.00    +0.107 C 
ATOM     18  C3  UNL     1      10.129   5.091  23.113  0.00  0.00    +0.055 C 
ATOM     19  C4  UNL     1       7.936   4.047  22.515  0.00  0.00    +0.055 C 
ENDBRANCH  15  17
ENDBRANCH   6  15
ENDBRANCH   1  14
BRANCH   3  20
ATOM     20  C14 UNL     1       9.699  11.650  27.929  0.00  0.00    +0.023 A 
ATOM     21  C15 UNL     1      10.016  13.010  27.785  0.00  0.00    +0.014 A 
ATOM     22  C16 UNL     1      10.555  13.730  28.854  0.00  0.00    +0.027 A 
ATOM     23  C17 UNL     1      10.781  13.109  30.096  0.00  0.00    +0.047 A 
ATOM     24  C21 UNL     1      10.455  11.748  30.238  0.00  0.00    +0.027 A 
ATOM     25  C22 UNL     1       9.925  11.026  29.166  0.00  0.00    +0.014 A 
BRANCH  23  26
ATOM     26  N3  UNL     1      11.339  13.853  31.200  0.00  0.00    -0.306 N 
ATOM     27  C18 UNL     1      12.363  14.725  31.163  0.00  0.00    +0.112 A 
ATOM     28  C19 UNL     1      12.569  15.201  32.437  0.00  0.00    +0.130 A 
ATOM     29  N4  UNL     1      11.683  14.634  33.279  0.00  0.00    -0.244 NA
ATOM     30  C20 UNL     1      10.949  13.818  32.493  0.00  0.00    +0.204 A 
ENDBRANCH  23  26
ENDBRANCH   3  20
TORSDOF 5
ENDMDL
MODEL 4
REMARK VINA RESULT:    -6.425     11.932     17.041
REMARK INTER + INTRA:          -8.962
REMARK INTER:                  -8.369
REMARK INTRA:                  -0.592
REMARK UNBOUND:                -0.659
REMARK  Name = /home/qwerty/github/datacon2025hack/step_04_hit_selection/docking/ligands/lig_113.pdb
REMARK  8 active torsions:
REMARK  status: ('A' for Active; 'I' for Inactive)
REMARK    1  A    between atoms: C1_1  and  C2_2
REMARK    2  A    between atoms: C2_2  and  C3_3
REMARK    3  A    between atoms: C2_2  and  C4_4
REMARK    4  A    between atoms: C2_2  and  O1_5
REMARK    5  A    between atoms: O1_5  and  C5_6
REMARK    6  A    between atoms: C11_14  and  C12_15
REMARK    7  A    between atoms: C13_17  and  C14_18
REMARK    8  A    between atoms: C17_21  and  N3_22
REMARK                            x       y       z     vdW  Elec       q    Type
REMARK                         _______ _______ _______ _____ _____    ______ ____
ROOT
ATOM      1  C12 UNL     1       6.837   3.481  30.025  0.00  0.00    +0.231 A 
ATOM      2  N2  UNL     1       7.489   4.536  29.503  0.00  0.00    -0.191 NA
ATOM      3  C13 UNL     1       6.735   5.565  29.950  0.00  0.00    +0.202 A 
ATOM      4  N5  UNL     1       5.695   5.149  30.699  0.00  0.00    -0.056 NA
ATOM      5  O3  UNL     1       5.795   3.856  30.726  0.00  0.00    -0.337 OA
ENDROOT
BRANCH   1  14
ATOM      6  C5  UNL     1       8.723  -1.662  30.940  0.00  0.00    +0.403 C 
ATOM      7  O2  UNL     1       9.852  -2.040  30.523  0.00  0.00    -0.226 OA
ATOM      8  N1  UNL     1       7.909  -0.799  30.122  0.00  0.00    -0.267 N 
ATOM      9  C6  UNL     1       8.349  -0.515  28.746  0.00  0.00    +0.111 C 
ATOM     10  C7  UNL     1       7.286   0.221  27.924  0.00  0.00    +0.023 C 
ATOM     11  C8  UNL     1       6.574   1.366  28.659  0.00  0.00    +0.008 C 
ATOM     12  C9  UNL     1       6.163   1.031  30.086  0.00  0.00    +0.023 C 
ATOM     13  C10 UNL     1       6.612  -0.333  30.642  0.00  0.00    +0.115 C 
ATOM     14  C11 UNL     1       7.267   2.062  29.837  0.00  0.00    +0.086 C 
BRANCH   6  15
ATOM     15  O1  UNL     1       8.251  -2.079  32.196  0.00  0.00    -0.445 OA
BRANCH  15  17
ATOM     16  C1  UNL     1       9.725  -0.469  33.303  0.00  0.00    +0.055 C 
ATOM     17  C2  UNL     1       8.697  -1.603  33.475  0.00  0.00    +0.107 C 
ATOM     18  C3  UNL     1       7.504  -1.132  34.327  0.00  0.00    +0.055 C 
ATOM     19  C4  UNL     1       9.377  -2.783  34.185  0.00  0.00    +0.055 C 
ENDBRANCH  15  17
ENDBRANCH   6  15
ENDBRANCH   1  14
BRANCH   3  20
ATOM     20  C14 UNL     1       7.020   6.985  29.653  0.00  0.00    +0.023 A 
ATOM     21  C15 UNL     1       7.105   7.927  30.690  0.00  0.00    +0.014 A 
ATOM     22  C16 UNL     1       7.365   9.271  30.408  0.00  0.00    +0.027 A 
ATOM     23  C17 UNL     1       7.557   9.701  29.083  0.00  0.00    +0.047 A 
ATOM     24  C21 UNL     1       7.479   8.752  28.048  0.00  0.00    +0.027 A 
ATOM     25  C22 UNL     1       7.210   7.411  28.329  0.00  0.00    +0.014 A 
BRANCH  23  26
ATOM     26  N3  UNL     1       7.824  11.090  28.792  0.00  0.00    -0.306 N 
ATOM     27  C18 UNL     1       7.758  12.131  29.643  0.00  0.00    +0.112 A 
ATOM     28  C19 UNL     1       8.087  13.273  28.951  0.00  0.00    +0.130 A 
ATOM     29  N4  UNL     1       8.359  12.962  27.669  0.00  0.00    -0.244 NA
ATOM     30  C20 UNL     1       8.189  11.624  27.607  0.00  0.00    +0.204 A 
ENDBRANCH  23  26
ENDBRANCH   3  20
TORSDOF 5
ENDMDL
MODEL 5
REMARK VINA RESULT:    -6.413      8.923     11.334
REMARK INTER + INTRA:          -8.947
REMARK INTER:                  -8.367
REMARK INTRA:                  -0.580
REMARK UNBOUND:                -0.659
REMARK  Name = /home/qwerty/github/datacon2025hack/step_04_hit_selection/docking/ligands/lig_113.pdb
REMARK  8 active torsions:
REMARK  status: ('A' for Active; 'I' for Inactive)
REMARK    1  A    between atoms: C1_1  and  C2_2
REMARK    2  A    between atoms: C2_2  and  C3_3
REMARK    3  A    between atoms: C2_2  and  C4_4
REMARK    4  A    between atoms: C2_2  and  O1_5
REMARK    5  A    between atoms: O1_5  and  C5_6
REMARK    6  A    between atoms: C11_14  and  C12_15
REMARK    7  A    between atoms: C13_17  and  C14_18
REMARK    8  A    between atoms: C17_21  and  N3_22
REMARK                            x       y       z     vdW  Elec       q    Type
REMARK                         _______ _______ _______ _____ _____    ______ ____
ROOT
ATOM      1  C12 UNL     1       9.883  12.958  29.575  0.00  0.00    +0.231 A 
ATOM      2  N2  UNL     1      10.028  11.765  28.968  0.00  0.00    -0.191 NA
ATOM      3  C13 UNL     1       9.328  11.959  27.828  0.00  0.00    +0.202 A 
ATOM      4  N5  UNL     1       8.799  13.197  27.757  0.00  0.00    -0.056 NA
ATOM      5  O3  UNL     1       9.168  13.784  28.853  0.00  0.00    -0.337 OA
ENDROOT
BRANCH   1  14
ATOM      6  C5  UNL     1      11.054  13.053  35.004  0.00  0.00    +0.403 C 
ATOM      7  O2  UNL     1      10.722  14.023  35.738  0.00  0.00    -0.226 OA
ATOM      8  N1  UNL     1      11.518  13.297  33.661  0.00  0.00    -0.267 N 
ATOM      9  C6  UNL     1      11.747  14.688  33.239  0.00  0.00    +0.111 C 
ATOM     10  C7  UNL     1      12.449  14.787  31.880  0.00  0.00    +0.023 C 
ATOM     11  C8  UNL     1      11.918  13.830  30.804  0.00  0.00    +0.008 C 
ATOM     12  C9  UNL     1      11.672  12.411  31.297  0.00  0.00    +0.023 C 
ATOM     13  C10 UNL     1      11.862  12.150  32.802  0.00  0.00    +0.115 C 
ATOM     14  C11 UNL     1      10.484  13.293  30.902  0.00  0.00    +0.086 C 
BRANCH   6  15
ATOM     15  O1  UNL     1      10.979  11.735  35.486  0.00  0.00    -0.445 OA
BRANCH  15  17
ATOM     16  C1  UNL     1      13.112  11.883  36.676  0.00  0.00    +0.055 C 
ATOM     17  C2  UNL     1      11.748  11.175  36.559  0.00  0.00    +0.107 C 
ATOM     18  C3  UNL     1      10.974  11.262  37.888  0.00  0.00    +0.055 C 
ATOM     19  C4  UNL     1      11.987   9.696  36.221  0.00  0.00    +0.055 C 
ENDBRANCH  15  17
ENDBRANCH   6  15
ENDBRANCH   1  14
BRANCH   3  20
ATOM     20  C14 UNL     1       9.163  10.932  26.778  0.00  0.00    +0.023 A 
ATOM     21  C15 UNL     1      10.238  10.588  25.942  0.00  0.00    +0.014 A 
ATOM     22  C16 UNL     1      10.079   9.623  24.943  0.00  0.00    +0.027 A 
ATOM     23  C17 UNL     1       8.844   8.974  24.764  0.00  0.00    +0.047 A 
ATOM     24  C21 UNL     1       7.772   9.316  25.608  0.00  0.00    +0.027 A 
ATOM     25  C22 UNL     1       7.929  10.287  26.601  0.00  0.00    +0.014 A 
BRANCH  23  26
ATOM     26  N3  UNL     1       8.680   7.979  23.731  0.00  0.00    -0.306 N 
ATOM     27  C18 UNL     1       8.898   6.654  23.830  0.00  0.00    +0.112 A 
ATOM     28  C19 UNL     1       8.622   6.080  22.611  0.00  0.00    +0.130 A 
ATOM     29  N4  UNL     1       8.234   7.033  21.741  0.00  0.00    -0.244 NA
ATOM     30  C20 UNL     1       8.280   8.177  22.456  0.00  0.00    +0.204 A 
ENDBRANCH  23  26
ENDBRANCH   3  20
TORSDOF 5
ENDMDL
MODEL 6
REMARK VINA RESULT:    -6.349     13.499     16.059
REMARK INTER + INTRA:          -8.864
REMARK INTER:                  -8.371
REMARK INTRA:                  -0.493
REMARK UNBOUND:                -0.659
REMARK  Name = /home/qwerty/github/datacon2025hack/step_04_hit_selection/docking/ligands/lig_113.pdb
REMARK  8 active torsions:
REMARK  status: ('A' for Active; 'I' for Inactive)
REMARK    1  A    between atoms: C1_1  and  C2_2
REMARK    2  A    between atoms: C2_2  and  C3_3
REMARK    3  A    between atoms: C2_2  and  C4_4
REMARK    4  A    between atoms: C2_2  and  O1_5
REMARK    5  A    between atoms: O1_5  and  C5_6
REMARK    6  A    between atoms: C11_14  and  C12_15
REMARK    7  A    between atoms: C13_17  and  C14_18
REMARK    8  A    between atoms: C17_21  and  N3_22
REMARK                            x       y       z     vdW  Elec       q    Type
REMARK                         _______ _______ _______ _____ _____    ______ ____
ROOT
ATOM      1  C12 UNL     1      21.050   1.373  28.521  0.00  0.00    +0.231 A 
ATOM      2  N2  UNL     1      20.654   2.295  29.418  0.00  0.00    -0.191 NA
ATOM      3  C13 UNL     1      21.735   2.362  30.227  0.00  0.00    +0.202 A 
ATOM      4  N5  UNL     1      22.722   1.532  29.833  0.00  0.00    -0.056 NA
ATOM      5  O3  UNL     1      22.261   0.942  28.773  0.00  0.00    -0.337 OA
ENDROOT
BRANCH   1  14
ATOM      6  C5  UNL     1      17.242  -1.233  25.429  0.00  0.00    +0.403 C 
ATOM      7  O2  UNL     1      17.561  -2.120  24.590  0.00  0.00    -0.226 OA
ATOM      8  N1  UNL     1      18.078  -0.071  25.594  0.00  0.00    -0.267 N 
ATOM      9  C6  UNL     1      19.198   0.129  24.659  0.00  0.00    +0.111 C 
ATOM     10  C7  UNL     1      19.855   1.506  24.806  0.00  0.00    +0.023 C 
ATOM     11  C8  UNL     1      20.089   1.961  26.254  0.00  0.00    +0.008 C 
ATOM     12  C9  UNL     1      18.913   1.709  27.186  0.00  0.00    +0.023 C 
ATOM     13  C10 UNL     1      17.714   0.935  26.607  0.00  0.00    +0.115 C 
ATOM     14  C11 UNL     1      20.210   0.918  27.371  0.00  0.00    +0.086 C 
BRANCH   6  15
ATOM     15  O1  UNL     1      16.077  -1.368  26.201  0.00  0.00    -0.445 OA
BRANCH  15  17
ATOM     16  C1  UNL     1      14.573  -0.687  24.394  0.00  0.00    +0.055 C 
ATOM     17  C2  UNL     1      14.734  -1.479  25.706  0.00  0.00    +0.107 C 
ATOM     18  C3  UNL     1      14.350  -2.957  25.501  0.00  0.00    +0.055 C 
ATOM     19  C4  UNL     1      13.808  -0.870  26.769  0.00  0.00    +0.055 C 
ENDBRANCH  15  17
ENDBRANCH   6  15
ENDBRANCH   1  14
BRANCH   3  20
ATOM     20  C14 UNL     1      21.827   3.248  31.406  0.00  0.00    +0.023 A 
ATOM     21  C15 UNL     1      22.064   4.623  31.249  0.00  0.00    +0.014 A 
ATOM     22  C16 UNL     1      22.160   5.458  32.366  0.00  0.00    +0.027 A 
ATOM     23  C17 UNL     1      22.011   4.939  33.664  0.00  0.00    +0.047 A 
ATOM     24  C21 UNL     1      21.767   3.562  33.817  0.00  0.00    +0.027 A 
ATOM     25  C22 UNL     1      21.680   2.726  32.701  0.00  0.00    +0.014 A 
BRANCH  23  26
ATOM     26  N3  UNL     1      22.112   5.802  34.817  0.00  0.00    -0.306 N 
ATOM     27  C18 UNL     1      21.109   6.427  35.461  0.00  0.00    +0.112 A 
ATOM     28  C19 UNL     1      21.647   7.149  36.500  0.00  0.00    +0.130 A 
ATOM     29  N4  UNL     1      22.985   6.987  36.517  0.00  0.00    -0.244 NA
ATOM     30  C20 UNL     1      23.234   6.161  35.478  0.00  0.00    +0.204 A 
ENDBRANCH  23  26
ENDBRANCH   3  20
TORSDOF 5
ENDMDL
MODEL 7
REMARK VINA RESULT:    -6.340      5.934      7.405
REMARK INTER + INTRA:          -8.852
REMARK INTER:                  -8.553
REMARK INTRA:                  -0.299
REMARK UNBOUND:                -0.659
REMARK  Name = /home/qwerty/github/datacon2025hack/step_04_hit_selection/docking/ligands/lig_113.pdb
REMARK  8 active torsions:
REMARK  status: ('A' for Active; 'I' for Inactive)
REMARK    1  A    between atoms: C1_1  and  C2_2
REMARK    2  A    between atoms: C2_2  and  C3_3
REMARK    3  A    between atoms: C2_2  and  C4_4
REMARK    4  A    between atoms: C2_2  and  O1_5
REMARK    5  A    between atoms: O1_5  and  C5_6
REMARK    6  A    between atoms: C11_14  and  C12_15
REMARK    7  A    between atoms: C13_17  and  C14_18
REMARK    8  A    between atoms: C17_21  and  N3_22
REMARK                            x       y       z     vdW  Elec       q    Type
REMARK                         _______ _______ _______ _____ _____    ______ ____
ROOT
ATOM      1  C12 UNL     1      23.368  13.953  26.592  0.00  0.00    +0.231 A 
ATOM      2  N2  UNL     1      22.201  14.029  27.257  0.00  0.00    -0.191 NA
ATOM      3  C13 UNL     1      22.594  13.753  28.521  0.00  0.00    +0.202 A 
ATOM      4  N5  UNL     1      23.921  13.529  28.606  0.00  0.00    -0.056 NA
ATOM      5  O3  UNL     1      24.363  13.666  27.394  0.00  0.00    -0.337 OA
ENDROOT
BRANCH   1  14
ATOM      6  C5  UNL     1      22.761  13.609  21.082  0.00  0.00    +0.403 C 
ATOM      7  O2  UNL     1      23.666  13.135  20.341  0.00  0.00    -0.226 OA
ATOM      8  N1  UNL     1      23.116  14.431  22.211  0.00  0.00    -0.267 N 
ATOM      9  C6  UNL     1      24.524  14.830  22.375  0.00  0.00    +0.111 C 
ATOM     10  C7  UNL     1      24.718  15.879  23.475  0.00  0.00    +0.023 C 
ATOM     11  C8  UNL     1      23.933  15.615  24.768  0.00  0.00    +0.008 C 
ATOM     12  C9  UNL     1      22.492  15.179  24.545  0.00  0.00    +0.023 C 
ATOM     13  C10 UNL     1      22.049  14.941  23.090  0.00  0.00    +0.115 C 
ATOM     14  C11 UNL     1      23.503  14.186  25.122  0.00  0.00    +0.086 C 
BRANCH   6  15
ATOM     15  O1  UNL     1      21.408  13.345  20.811  0.00  0.00    -0.445 OA
BRANCH  15  17
ATOM     16  C1  UNL     1      20.007  15.261  20.214  0.00  0.00    +0.055 C 
ATOM     17  C2  UNL     1      20.620  13.922  19.760  0.00  0.00    +0.107 C 
ATOM     18  C3  UNL     1      21.467  14.115  18.487  0.00  0.00    +0.055 C 
ATOM     19  C4  UNL     1      19.482  12.937  19.453  0.00  0.00    +0.055 C 
ENDBRANCH  15  17
ENDBRANCH   6  15
ENDBRANCH   1  14
BRANCH   3  20
ATOM     20  C14 UNL     1      21.676  13.706  29.677  0.00  0.00    +0.023 A 
ATOM     21  C15 UNL     1      21.424  14.860  30.436  0.00  0.00    +0.014 A 
ATOM     22  C16 UNL     1      20.563  14.812  31.536  0.00  0.00    +0.027 A 
ATOM     23  C17 UNL     1      19.926  13.611  31.896  0.00  0.00    +0.047 A 
ATOM     24  C21 UNL     1      20.175  12.459  31.128  0.00  0.00    +0.027 A 
ATOM     25  C22 UNL     1      21.043  12.505  30.035  0.00  0.00    +0.014 A 
BRANCH  23  26
ATOM     26  N3  UNL     1      19.037  13.562  33.032  0.00  0.00    -0.306 N 
ATOM     27  C18 UNL     1      19.045  12.667  34.038  0.00  0.00    +0.112 A 
ATOM     28  C19 UNL     1      18.027  12.987  34.906  0.00  0.00    +0.130 A 
ATOM     29  N4  UNL     1      17.374  14.075  34.455  0.00  0.00    -0.244 NA
ATOM     30  C20 UNL     1      18.016  14.400  33.312  0.00  0.00    +0.204 A 
ENDBRANCH  23  26
ENDBRANCH   3  20
TORSDOF 5
ENDMDL
MODEL 8
REMARK VINA RESULT:    -6.227      8.334     11.072
REMARK INTER + INTRA:          -8.707
REMARK INTER:                  -8.125
REMARK INTRA:                  -0.582
REMARK UNBOUND:                -0.659
REMARK  Name = /home/qwerty/github/datacon2025hack/step_04_hit_selection/docking/ligands/lig_113.pdb
REMARK  8 active torsions:
REMARK  status: ('A' for Active; 'I' for Inactive)
REMARK    1  A    between atoms: C1_1  and  C2_2
REMARK    2  A    between atoms: C2_2  and  C3_3
REMARK    3  A    between atoms: C2_2  and  C4_4
REMARK    4  A    between atoms: C2_2  and  O1_5
REMARK    5  A    between atoms: O1_5  and  C5_6
REMARK    6  A    between atoms: C11_14  and  C12_15
REMARK    7  A    between atoms: C13_17  and  C14_18
REMARK    8  A    between atoms: C17_21  and  N3_22
REMARK                            x       y       z     vdW  Elec       q    Type
REMARK                         _______ _______ _______ _____ _____    ______ ____
ROOT
ATOM      1  C12 UNL     1       9.123  12.074  27.915  0.00  0.00    +0.231 A 
ATOM      2  N2  UNL     1      10.252  11.956  28.637  0.00  0.00    -0.191 NA
ATOM      3  C13 UNL     1      10.012  12.815  29.652  0.00  0.00    +0.202 A 
ATOM      4  N5  UNL     1       8.807  13.409  29.546  0.00  0.00    -0.056 NA
ATOM      5  O3  UNL     1       8.286  12.921  28.462  0.00  0.00    -0.337 OA
ENDROOT
BRANCH   1  14
ATOM      6  C5  UNL     1       9.217  10.334  22.641  0.00  0.00    +0.403 C 
ATOM      7  O2  UNL     1       8.239  10.515  21.864  0.00  0.00    -0.226 OA
ATOM      8  N1  UNL     1       8.981   9.998  24.022  0.00  0.00    -0.267 N 
ATOM      9  C6  UNL     1       7.602   9.712  24.451  0.00  0.00    +0.111 C 
ATOM     10  C7  UNL     1       7.528   9.152  25.875  0.00  0.00    +0.023 C 
ATOM     11  C8  UNL     1       8.424   9.863  26.900  0.00  0.00    +0.008 C 
ATOM     12  C9  UNL     1       9.830  10.160  26.400  0.00  0.00    +0.023 C 
ATOM     13  C10 UNL     1      10.133   9.832  24.926  0.00  0.00    +0.115 C 
ATOM     14  C11 UNL     1       8.857  11.314  26.656  0.00  0.00    +0.086 C 
BRANCH   6  15
ATOM     15  O1  UNL     1      10.535  10.456  22.169  0.00  0.00    -0.445 OA
BRANCH  15  17
ATOM     16  C1  UNL     1      10.733   8.131  21.429  0.00  0.00    +0.055 C 
ATOM     17  C2  UNL     1      11.186   9.590  21.228  0.00  0.00    +0.107 C 
ATOM     18  C3  UNL     1      10.912  10.052  19.784  0.00  0.00    +0.055 C 
ATOM     19  C4  UNL     1      12.695   9.681  21.498  0.00  0.00    +0.055 C 
ENDBRANCH  15  17
ENDBRANCH   6  15
ENDBRANCH   1  14
BRANCH   3  20
ATOM     20  C14 UNL     1      10.961  13.072  30.756  0.00  0.00    +0.023 A 
ATOM     21  C15 UNL     1      11.096  12.154  31.809  0.00  0.00    +0.014 A 
ATOM     22  C16 UNL     1      11.987  12.402  32.857  0.00  0.00    +0.027 A 
ATOM     23  C17 UNL     1      12.771  13.570  32.870  0.00  0.00    +0.047 A 
ATOM     24  C21 UNL     1      12.638  14.483  31.808  0.00  0.00    +0.027 A 
ATOM     25  C22 UNL     1      11.741  14.239  30.766  0.00  0.00    +0.014 A 
BRANCH  23  26
ATOM     26  N3  UNL     1      13.690  13.826  33.953  0.00  0.00    -0.306 N 
ATOM     27  C18 UNL     1      13.451  14.521  35.081  0.00  0.00    +0.112 A 
ATOM     28  C19 UNL     1      14.600  14.523  35.837  0.00  0.00    +0.130 A 
ATOM     29  N4  UNL     1      15.564  13.836  35.194  0.00  0.00    -0.244 NA
ATOM     30  C20 UNL     1      14.976  13.426  34.050  0.00  0.00    +0.204 A 
ENDBRANCH  23  26
ENDBRANCH   3  20
TORSDOF 5
ENDMDL
MODEL 9
REMARK VINA RESULT:    -6.040      7.890      9.733
REMARK INTER + INTRA:          -8.465
REMARK INTER:                  -7.822
REMARK INTRA:                  -0.644
REMARK UNBOUND:                -0.659
REMARK  Name = /home/qwerty/github/datacon2025hack/step_04_hit_selection/docking/ligands/lig_113.pdb
REMARK  8 active torsions:
REMARK  status: ('A' for Active; 'I' for Inactive)
REMARK    1  A    between atoms: C1_1  and  C2_2
REMARK    2  A    between atoms: C2_2  and  C3_3
REMARK    3  A    between atoms: C2_2  and  C4_4
REMARK    4  A    between atoms: C2_2  and  O1_5
REMARK    5  A    between atoms: O1_5  and  C5_6
REMARK    6  A    between atoms: C11_14  and  C12_15
REMARK    7  A    between atoms: C13_17  and  C14_18
REMARK    8  A    between atoms: C17_21  and  N3_22
REMARK                            x       y       z     vdW  Elec       q    Type
REMARK                         _______ _______ _______ _____ _____    ______ ____
ROOT
ATOM      1  C12 UNL     1      11.515  13.316  31.530  0.00  0.00    +0.231 A 
ATOM      2  N2  UNL     1      11.038  12.256  30.853  0.00  0.00    -0.191 NA
ATOM      3  C13 UNL     1      10.914  12.769  29.608  0.00  0.00    +0.202 A 
ATOM      4  N5  UNL     1      11.300  14.058  29.545  0.00  0.00    -0.056 NA
ATOM      5  O3  UNL     1      11.669  14.358  30.752  0.00  0.00    -0.337 OA
ENDROOT
BRANCH   1  14
ATOM      6  C5  UNL     1      14.235  12.898  36.355  0.00  0.00    +0.403 C 
ATOM      7  O2  UNL     1      14.066  11.917  37.131  0.00  0.00    -0.226 OA
ATOM      8  N1  UNL     1      13.111  13.451  35.644  0.00  0.00    -0.267 N 
ATOM      9  C6  UNL     1      11.762  12.959  35.969  0.00  0.00    +0.111 C 
ATOM     10  C7  UNL     1      10.654  13.787  35.309  0.00  0.00    +0.023 C 
ATOM     11  C8  UNL     1      10.906  14.155  33.840  0.00  0.00    +0.008 C 
ATOM     12  C9  UNL     1      12.322  14.632  33.550  0.00  0.00    +0.023 C 
ATOM     13  C10 UNL     1      13.333  14.569  34.710  0.00  0.00    +0.115 C 
ATOM     14  C11 UNL     1      11.844  13.291  32.988  0.00  0.00    +0.086 C 
BRANCH   6  15
ATOM     15  O1  UNL     1      15.513  13.457  36.181  0.00  0.00    -0.445 OA
BRANCH  15  17
ATOM     16  C1  UNL     1      16.026  11.890  34.373  0.00  0.00    +0.055 C 
ATOM     17  C2  UNL     1      16.573  12.925  35.375  0.00  0.00    +0.107 C 
ATOM     18  C3  UNL     1      17.317  14.055  34.638  0.00  0.00    +0.055 C 
ATOM     19  C4  UNL     1      17.556  12.223  36.324  0.00  0.00    +0.055 C 
ENDBRANCH  15  17
ENDBRANCH   6  15
ENDBRANCH   1  14
BRANCH   3  20
ATOM     20  C14 UNL     1      10.416  12.001  28.447  0.00  0.00    +0.023 A 
ATOM     21  C15 UNL     1       9.093  11.534  28.416  0.00  0.00    +0.014 A 
ATOM     22  C16 UNL     1       8.625  10.800  27.322  0.00  0.00    +0.027 A 
ATOM     23  C17 UNL     1       9.468  10.525  26.230  0.00  0.00    +0.047 A 
ATOM     24  C21 UNL     1      10.792  11.001  26.263  0.00  0.00    +0.027 A 
ATOM     25  C22 UNL     1      11.261  11.727  27.360  0.00  0.00    +0.014 A 
BRANCH  23  26
ATOM     26  N3  UNL     1       8.986   9.765  25.102  0.00  0.00    -0.306 N 
ATOM     27  C18 UNL     1       8.098  10.160  24.170  0.00  0.00    +0.112 A 
ATOM     28  C19 UNL     1       7.920   9.127  23.280  0.00  0.00    +0.130 A 
ATOM     29  N4  UNL     1       8.688   8.081  23.643  0.00  0.00    -0.244 NA
ATOM     30  C20 UNL     1       9.323   8.504  24.756  0.00  0.00    +0.204 A 
ENDBRANCH  23  26
ENDBRANCH   3  20
TORSDOF 5
ENDMDL
