REMARK  Name = /home/qwerty/github/datacon2025hack/step_04_hit_selection/docking/ligands/lig_478.pdb
REMARK  5 active torsions:
REMARK  status: ('A' for Active; 'I' for Inactive)
REMARK    1  A    between atoms: C1_1  and  C2_2
REMARK    2  A    between atoms: C4_4  and  C5_5
REMARK    3  A    between atoms: C8_10  and  N2_11
REMARK    4  A    between atoms: C9_12  and  C10_14
REMARK    5  A    between atoms: C13_18  and  C14_19
REMARK                            x       y       z     vdW  Elec       q    Type
REMARK                         _______ _______ _______ _____ _____    ______ ____
ROOT
ATOM      1  C5  UNL     1      -2.086   0.033  -0.904  0.00  0.00    +0.247 C 
ATOM      2  O1  UNL     1      -1.899  -0.341  -2.094  0.00  0.00    -0.270 OA
ATOM      3  N1  UNL     1      -0.958   0.260  -0.042  0.00  0.00    -0.296 N 
ATOM      4  C6  UNL     1      -1.055   0.444   1.398  0.00  0.00    +0.110 C 
ATOM      5  C7  UNL     1       0.367   0.296   1.923  0.00  0.00    +0.043 C 
ATOM      6  C8  UNL     1       1.272   0.539   0.709  0.00  0.00    +0.092 C 
ATOM      7  C17 UNL     1       0.417   0.176  -0.504  0.00  0.00    +0.130 C 
ENDROOT
BRANCH   1  11
ATOM      8  C1  UNL     1      -5.549   3.137   0.892  0.00  0.00    +0.065 C 
ATOM      9  C2  UNL     1      -5.143   1.769   0.447  0.00  0.00    +0.040 A 
ATOM     10  C3  UNL     1      -3.836   1.525   0.012  0.00  0.00    +0.036 A 
ATOM     11  C4  UNL     1      -3.469   0.245  -0.426  0.00  0.00    +0.048 A 
ATOM     12  C18 UNL     1      -4.435  -0.789  -0.428  0.00  0.00    +0.013 A 
ATOM     13  C19 UNL     1      -4.136  -2.108  -0.825  0.00  0.00    +0.011 A 
ATOM     14  C20 UNL     1      -5.127  -3.094  -0.808  0.00  0.00    +0.001 A 
ATOM     15  C21 UNL     1      -6.423  -2.782  -0.391  0.00  0.00    +0.002 A 
ATOM     16  C22 UNL     1      -6.734  -1.483   0.018  0.00  0.00    +0.028 A 
ATOM     17  C23 UNL     1      -5.750  -0.488   0.008  0.00  0.00    +0.072 A 
ATOM     18  N3  UNL     1      -6.061   0.767   0.425  0.00  0.00    -0.252 NA
ENDBRANCH   1  11
BRANCH   6  19
ATOM     19  N2  UNL     1       2.501  -0.259   0.763  0.00  0.00    -0.307 N 
ATOM     20  C9  UNL     1       3.567  -0.074  -0.180  0.00  0.00    +0.248 C 
ATOM     21  O2  UNL     1       3.454   0.783  -1.097  0.00  0.00    -0.270 OA
ATOM     22  H10 UNL     1       2.643  -0.945   1.540  0.00  0.00    +0.149 HD
BRANCH  20  23
ATOM     23  C10 UNL     1       4.755  -0.945  -0.120  0.00  0.00    +0.078 A 
ATOM     24  C11 UNL     1       4.673  -2.317   0.005  0.00  0.00    +0.054 A 
ATOM     25  C12 UNL     1       5.967  -2.781  -0.003  0.00  0.00    +0.196 A 
ATOM     26  O3  UNL     1       6.798  -1.772  -0.108  0.00  0.00    -0.467 OA
ATOM     27  C13 UNL     1       6.124  -0.644  -0.173  0.00  0.00    +0.120 A 
BRANCH  27  28
ATOM     28  C14 UNL     1       6.876   0.670  -0.230  0.00  0.00    +0.056 C 
ATOM     29  C15 UNL     1       6.502   1.594  -1.376  0.00  0.00    +0.012 C 
ATOM     30  C16 UNL     1       6.164   1.981   0.061  0.00  0.00    +0.012 C 
ENDBRANCH  27  28
ENDBRANCH  20  23
ENDBRANCH   6  19
TORSDOF 4
