REMARK  Name = /home/qwerty/github/datacon2025hack/step_04_hit_selection/docking/ligands/lig_139.pdb
REMARK  6 active torsions:
REMARK  status: ('A' for Active; 'I' for Inactive)
REMARK    1  A    between atoms: C1_1  and  C2_2
REMARK    2  A    between atoms: C2_2  and  N1_3
REMARK    3  A    between atoms: C2_2  and  C20_27
REMARK    4  A    between atoms: C6_9  and  N3_10
REMARK    5  A    between atoms: C10_15  and  C11_16
REMARK    6  A    between atoms: N4_18  and  C12_19
REMARK                            x       y       z     vdW  Elec       q    Type
REMARK                         _______ _______ _______ _____ _____    ______ ____
ROOT
ATOM      1  N1  UNL     1      -4.551   0.640   1.035  0.00  0.00    -0.293 N 
ATOM      2  C3  UNL     1      -3.762   0.080   2.098  0.00  0.00    +0.303 C 
ATOM      3  O1  UNL     1      -4.309  -0.193   3.203  0.00  0.00    -0.253 OA
ATOM      4  N2  UNL     1      -2.354  -0.181   1.913  0.00  0.00    -0.286 N 
ATOM      5  C4  UNL     1      -1.514  -0.542   3.066  0.00  0.00    +0.111 C 
ATOM      6  C5  UNL     1      -0.100   0.031   2.903  0.00  0.00    +0.041 C 
ATOM      7  C6  UNL     1       0.539  -0.283   1.523  0.00  0.00    +0.080 C 
ATOM      8  C18 UNL     1      -0.434  -0.953   0.535  0.00  0.00    +0.041 C 
ATOM      9  C19 UNL     1      -1.798  -0.257   0.551  0.00  0.00    +0.111 C 
ATOM     10  H5  UNL     1      -4.062   1.109   0.240  0.00  0.00    +0.151 HD
ENDROOT
BRANCH   7  11
ATOM     11  N3  UNL     1       1.757  -1.094   1.675  0.00  0.00    -0.287 N 
ATOM     12  C7  UNL     1       1.848  -2.366   2.296  0.00  0.00    +0.216 C 
ATOM     13  O2  UNL     1       0.852  -2.994   2.741  0.00  0.00    -0.276 OA
ATOM     14  C8  UNL     1       3.231  -2.876   2.370  0.00  0.00    +0.098 C 
ATOM     15  C9  UNL     1       4.071  -1.696   1.861  0.00  0.00    +0.041 C 
ATOM     16  C10 UNL     1       3.088  -0.650   1.283  0.00  0.00    +0.163 C 
BRANCH  16  17
ATOM     17  C11 UNL     1       3.204  -0.575  -0.217  0.00  0.00    +0.234 C 
ATOM     18  O3  UNL     1       2.641  -1.448  -0.934  0.00  0.00    -0.274 OA
ATOM     19  N4  UNL     1       4.002   0.452  -0.824  0.00  0.00    -0.311 N 
ATOM     20  H16 UNL     1       4.388   1.202  -0.206  0.00  0.00    +0.149 HD
BRANCH  19  21
ATOM     21  C12 UNL     1       4.238   0.510  -2.273  0.00  0.00    +0.073 C 
ATOM     22  C13 UNL     1       5.179  -0.627  -2.723  0.00  0.00    +0.022 C 
ATOM     23  C14 UNL     1       6.611  -0.412  -2.221  0.00  0.00    +0.002 C 
ATOM     24  C15 UNL     1       7.156   0.937  -2.701  0.00  0.00    +0.000 C 
ATOM     25  C16 UNL     1       6.259   2.086  -2.231  0.00  0.00    +0.002 C 
ATOM     26  C17 UNL     1       4.805   1.885  -2.690  0.00  0.00    +0.022 C 
ENDBRANCH  19  21
ENDBRANCH  16  17
ENDBRANCH   7  11
BRANCH   1  28
ATOM     27  C1  UNL     1      -6.436   2.086   1.663  0.00  0.00    +0.033 C 
ATOM     28  C2  UNL     1      -6.012   0.725   1.101  0.00  0.00    +0.102 C 
BRANCH  28  29
ATOM     29  C20 UNL     1      -6.608   0.470  -0.270  0.00  0.00    -0.027 A 
ATOM     30  C21 UNL     1      -6.412   1.377  -1.331  0.00  0.00    +0.008 A 
ATOM     31  C22 UNL     1      -6.948   1.113  -2.595  0.00  0.00    +0.038 A 
ATOM     32  C23 UNL     1      -7.675  -0.057  -2.820  0.00  0.00    +0.123 A 
ATOM     33  F1  UNL     1      -8.182  -0.316  -4.050  0.00  0.00    -0.205 F 
ATOM     34  C24 UNL     1      -7.862  -0.972  -1.780  0.00  0.00    +0.038 A 
ATOM     35  C25 UNL     1      -7.334  -0.712  -0.512  0.00  0.00    +0.008 A 
ENDBRANCH  28  29
ENDBRANCH   1  28
TORSDOF 5
