REMARK  Name = /home/qwerty/github/datacon2025hack/step_04_hit_selection/docking/ligands/lig_612.pdb
REMARK  8 active torsions:
REMARK  status: ('A' for Active; 'I' for Inactive)
REMARK    1  A    between atoms: C1_1  and  C2_2
REMARK    2  A    between atoms: N1_4  and  C3_5
REMARK    3  A    between atoms: C6_8  and  N2_9
REMARK    4  A    between atoms: N3_12  and  C8_13
REMARK    5  A    between atoms: C12_17  and  C13_18
REMARK    6  A    between atoms: C13_18  and  N4_19
REMARK    7  A    between atoms: N4_19  and  S1_20
REMARK    8  A    between atoms: S1_20  and  C14_21
REMARK                            x       y       z     vdW  Elec       q    Type
REMARK                         _______ _______ _______ _____ _____    ______ ____
ROOT
ATOM      1  N2  UNL     1       1.521   0.455   1.958  0.00  0.00    -0.269 N 
ATOM      2  C7  UNL     1       0.241  -0.193   1.967  0.00  0.00    +0.304 C 
ATOM      3  O2  UNL     1       0.072  -1.270   1.333  0.00  0.00    -0.253 OA
ATOM      4  N3  UNL     1      -0.836   0.375   2.725  0.00  0.00    -0.296 N 
ATOM      5  H7  UNL     1       1.745   1.102   2.748  0.00  0.00    +0.156 HD
ATOM      6  H8  UNL     1      -0.658   1.277   3.223  0.00  0.00    +0.151 HD
ENDROOT
BRANCH   1  10
ATOM      7  C3  UNL     1       4.537  -0.159  -0.983  0.00  0.00    +0.033 A 
ATOM      8  C4  UNL     1       4.876   0.174   0.336  0.00  0.00    +0.025 A 
ATOM      9  C5  UNL     1       3.880   0.362   1.299  0.00  0.00    +0.025 A 
ATOM     10  C6  UNL     1       2.527   0.223   0.959  0.00  0.00    +0.035 A 
ATOM     11  C15 UNL     1       2.183  -0.071  -0.373  0.00  0.00    +0.025 A 
ATOM     12  C16 UNL     1       3.179  -0.258  -1.336  0.00  0.00    +0.025 A 
BRANCH   7  16
ATOM     13  C1  UNL     1       6.517  -1.088  -4.185  0.00  0.00    +0.109 C 
ATOM     14  C2  UNL     1       5.495  -1.184  -3.100  0.00  0.00    +0.214 C 
ATOM     15  O1  UNL     1       4.619  -2.088  -3.155  0.00  0.00    -0.276 OA
ATOM     16  N1  UNL     1       5.579  -0.312  -1.962  0.00  0.00    -0.286 N 
ATOM     17  H4  UNL     1       6.481   0.193  -1.804  0.00  0.00    +0.155 HD
ENDBRANCH   7  16
ENDBRANCH   1  10
BRANCH   4  18
ATOM     18  C8  UNL     1      -2.222  -0.083   2.581  0.00  0.00    +0.079 C 
ATOM     19  C9  UNL     1      -2.997   0.062   3.898  0.00  0.00    +0.022 C 
ATOM     20  C10 UNL     1      -4.281   0.824   3.575  0.00  0.00    +0.002 C 
ATOM     21  C11 UNL     1      -4.405   0.826   2.061  0.00  0.00    +0.007 C 
ATOM     22  C12 UNL     1      -2.971   0.767   1.547  0.00  0.00    +0.025 C 
BRANCH  22  23
ATOM     23  C13 UNL     1      -2.865   0.187   0.125  0.00  0.00    +0.110 C 
BRANCH  23  24
ATOM     24  N4  UNL     1      -3.500   1.085  -0.844  0.00  0.00    -0.194 NA
ATOM     25  H19 UNL     1      -4.537   1.008  -0.732  0.00  0.00    +0.148 HD
BRANCH  24  26
ATOM     26  S1  UNL     1      -3.137   0.563  -2.462  0.00  0.00    +0.027 S 
ATOM     27  C14 UNL     1      -3.695  -1.108  -2.726  0.00  0.00    +0.214 C 
ATOM     28  O3  UNL     1      -3.838   1.468  -3.436  0.00  0.00    -0.158 OA
ATOM     29  O4  UNL     1      -1.656   0.639  -2.703  0.00  0.00    -0.158 OA
ENDBRANCH  24  26
ENDBRANCH  23  24
ENDBRANCH  22  23
ENDBRANCH   4  18
TORSDOF 6
