REMARK  Name = /home/qwerty/github/datacon2025hack/step_04_hit_selection/docking/ligands/lig_179.pdb
REMARK  6 active torsions:
REMARK  status: ('A' for Active; 'I' for Inactive)
REMARK    1  A    between atoms: C1_1  and  C2_2
REMARK    2  A    between atoms: C2_2  and  C3_3
REMARK    3  A    between atoms: C2_2  and  N1_4
REMARK    4  A    between atoms: C5_6  and  O1_7
REMARK    5  A    between atoms: C6_8  and  N2_9
REMARK    6  A    between atoms: C7_10  and  C8_12
REMARK                            x       y       z     vdW  Elec       q    Type
REMARK                         _______ _______ _______ _____ _____    ______ ____
ROOT
ATOM      1  N2  UNL     1       0.093   0.547  -0.297  0.00  0.00    -0.303 N 
ATOM      2  C7  UNL     1       1.111   0.484  -1.309  0.00  0.00    +0.265 C 
ATOM      3  O2  UNL     1       0.790   0.445  -2.527  0.00  0.00    -0.268 OA
ATOM      4  H13 UNL     1       0.388   0.657   0.699  0.00  0.00    +0.149 HD
ENDROOT
BRANCH   2   5
ATOM      5  C8  UNL     1       2.534   0.471  -0.935  0.00  0.00    +0.147 A 
ATOM      6  C9  UNL     1       3.607   0.373  -1.828  0.00  0.00    +0.057 A 
ATOM      7  C10 UNL     1       4.695   0.349  -0.989  0.00  0.00    +0.040 A 
ATOM      8  N3  UNL     1       4.295   0.424   0.257  0.00  0.00    -0.268 N 
ATOM      9  N4  UNL     1       2.979   0.459   0.347  0.00  0.00    -0.166 NA
ATOM     10  C11 UNL     1       5.300   0.060   1.221  0.00  0.00    +0.144 C 
ATOM     11  C12 UNL     1       6.556  -0.180   0.341  0.00  0.00    +0.029 C 
ATOM     12  C13 UNL     1       6.105  -0.052  -1.141  0.00  0.00    +0.057 C 
ENDBRANCH   2   5
BRANCH   1  16
ATOM     13  N1  UNL     1      -3.499   0.151   0.304  0.00  0.00    -0.296 NA
ATOM     14  C4  UNL     1      -3.152  -1.069  -0.445  0.00  0.00    +0.118 C 
ATOM     15  C5  UNL     1      -1.790  -0.845  -1.111  0.00  0.00    +0.150 C 
ATOM     16  C6  UNL     1      -1.336   0.529  -0.633  0.00  0.00    +0.117 C 
ATOM     17  C14 UNL     1      -2.213   0.801   0.580  0.00  0.00    +0.109 C 
BRANCH  13  19
ATOM     18  C1  UNL     1      -5.625  -0.796   1.182  0.00  0.00    +0.024 C 
ATOM     19  C2  UNL     1      -4.283  -0.131   1.536  0.00  0.00    +0.051 C 
ATOM     20  C3  UNL     1      -4.572   1.165   2.316  0.00  0.00    +0.024 C 
ENDBRANCH  13  19
BRANCH  15  21
ATOM     21  O1  UNL     1      -1.905  -0.858  -2.511  0.00  0.00    -0.389 OA
ATOM     22  H11 UNL     1      -1.996  -1.810  -2.777  0.00  0.00    +0.210 HD
ENDBRANCH  15  21
ENDBRANCH   1  16
TORSDOF 4
