MODEL 1
REMARK VINA RESULT:    -8.040      0.000      0.000
REMARK INTER + INTRA:         -10.669
REMARK INTER:                  -9.920
REMARK INTRA:                  -0.750
REMARK UNBOUND:                -0.750
REMARK  Name = /home/qwerty/github/datacon2025hack/step_04_hit_selection/docking/ligands/lig_767.pdb
REMARK  6 active torsions:
REMARK  status: ('A' for Active; 'I' for Inactive)
REMARK    1  A    between atoms: C1_1  and  C2_2
REMARK    2  A    between atoms: C2_2  and  C3_3
REMARK    3  A    between atoms: C2_2  and  N1_4
REMARK    4  A    between atoms: N2_7  and  C6_8
REMARK    5  A    between atoms: C19_23  and  C20_24
REMARK    6  A    between atoms: N5_26  and  C21_27
REMARK                            x       y       z     vdW  Elec       q    Type
REMARK                         _______ _______ _______ _____ _____    ______ ____
ROOT
ATOM      1  N1  UNL     1      23.283   5.984  33.942  0.00  0.00    -0.286 NA
ATOM      2  C4  UNL     1      23.478   6.335  35.371  0.00  0.00    +0.104 C 
ATOM      3  C5  UNL     1      22.553   7.466  35.846  0.00  0.00    +0.122 C 
ATOM      4  N2  UNL     1      21.149   7.174  35.524  0.00  0.00    -0.312 N 
ATOM      5  C18 UNL     1      20.847   6.118  34.552  0.00  0.00    +0.135 C 
ATOM      6  C19 UNL     1      21.897   6.134  33.427  0.00  0.00    +0.161 C 
ENDROOT
BRANCH   4   7
ATOM      7  C6  UNL     1      20.074   7.831  36.232  0.00  0.00    +0.122 A 
ATOM      8  C7  UNL     1      19.464   7.235  37.352  0.00  0.00    +0.044 A 
ATOM      9  C8  UNL     1      18.428   7.899  38.012  0.00  0.00    +0.013 A 
ATOM     10  C9  UNL     1      18.003   9.154  37.563  0.00  0.00    +0.003 A 
ATOM     11  C10 UNL     1      16.966   9.842  38.211  0.00  0.00    +0.011 A 
ATOM     12  C11 UNL     1      16.558  11.096  37.748  0.00  0.00    +0.011 A 
ATOM     13  C12 UNL     1      17.183  11.675  36.633  0.00  0.00    +0.003 A 
ATOM     14  C13 UNL     1      16.789  12.931  36.153  0.00  0.00    +0.011 A 
ATOM     15  C14 UNL     1      17.429  13.482  35.042  0.00  0.00    +0.020 A 
ATOM     16  C15 UNL     1      18.458  12.773  34.420  0.00  0.00    +0.111 A 
ATOM     17  N3  UNL     1      18.833  11.554  34.893  0.00  0.00    -0.253 NA
ATOM     18  C16 UNL     1      18.228  10.988  35.975  0.00  0.00    +0.097 A 
ATOM     19  C17 UNL     1      18.638   9.728  36.440  0.00  0.00    +0.099 A 
ATOM     20  N4  UNL     1      19.643   9.055  35.817  0.00  0.00    -0.230 NA
ENDBRANCH   4   7
BRANCH   6  21
ATOM     21  C20 UNL     1      21.597   5.025  32.452  0.00  0.00    +0.236 C 
ATOM     22  O1  UNL     1      20.943   5.285  31.407  0.00  0.00    -0.274 OA
ATOM     23  N5  UNL     1      22.080   3.694  32.700  0.00  0.00    -0.284 N 
ATOM     24  H22 UNL     1      22.820   3.570  33.427  0.00  0.00    +0.155 HD
BRANCH  23  25
ATOM     25  C21 UNL     1      21.694   2.542  31.932  0.00  0.00    +0.036 A 
ATOM     26  C22 UNL     1      20.681   1.671  32.374  0.00  0.00    +0.023 A 
ATOM     27  C23 UNL     1      20.342   0.544  31.618  0.00  0.00    +0.005 A 
ATOM     28  C24 UNL     1      21.019   0.269  30.427  0.00  0.00    +0.038 A 
ATOM     29  C25 UNL     1      22.041   1.116  29.993  0.00  0.00    +0.125 A 
ATOM     30  F1  UNL     1      22.705   0.844  28.842  0.00  0.00    -0.205 F 
ATOM     31  C26 UNL     1      22.384   2.244  30.746  0.00  0.00    +0.061 A 
ENDBRANCH  23  25
ENDBRANCH   6  21
BRANCH   1  33
ATOM     32  C1  UNL     1      25.539   5.570  32.990  0.00  0.00    +0.024 C 
ATOM     33  C2  UNL     1      24.316   6.495  33.001  0.00  0.00    +0.051 C 
ATOM     34  C3  UNL     1      24.724   7.956  33.265  0.00  0.00    +0.024 C 
ENDBRANCH   1  33
TORSDOF 4
ENDMDL
MODEL 2
REMARK VINA RESULT:    -7.911     10.283     14.386
REMARK INTER + INTRA:         -10.511
REMARK INTER:                  -9.744
REMARK INTRA:                  -0.767
REMARK UNBOUND:                -0.750
REMARK  Name = /home/qwerty/github/datacon2025hack/step_04_hit_selection/docking/ligands/lig_767.pdb
REMARK  6 active torsions:
REMARK  status: ('A' for Active; 'I' for Inactive)
REMARK    1  A    between atoms: C1_1  and  C2_2
REMARK    2  A    between atoms: C2_2  and  C3_3
REMARK    3  A    between atoms: C2_2  and  N1_4
REMARK    4  A    between atoms: N2_7  and  C6_8
REMARK    5  A    between atoms: C19_23  and  C20_24
REMARK    6  A    between atoms: N5_26  and  C21_27
REMARK                            x       y       z     vdW  Elec       q    Type
REMARK                         _______ _______ _______ _____ _____    ______ ____
ROOT
ATOM      1  N1  UNL     1      17.583  -0.844  24.066  0.00  0.00    -0.286 NA
ATOM      2  C4  UNL     1      17.337  -1.133  22.630  0.00  0.00    +0.104 C 
ATOM      3  C5  UNL     1      16.121  -0.382  22.065  0.00  0.00    +0.122 C 
ATOM      4  N2  UNL     1      16.210   1.058  22.343  0.00  0.00    -0.312 N 
ATOM      5  C18 UNL     1      17.166   1.530  23.352  0.00  0.00    +0.135 C 
ATOM      6  C19 UNL     1      17.227   0.527  24.516  0.00  0.00    +0.161 C 
ENDROOT
BRANCH   4   7
ATOM      7  C6  UNL     1      15.457   2.012  21.562  0.00  0.00    +0.122 A 
ATOM      8  C7  UNL     1      16.059   2.744  20.522  0.00  0.00    +0.044 A 
ATOM      9  C8  UNL     1      15.300   3.657  19.786  0.00  0.00    +0.013 A 
ATOM     10  C9  UNL     1      13.945   3.839  20.081  0.00  0.00    +0.003 A 
ATOM     11  C10 UNL     1      13.161   4.748  19.356  0.00  0.00    +0.011 A 
ATOM     12  C11 UNL     1      11.808   4.913  19.666  0.00  0.00    +0.011 A 
ATOM     13  C12 UNL     1      11.225   4.169  20.703  0.00  0.00    +0.003 A 
ATOM     14  C13 UNL     1       9.871   4.319  21.028  0.00  0.00    +0.011 A 
ATOM     15  C14 UNL     1       9.318   3.565  22.065  0.00  0.00    +0.020 A 
ATOM     16  C15 UNL     1      10.124   2.668  22.768  0.00  0.00    +0.111 A 
ATOM     17  N3  UNL     1      11.438   2.530  22.444  0.00  0.00    -0.253 NA
ATOM     18  C16 UNL     1      12.008   3.251  21.439  0.00  0.00    +0.097 A 
ATOM     19  C17 UNL     1      13.367   3.086  21.128  0.00  0.00    +0.099 A 
ATOM     20  N4  UNL     1      14.134   2.205  21.827  0.00  0.00    -0.230 NA
ENDBRANCH   4   7
BRANCH   6  21
ATOM     21  C20 UNL     1      18.235   1.004  25.530  0.00  0.00    +0.236 C 
ATOM     22  O1  UNL     1      17.836   1.645  26.538  0.00  0.00    -0.274 OA
ATOM     23  N5  UNL     1      19.630   0.702  25.359  0.00  0.00    -0.284 N 
ATOM     24  H22 UNL     1      19.890  -0.034  24.665  0.00  0.00    +0.155 HD
BRANCH  23  25
ATOM     25  C21 UNL     1      20.678   1.264  26.166  0.00  0.00    +0.036 A 
ATOM     26  C22 UNL     1      21.387   2.409  25.754  0.00  0.00    +0.023 A 
ATOM     27  C23 UNL     1      22.420   2.920  26.547  0.00  0.00    +0.005 A 
ATOM     28  C24 UNL     1      22.762   2.289  27.745  0.00  0.00    +0.038 A 
ATOM     29  C25 UNL     1      22.079   1.140  28.150  0.00  0.00    +0.125 A 
ATOM     30  F1  UNL     1      22.419   0.522  29.308  0.00  0.00    -0.205 F 
ATOM     31  C26 UNL     1      21.047   0.624  27.360  0.00  0.00    +0.061 A 
ENDBRANCH  23  25
ENDBRANCH   6  21
BRANCH   1  33
ATOM     32  C1  UNL     1      18.139  -3.085  24.980  0.00  0.00    +0.024 C 
ATOM     33  C2  UNL     1      17.163  -1.903  25.023  0.00  0.00    +0.051 C 
ATOM     34  C3  UNL     1      15.710  -2.372  24.825  0.00  0.00    +0.024 C 
ENDBRANCH   1  33
TORSDOF 4
ENDMDL
MODEL 3
REMARK VINA RESULT:    -7.742     14.078     17.758
REMARK INTER + INTRA:         -10.302
REMARK INTER:                  -9.388
REMARK INTRA:                  -0.914
REMARK UNBOUND:                -0.750
REMARK  Name = /home/qwerty/github/datacon2025hack/step_04_hit_selection/docking/ligands/lig_767.pdb
REMARK  6 active torsions:
REMARK  status: ('A' for Active; 'I' for Inactive)
REMARK    1  A    between atoms: C1_1  and  C2_2
REMARK    2  A    between atoms: C2_2  and  C3_3
REMARK    3  A    between atoms: C2_2  and  N1_4
REMARK    4  A    between atoms: N2_7  and  C6_8
REMARK    5  A    between atoms: C19_23  and  C20_24
REMARK    6  A    between atoms: N5_26  and  C21_27
REMARK                            x       y       z     vdW  Elec       q    Type
REMARK                         _______ _______ _______ _____ _____    ______ ____
ROOT
ATOM      1  N1  UNL     1      10.072   4.805  23.696  0.00  0.00    -0.286 NA
ATOM      2  C4  UNL     1      11.076   4.187  24.599  0.00  0.00    +0.104 C 
ATOM      3  C5  UNL     1      11.722   2.925  24.007  0.00  0.00    +0.122 C 
ATOM      4  N2  UNL     1      12.257   3.183  22.663  0.00  0.00    -0.312 N 
ATOM      5  C18 UNL     1      11.832   4.392  21.948  0.00  0.00    +0.135 C 
ATOM      6  C19 UNL     1      10.348   4.672  22.241  0.00  0.00    +0.161 C 
ENDROOT
BRANCH   4   7
ATOM      7  C6  UNL     1      13.273   2.328  22.092  0.00  0.00    +0.122 A 
ATOM      8  C7  UNL     1      13.666   2.456  20.747  0.00  0.00    +0.044 A 
ATOM      9  C8  UNL     1      14.652   1.613  20.229  0.00  0.00    +0.013 A 
ATOM     10  C9  UNL     1      15.247   0.647  21.048  0.00  0.00    +0.003 A 
ATOM     11  C10 UNL     1      16.241  -0.210  20.552  0.00  0.00    +0.011 A 
ATOM     12  C11 UNL     1      16.825  -1.166  21.387  0.00  0.00    +0.011 A 
ATOM     13  C12 UNL     1      16.422  -1.274  22.727  0.00  0.00    +0.003 A 
ATOM     14  C13 UNL     1      16.996  -2.226  23.581  0.00  0.00    +0.011 A 
ATOM     15  C14 UNL     1      16.575  -2.310  24.909  0.00  0.00    +0.020 A 
ATOM     16  C15 UNL     1      15.585  -1.442  25.373  0.00  0.00    +0.111 A 
ATOM     17  N3  UNL     1      15.034  -0.522  24.536  0.00  0.00    -0.253 NA
ATOM     18  C16 UNL     1      15.421  -0.414  23.234  0.00  0.00    +0.097 A 
ATOM     19  C17 UNL     1      14.835   0.546  22.395  0.00  0.00    +0.099 A 
ATOM     20  N4  UNL     1      13.871   1.381  22.869  0.00  0.00    -0.230 NA
ENDBRANCH   4   7
BRANCH   6  21
ATOM     21  C20 UNL     1       9.930   5.932  21.530  0.00  0.00    +0.236 C 
ATOM     22  O1  UNL     1       9.060   5.865  20.621  0.00  0.00    -0.274 OA
ATOM     23  N5  UNL     1      10.498   7.197  21.907  0.00  0.00    -0.284 N 
ATOM     24  H22 UNL     1      11.012   7.252  22.815  0.00  0.00    +0.155 HD
BRANCH  23  25
ATOM     25  C21 UNL     1      10.303   8.418  21.173  0.00  0.00    +0.036 A 
ATOM     26  C22 UNL     1      11.166   8.789  20.125  0.00  0.00    +0.023 A 
ATOM     27  C23 UNL     1      10.968   9.994  19.443  0.00  0.00    +0.005 A 
ATOM     28  C24 UNL     1       9.919  10.842  19.808  0.00  0.00    +0.038 A 
ATOM     29  C25 UNL     1       9.071  10.491  20.862  0.00  0.00    +0.125 A 
ATOM     30  F1  UNL     1       8.060  11.319  21.222  0.00  0.00    -0.205 F 
ATOM     31  C26 UNL     1       9.267   9.288  21.547  0.00  0.00    +0.061 A 
ENDBRANCH  23  25
ENDBRANCH   6  21
BRANCH   1  33
ATOM     32  C1  UNL     1       8.504   4.262  25.543  0.00  0.00    +0.024 C 
ATOM     33  C2  UNL     1       8.647   4.563  24.046  0.00  0.00    +0.051 C 
ATOM     34  C3  UNL     1       7.977   3.471  23.191  0.00  0.00    +0.024 C 
ENDBRANCH   1  33
TORSDOF 4
ENDMDL
MODEL 4
REMARK VINA RESULT:    -7.505     14.312     17.801
REMARK INTER + INTRA:         -10.010
REMARK INTER:                  -9.343
REMARK INTRA:                  -0.667
REMARK UNBOUND:                -0.750
REMARK  Name = /home/qwerty/github/datacon2025hack/step_04_hit_selection/docking/ligands/lig_767.pdb
REMARK  6 active torsions:
REMARK  status: ('A' for Active; 'I' for Inactive)
REMARK    1  A    between atoms: C1_1  and  C2_2
REMARK    2  A    between atoms: C2_2  and  C3_3
REMARK    3  A    between atoms: C2_2  and  N1_4
REMARK    4  A    between atoms: N2_7  and  C6_8
REMARK    5  A    between atoms: C19_23  and  C20_24
REMARK    6  A    between atoms: N5_26  and  C21_27
REMARK                            x       y       z     vdW  Elec       q    Type
REMARK                         _______ _______ _______ _____ _____    ______ ____
ROOT
ATOM      1  N1  UNL     1       8.596   8.842  22.656  0.00  0.00    -0.286 NA
ATOM      2  C4  UNL     1       7.927   7.840  21.787  0.00  0.00    +0.104 C 
ATOM      3  C5  UNL     1       8.829   6.646  21.439  0.00  0.00    +0.122 C 
ATOM      4  N2  UNL     1       9.405   6.045  22.651  0.00  0.00    -0.312 N 
ATOM      5  C18 UNL     1       9.361   6.800  23.908  0.00  0.00    +0.135 C 
ATOM      6  C19 UNL     1       9.583   8.295  23.623  0.00  0.00    +0.161 C 
ENDROOT
BRANCH   4   7
ATOM      7  C6  UNL     1       9.904   4.689  22.640  0.00  0.00    +0.122 A 
ATOM      8  C7  UNL     1       9.194   3.644  23.259  0.00  0.00    +0.044 A 
ATOM      9  C8  UNL     1       9.706   2.345  23.229  0.00  0.00    +0.013 A 
ATOM     10  C9  UNL     1      10.919   2.086  22.582  0.00  0.00    +0.003 A 
ATOM     11  C10 UNL     1      11.453   0.790  22.536  0.00  0.00    +0.011 A 
ATOM     12  C11 UNL     1      12.665   0.552  21.882  0.00  0.00    +0.011 A 
ATOM     13  C12 UNL     1      13.354   1.607  21.266  0.00  0.00    +0.003 A 
ATOM     14  C13 UNL     1      14.571   1.390  20.605  0.00  0.00    +0.011 A 
ATOM     15  C14 UNL     1      15.234   2.459  20.002  0.00  0.00    +0.020 A 
ATOM     16  C15 UNL     1      14.676   3.738  20.064  0.00  0.00    +0.111 A 
ATOM     17  N3  UNL     1      13.496   3.938  20.709  0.00  0.00    -0.253 NA
ATOM     18  C16 UNL     1      12.823   2.917  21.308  0.00  0.00    +0.097 A 
ATOM     19  C17 UNL     1      11.606   3.155  21.966  0.00  0.00    +0.099 A 
ATOM     20  N4  UNL     1      11.081   4.410  22.014  0.00  0.00    -0.230 NA
ENDBRANCH   4   7
BRANCH   6  21
ATOM     21  C20 UNL     1       9.504   9.065  24.916  0.00  0.00    +0.236 C 
ATOM     22  O1  UNL     1      10.566   9.326  25.542  0.00  0.00    -0.274 OA
ATOM     23  N5  UNL     1       8.233   9.519  25.410  0.00  0.00    -0.284 N 
ATOM     24  H22 UNL     1       7.421   9.510  24.753  0.00  0.00    +0.155 HD
BRANCH  23  25
ATOM     25  C21 UNL     1       8.036  10.095  26.712  0.00  0.00    +0.036 A 
ATOM     26  C22 UNL     1       8.464  11.402  27.009  0.00  0.00    +0.023 A 
ATOM     27  C23 UNL     1       8.282  11.929  28.292  0.00  0.00    +0.005 A 
ATOM     28  C24 UNL     1       7.685  11.154  29.290  0.00  0.00    +0.038 A 
ATOM     29  C25 UNL     1       7.278   9.847  29.010  0.00  0.00    +0.125 A 
ATOM     30  F1  UNL     1       6.708   9.092  29.981  0.00  0.00    -0.205 F 
ATOM     31  C26 UNL     1       7.460   9.316  27.729  0.00  0.00    +0.061 A 
ENDBRANCH  23  25
ENDBRANCH   6  21
BRANCH   1  33
ATOM     32  C1  UNL     1       7.892  11.046  21.757  0.00  0.00    +0.024 C 
ATOM     33  C2  UNL     1       9.062  10.081  21.979  0.00  0.00    +0.051 C 
ATOM     34  C3  UNL     1       9.825   9.818  20.667  0.00  0.00    +0.024 C 
ENDBRANCH   1  33
TORSDOF 4
ENDMDL
MODEL 5
REMARK VINA RESULT:    -7.420     12.031     15.441
REMARK INTER + INTRA:          -9.905
REMARK INTER:                  -9.288
REMARK INTRA:                  -0.618
REMARK UNBOUND:                -0.750
REMARK  Name = /home/qwerty/github/datacon2025hack/step_04_hit_selection/docking/ligands/lig_767.pdb
REMARK  6 active torsions:
REMARK  status: ('A' for Active; 'I' for Inactive)
REMARK    1  A    between atoms: C1_1  and  C2_2
REMARK    2  A    between atoms: C2_2  and  C3_3
REMARK    3  A    between atoms: C2_2  and  N1_4
REMARK    4  A    between atoms: N2_7  and  C6_8
REMARK    5  A    between atoms: C19_23  and  C20_24
REMARK    6  A    between atoms: N5_26  and  C21_27
REMARK                            x       y       z     vdW  Elec       q    Type
REMARK                         _______ _______ _______ _____ _____    ______ ____
ROOT
ATOM      1  N1  UNL     1      12.144  11.988  29.548  0.00  0.00    -0.286 NA
ATOM      2  C4  UNL     1      12.009  10.534  29.274  0.00  0.00    +0.104 C 
ATOM      3  C5  UNL     1      10.773  10.193  28.429  0.00  0.00    +0.122 C 
ATOM      4  N2  UNL     1      10.726  11.003  27.203  0.00  0.00    -0.312 N 
ATOM      5  C18 UNL     1      11.578  12.194  27.106  0.00  0.00    +0.135 C 
ATOM      6  C19 UNL     1      11.651  12.891  28.476  0.00  0.00    +0.161 C 
ENDROOT
BRANCH   4   7
ATOM      7  C6  UNL     1       9.947  10.579  26.064  0.00  0.00    +0.122 A 
ATOM      8  C7  UNL     1       8.592  10.223  26.195  0.00  0.00    +0.044 A 
ATOM      9  C8  UNL     1       7.868   9.819  25.071  0.00  0.00    +0.013 A 
ATOM     10  C9  UNL     1       8.489   9.773  23.819  0.00  0.00    +0.003 A 
ATOM     11  C10 UNL     1       7.784   9.372  22.675  0.00  0.00    +0.011 A 
ATOM     12  C11 UNL     1       8.422   9.336  21.432  0.00  0.00    +0.011 A 
ATOM     13  C12 UNL     1       9.772   9.701  21.321  0.00  0.00    +0.003 A 
ATOM     14  C13 UNL     1      10.431   9.671  20.084  0.00  0.00    +0.011 A 
ATOM     15  C14 UNL     1      11.775  10.040  20.004  0.00  0.00    +0.020 A 
ATOM     16  C15 UNL     1      12.450  10.435  21.161  0.00  0.00    +0.111 A 
ATOM     17  N3  UNL     1      11.801  10.459  22.356  0.00  0.00    -0.253 NA
ATOM     18  C16 UNL     1      10.491  10.105  22.469  0.00  0.00    +0.097 A 
ATOM     19  C17 UNL     1       9.849  10.141  23.717  0.00  0.00    +0.099 A 
ATOM     20  N4  UNL     1      10.527  10.529  24.832  0.00  0.00    -0.230 NA
ENDBRANCH   4   7
BRANCH   6  21
ATOM     21  C20 UNL     1      12.553  14.094  28.374  0.00  0.00    +0.236 C 
ATOM     22  O1  UNL     1      12.052  15.217  28.098  0.00  0.00    -0.274 OA
ATOM     23  N5  UNL     1      13.963  13.962  28.617  0.00  0.00    -0.284 N 
ATOM     24  H22 UNL     1      14.300  13.090  29.085  0.00  0.00    +0.155 HD
BRANCH  23  25
ATOM     25  C21 UNL     1      14.924  15.002  28.367  0.00  0.00    +0.036 A 
ATOM     26  C22 UNL     1      15.584  15.660  29.421  0.00  0.00    +0.023 A 
ATOM     27  C23 UNL     1      16.495  16.686  29.150  0.00  0.00    +0.005 A 
ATOM     28  C24 UNL     1      16.745  17.071  27.830  0.00  0.00    +0.038 A 
ATOM     29  C25 UNL     1      16.077  16.438  26.779  0.00  0.00    +0.125 A 
ATOM     30  F1  UNL     1      16.312  16.819  25.499  0.00  0.00    -0.205 F 
ATOM     31  C26 UNL     1      15.164  15.413  27.046  0.00  0.00    +0.061 A 
ENDBRANCH  23  25
ENDBRANCH   6  21
BRANCH   1  33
ATOM     32  C1  UNL     1      11.525  11.221  31.827  0.00  0.00    +0.024 C 
ATOM     33  C2  UNL     1      11.755  12.431  30.913  0.00  0.00    +0.051 C 
ATOM     34  C3  UNL     1      10.543  13.382  30.931  0.00  0.00    +0.024 C 
ENDBRANCH   1  33
TORSDOF 4
ENDMDL
MODEL 6
REMARK VINA RESULT:    -7.328     11.481     13.637
REMARK INTER + INTRA:          -9.792
REMARK INTER:                  -8.868
REMARK INTRA:                  -0.923
REMARK UNBOUND:                -0.750
REMARK  Name = /home/qwerty/github/datacon2025hack/step_04_hit_selection/docking/ligands/lig_767.pdb
REMARK  6 active torsions:
REMARK  status: ('A' for Active; 'I' for Inactive)
REMARK    1  A    between atoms: C1_1  and  C2_2
REMARK    2  A    between atoms: C2_2  and  C3_3
REMARK    3  A    between atoms: C2_2  and  N1_4
REMARK    4  A    between atoms: N2_7  and  C6_8
REMARK    5  A    between atoms: C19_23  and  C20_24
REMARK    6  A    between atoms: N5_26  and  C21_27
REMARK                            x       y       z     vdW  Elec       q    Type
REMARK                         _______ _______ _______ _____ _____    ______ ____
ROOT
ATOM      1  N1  UNL     1      19.722   8.025  20.491  0.00  0.00    -0.286 NA
ATOM      2  C4  UNL     1      19.714   8.936  19.318  0.00  0.00    +0.104 C 
ATOM      3  C5  UNL     1      20.071  10.385  19.679  0.00  0.00    +0.122 C 
ATOM      4  N2  UNL     1      21.331  10.450  20.435  0.00  0.00    -0.312 N 
ATOM      5  C18 UNL     1      21.868   9.220  21.028  0.00  0.00    +0.135 C 
ATOM      6  C19 UNL     1      20.712   8.350  21.550  0.00  0.00    +0.161 C 
ENDROOT
BRANCH   4   7
ATOM      7  C6  UNL     1      22.093  11.675  20.501  0.00  0.00    +0.122 A 
ATOM      8  C7  UNL     1      22.579  12.299  19.337  0.00  0.00    +0.044 A 
ATOM      9  C8  UNL     1      23.312  13.483  19.439  0.00  0.00    +0.013 A 
ATOM     10  C9  UNL     1      23.559  14.048  20.695  0.00  0.00    +0.003 A 
ATOM     11  C10 UNL     1      24.291  15.237  20.823  0.00  0.00    +0.011 A 
ATOM     12  C11 UNL     1      24.524  15.786  22.087  0.00  0.00    +0.011 A 
ATOM     13  C12 UNL     1      24.026  15.152  23.235  0.00  0.00    +0.003 A 
ATOM     14  C13 UNL     1      24.248  15.686  24.512  0.00  0.00    +0.011 A 
ATOM     15  C14 UNL     1      23.741  15.032  25.636  0.00  0.00    +0.020 A 
ATOM     16  C15 UNL     1      23.015  13.851  25.475  0.00  0.00    +0.111 A 
ATOM     17  N3  UNL     1      22.806  13.340  24.232  0.00  0.00    -0.253 NA
ATOM     18  C16 UNL     1      23.288  13.952  23.115  0.00  0.00    +0.097 A 
ATOM     19  C17 UNL     1      23.054  13.401  21.845  0.00  0.00    +0.099 A 
ATOM     20  N4  UNL     1      22.345  12.248  21.712  0.00  0.00    -0.230 NA
ENDBRANCH   4   7
BRANCH   6  21
ATOM     21  C20 UNL     1      21.271   7.075  22.127  0.00  0.00    +0.236 C 
ATOM     22  O1  UNL     1      21.904   6.286  21.376  0.00  0.00    -0.274 OA
ATOM     23  N5  UNL     1      21.108   6.782  23.525  0.00  0.00    -0.284 N 
ATOM     24  H22 UNL     1      20.811   7.559  24.157  0.00  0.00    +0.155 HD
BRANCH  23  25
ATOM     25  C21 UNL     1      21.441   5.519  24.126  0.00  0.00    +0.036 A 
ATOM     26  C22 UNL     1      22.583   5.370  24.935  0.00  0.00    +0.023 A 
ATOM     27  C23 UNL     1      22.898   4.124  25.487  0.00  0.00    +0.005 A 
ATOM     28  C24 UNL     1      22.086   3.017  25.227  0.00  0.00    +0.038 A 
ATOM     29  C25 UNL     1      20.964   3.151  24.406  0.00  0.00    +0.125 A 
ATOM     30  F1  UNL     1      20.183   2.074  24.144  0.00  0.00    -0.205 F 
ATOM     31  C26 UNL     1      20.647   4.395  23.850  0.00  0.00    +0.061 A 
ENDBRANCH  23  25
ENDBRANCH   6  21
BRANCH   1  33
ATOM     32  C1  UNL     1      17.385   7.437  19.890  0.00  0.00    +0.024 C 
ATOM     33  C2  UNL     1      18.387   7.650  21.031  0.00  0.00    +0.051 C 
ATOM     34  C3  UNL     1      17.842   8.645  22.073  0.00  0.00    +0.024 C 
ENDBRANCH   1  33
TORSDOF 4
ENDMDL
MODEL 7
REMARK VINA RESULT:    -7.227      7.027     12.336
REMARK INTER + INTRA:          -9.666
REMARK INTER:                  -9.103
REMARK INTRA:                  -0.564
REMARK UNBOUND:                -0.750
REMARK  Name = /home/qwerty/github/datacon2025hack/step_04_hit_selection/docking/ligands/lig_767.pdb
REMARK  6 active torsions:
REMARK  status: ('A' for Active; 'I' for Inactive)
REMARK    1  A    between atoms: C1_1  and  C2_2
REMARK    2  A    between atoms: C2_2  and  C3_3
REMARK    3  A    between atoms: C2_2  and  N1_4
REMARK    4  A    between atoms: N2_7  and  C6_8
REMARK    5  A    between atoms: C19_23  and  C20_24
REMARK    6  A    between atoms: N5_26  and  C21_27
REMARK                            x       y       z     vdW  Elec       q    Type
REMARK                         _______ _______ _______ _____ _____    ______ ____
ROOT
ATOM      1  N1  UNL     1      20.944   2.041  28.486  0.00  0.00    -0.286 NA
ATOM      2  C4  UNL     1      21.161   2.484  27.085  0.00  0.00    +0.104 C 
ATOM      3  C5  UNL     1      20.707   1.445  26.048  0.00  0.00    +0.122 C 
ATOM      4  N2  UNL     1      19.323   1.017  26.295  0.00  0.00    -0.312 N 
ATOM      5  C18 UNL     1      18.708   1.316  27.594  0.00  0.00    +0.135 C 
ATOM      6  C19 UNL     1      19.758   1.174  28.709  0.00  0.00    +0.161 C 
ENDROOT
BRANCH   4   7
ATOM      7  C6  UNL     1      18.534   0.414  25.246  0.00  0.00    +0.122 A 
ATOM      8  C7  UNL     1      18.211  -0.956  25.269  0.00  0.00    +0.044 A 
ATOM      9  C8  UNL     1      17.446  -1.505  24.237  0.00  0.00    +0.013 A 
ATOM     10  C9  UNL     1      17.000  -0.694  23.188  0.00  0.00    +0.003 A 
ATOM     11  C10 UNL     1      16.229  -1.221  22.142  0.00  0.00    +0.011 A 
ATOM     12  C11 UNL     1      15.792  -0.393  21.105  0.00  0.00    +0.011 A 
ATOM     13  C12 UNL     1      16.120   0.971  21.104  0.00  0.00    +0.003 A 
ATOM     14  C13 UNL     1      15.691   1.818  20.074  0.00  0.00    +0.011 A 
ATOM     15  C14 UNL     1      16.034   3.171  20.099  0.00  0.00    +0.020 A 
ATOM     16  C15 UNL     1      16.802   3.666  21.154  0.00  0.00    +0.111 A 
ATOM     17  N3  UNL     1      17.214   2.835  22.149  0.00  0.00    -0.253 NA
ATOM     18  C16 UNL     1      16.898   1.510  22.154  0.00  0.00    +0.097 A 
ATOM     19  C17 UNL     1      17.337   0.678  23.196  0.00  0.00    +0.099 A 
ATOM     20  N4  UNL     1      18.085   1.182  24.214  0.00  0.00    -0.230 NA
ENDBRANCH   4   7
BRANCH   6  21
ATOM     21  C20 UNL     1      19.125   1.515  30.033  0.00  0.00    +0.236 C 
ATOM     22  O1  UNL     1      18.418   2.554  30.128  0.00  0.00    -0.274 OA
ATOM     23  N5  UNL     1      19.305   0.647  31.165  0.00  0.00    -0.284 N 
ATOM     24  H22 UNL     1      19.673  -0.314  30.990  0.00  0.00    +0.155 HD
BRANCH  23  25
ATOM     25  C21 UNL     1      18.899   0.977  32.504  0.00  0.00    +0.036 A 
ATOM     26  C22 UNL     1      19.538   1.997  33.233  0.00  0.00    +0.023 A 
ATOM     27  C23 UNL     1      19.140   2.281  34.544  0.00  0.00    +0.005 A 
ATOM     28  C24 UNL     1      18.114   1.543  35.140  0.00  0.00    +0.038 A 
ATOM     29  C25 UNL     1      17.490   0.514  34.431  0.00  0.00    +0.125 A 
ATOM     30  F1  UNL     1      16.502  -0.209  35.014  0.00  0.00    -0.205 F 
ATOM     31  C26 UNL     1      17.886   0.226  33.121  0.00  0.00    +0.061 A 
ENDBRANCH  23  25
ENDBRANCH   6  21
BRANCH   1  33
ATOM     32  C1  UNL     1      22.200   0.045  29.264  0.00  0.00    +0.024 C 
ATOM     33  C2  UNL     1      22.154   1.578  29.215  0.00  0.00    +0.051 C 
ATOM     34  C3  UNL     1      22.297   2.185  30.624  0.00  0.00    +0.024 C 
ENDBRANCH   1  33
TORSDOF 4
ENDMDL
MODEL 8
REMARK VINA RESULT:    -7.106     12.338     14.824
REMARK INTER + INTRA:          -9.518
REMARK INTER:                  -8.760
REMARK INTRA:                  -0.758
REMARK UNBOUND:                -0.750
REMARK  Name = /home/qwerty/github/datacon2025hack/step_04_hit_selection/docking/ligands/lig_767.pdb
REMARK  6 active torsions:
REMARK  status: ('A' for Active; 'I' for Inactive)
REMARK    1  A    between atoms: C1_1  and  C2_2
REMARK    2  A    between atoms: C2_2  and  C3_3
REMARK    3  A    between atoms: C2_2  and  N1_4
REMARK    4  A    between atoms: N2_7  and  C6_8
REMARK    5  A    between atoms: C19_23  and  C20_24
REMARK    6  A    between atoms: N5_26  and  C21_27
REMARK                            x       y       z     vdW  Elec       q    Type
REMARK                         _______ _______ _______ _____ _____    ______ ____
ROOT
ATOM      1  N1  UNL     1      18.010   5.425  20.479  0.00  0.00    -0.286 NA
ATOM      2  C4  UNL     1      17.647   6.022  19.169  0.00  0.00    +0.104 C 
ATOM      3  C5  UNL     1      17.465   7.546  19.232  0.00  0.00    +0.122 C 
ATOM      4  N2  UNL     1      18.634   8.196  19.842  0.00  0.00    -0.312 N 
ATOM      5  C18 UNL     1      19.593   7.375  20.591  0.00  0.00    +0.135 C 
ATOM      6  C19 UNL     1      18.842   6.279  21.366  0.00  0.00    +0.161 C 
ENDROOT
BRANCH   4   7
ATOM      7  C6  UNL     1      18.906   9.597  19.617  0.00  0.00    +0.122 A 
ATOM      8  C7  UNL     1      17.877  10.556  19.654  0.00  0.00    +0.044 A 
ATOM      9  C8  UNL     1      18.176  11.903  19.433  0.00  0.00    +0.013 A 
ATOM     10  C9  UNL     1      19.495  12.294  19.180  0.00  0.00    +0.003 A 
ATOM     11  C10 UNL     1      19.821  13.640  18.958  0.00  0.00    +0.011 A 
ATOM     12  C11 UNL     1      21.146  14.010  18.710  0.00  0.00    +0.011 A 
ATOM     13  C12 UNL     1      22.157  13.039  18.683  0.00  0.00    +0.003 A 
ATOM     14  C13 UNL     1      23.492  13.390  18.437  0.00  0.00    +0.011 A 
ATOM     15  C14 UNL     1      24.477  12.401  18.416  0.00  0.00    +0.020 A 
ATOM     16  C15 UNL     1      24.121  11.071  18.643  0.00  0.00    +0.111 A 
ATOM     17  N3  UNL     1      22.823  10.741  18.880  0.00  0.00    -0.253 NA
ATOM     18  C16 UNL     1      21.837  11.680  18.906  0.00  0.00    +0.097 A 
ATOM     19  C17 UNL     1      20.507  11.309  19.155  0.00  0.00    +0.099 A 
ATOM     20  N4  UNL     1      20.183  10.005  19.373  0.00  0.00    -0.230 NA
ENDBRANCH   4   7
BRANCH   6  21
ATOM     21  C20 UNL     1      19.837   5.422  22.105  0.00  0.00    +0.236 C 
ATOM     22  O1  UNL     1      20.615   4.680  21.450  0.00  0.00    -0.274 OA
ATOM     23  N5  UNL     1      19.912   5.477  23.540  0.00  0.00    -0.284 N 
ATOM     24  H22 UNL     1      19.442   6.273  24.025  0.00  0.00    +0.155 HD
BRANCH  23  25
ATOM     25  C21 UNL     1      20.693   4.572  24.339  0.00  0.00    +0.036 A 
ATOM     26  C22 UNL     1      21.955   4.939  24.841  0.00  0.00    +0.023 A 
ATOM     27  C23 UNL     1      22.704   4.030  25.595  0.00  0.00    +0.005 A 
ATOM     28  C24 UNL     1      22.209   2.747  25.842  0.00  0.00    +0.038 A 
ATOM     29  C25 UNL     1      20.967   2.366  25.327  0.00  0.00    +0.125 A 
ATOM     30  F1  UNL     1      20.491   1.118  25.558  0.00  0.00    -0.205 F 
ATOM     31  C26 UNL     1      20.215   3.272  24.571  0.00  0.00    +0.061 A 
ENDBRANCH  23  25
ENDBRANCH   6  21
BRANCH   1  33
ATOM     32  C1  UNL     1      17.290   3.260  21.461  0.00  0.00    +0.024 C 
ATOM     33  C2  UNL     1      16.914   4.724  21.200  0.00  0.00    +0.051 C 
ATOM     34  C3  UNL     1      15.546   4.832  20.500  0.00  0.00    +0.024 C 
ENDBRANCH   1  33
TORSDOF 4
ENDMDL
MODEL 9
REMARK VINA RESULT:    -7.041      9.870     12.870
REMARK INTER + INTRA:          -9.437
REMARK INTER:                  -8.484
REMARK INTRA:                  -0.953
REMARK UNBOUND:                -0.750
REMARK  Name = /home/qwerty/github/datacon2025hack/step_04_hit_selection/docking/ligands/lig_767.pdb
REMARK  6 active torsions:
REMARK  status: ('A' for Active; 'I' for Inactive)
REMARK    1  A    between atoms: C1_1  and  C2_2
REMARK    2  A    between atoms: C2_2  and  C3_3
REMARK    3  A    between atoms: C2_2  and  N1_4
REMARK    4  A    between atoms: N2_7  and  C6_8
REMARK    5  A    between atoms: C19_23  and  C20_24
REMARK    6  A    between atoms: N5_26  and  C21_27
REMARK                            x       y       z     vdW  Elec       q    Type
REMARK                         _______ _______ _______ _____ _____    ______ ____
ROOT
ATOM      1  N1  UNL     1       8.855  12.767  28.386  0.00  0.00    -0.286 NA
ATOM      2  C4  UNL     1      10.051  13.580  28.048  0.00  0.00    +0.104 C 
ATOM      3  C5  UNL     1      10.859  14.005  29.283  0.00  0.00    +0.122 C 
ATOM      4  N2  UNL     1      11.185  12.849  30.130  0.00  0.00    -0.312 N 
ATOM      5  C18 UNL     1      10.460  11.590  29.922  0.00  0.00    +0.135 C 
ATOM      6  C19 UNL     1       8.991  11.889  29.577  0.00  0.00    +0.161 C 
ENDROOT
BRANCH   4   7
ATOM      7  C6  UNL     1      12.276  12.905  31.074  0.00  0.00    +0.122 A 
ATOM      8  C7  UNL     1      13.541  13.398  30.702  0.00  0.00    +0.044 A 
ATOM      9  C8  UNL     1      14.574  13.439  31.642  0.00  0.00    +0.013 A 
ATOM     10  C9  UNL     1      14.348  12.994  32.948  0.00  0.00    +0.003 A 
ATOM     11  C10 UNL     1      15.368  13.026  33.910  0.00  0.00    +0.011 A 
ATOM     12  C11 UNL     1      15.122  12.579  35.211  0.00  0.00    +0.011 A 
ATOM     13  C12 UNL     1      13.853  12.096  35.564  0.00  0.00    +0.003 A 
ATOM     14  C13 UNL     1      13.585  11.644  36.863  0.00  0.00    +0.011 A 
ATOM     15  C14 UNL     1      12.312  11.168  37.184  0.00  0.00    +0.020 A 
ATOM     16  C15 UNL     1      11.318  11.150  36.204  0.00  0.00    +0.111 A 
ATOM     17  N3  UNL     1      11.588  11.591  34.946  0.00  0.00    -0.253 NA
ATOM     18  C16 UNL     1      12.819  12.060  34.600  0.00  0.00    +0.097 A 
ATOM     19  C17 UNL     1      13.067  12.509  33.293  0.00  0.00    +0.099 A 
ATOM     20  N4  UNL     1      12.082  12.481  32.354  0.00  0.00    -0.230 NA
ENDBRANCH   4   7
BRANCH   6  21
ATOM     21  C20 UNL     1       8.264  10.592  29.334  0.00  0.00    +0.236 C 
ATOM     22  O1  UNL     1       7.119  10.425  29.834  0.00  0.00    -0.274 OA
ATOM     23  N5  UNL     1       8.860   9.571  28.517  0.00  0.00    -0.284 N 
ATOM     24  H22 UNL     1       9.676   9.835  27.921  0.00  0.00    +0.155 HD
BRANCH  23  25
ATOM     25  C21 UNL     1       8.332   8.241  28.379  0.00  0.00    +0.036 A 
ATOM     26  C22 UNL     1       7.514   7.885  27.290  0.00  0.00    +0.023 A 
ATOM     27  C23 UNL     1       6.994   6.591  27.193  0.00  0.00    +0.005 A 
ATOM     28  C24 UNL     1       7.273   5.647  28.185  0.00  0.00    +0.038 A 
ATOM     29  C25 UNL     1       8.065   5.998  29.281  0.00  0.00    +0.125 A 
ATOM     30  F1  UNL     1       8.326   5.085  30.248  0.00  0.00    -0.205 F 
ATOM     31  C26 UNL     1       8.586   7.292  29.382  0.00  0.00    +0.061 A 
ENDBRANCH  23  25
ENDBRANCH   6  21
BRANCH   1  33
ATOM     32  C1  UNL     1       7.504  14.423  27.121  0.00  0.00    +0.024 C 
ATOM     33  C2  UNL     1       7.549  13.477  28.328  0.00  0.00    +0.051 C 
ATOM     34  C3  UNL     1       7.191  14.218  29.630  0.00  0.00    +0.024 C 
ENDBRANCH   1  33
TORSDOF 4
ENDMDL
