REMARK  Name = /home/qwerty/github/datacon2025hack/step_04_hit_selection/docking/ligands/lig_666.pdb
REMARK  10 active torsions:
REMARK  status: ('A' for Active; 'I' for Inactive)
REMARK    1  A    between atoms: C1_1  and  C2_2
REMARK    2  A    between atoms: C2_2  and  C3_3
REMARK    3  A    between atoms: C2_2  and  N1_4
REMARK    4  A    between atoms: C6_8  and  N3_9
REMARK    5  A    between atoms: C7_10  and  C8_12
REMARK    6  A    between atoms: C8_12  and  C9_13
REMARK    7  A    between atoms: C8_12  and  N4_14
REMARK    8  A    between atoms: C13_18  and  N5_19
REMARK    9  A    between atoms: N5_19  and  C14_20
REMARK   10  A    between atoms: N5_19  and  C15_21
REMARK                            x       y       z     vdW  Elec       q    Type
REMARK                         _______ _______ _______ _____ _____    ______ ____
ROOT
ATOM      1  N3  UNL     1       2.527   0.583  -0.114  0.00  0.00    -0.269 N 
ATOM      2  C7  UNL     1       1.204   1.035  -0.441  0.00  0.00    +0.235 C 
ATOM      3  O1  UNL     1       0.818   1.072  -1.642  0.00  0.00    -0.274 OA
ATOM      4  H10 UNL     1       2.748   0.398   0.889  0.00  0.00    +0.156 HD
ENDROOT
BRANCH   1   9
ATOM      5  N1  UNL     1       4.622  -0.458  -0.903  0.00  0.00    -0.248 N 
ATOM      6  N2  UNL     1       5.428  -0.357  -1.950  0.00  0.00    -0.178 NA
ATOM      7  C4  UNL     1       4.866   0.500  -2.826  0.00  0.00    +0.136 A 
ATOM      8  C5  UNL     1       3.673   0.975  -2.317  0.00  0.00    +0.065 A 
ATOM      9  C6  UNL     1       3.552   0.345  -1.093  0.00  0.00    +0.123 A 
BRANCH   5  11
ATOM     10  C1  UNL     1       5.623  -2.568  -0.094  0.00  0.00    +0.032 C 
ATOM     11  C2  UNL     1       4.928  -1.257   0.291  0.00  0.00    +0.103 C 
ATOM     12  C3  UNL     1       5.795  -0.442   1.252  0.00  0.00    +0.032 C 
ENDBRANCH   5  11
ENDBRANCH   1   9
BRANCH   2  13
ATOM     13  C8  UNL     1       0.250   1.449   0.656  0.00  0.00    +0.140 C 
ATOM     14  C9  UNL     1       0.075   2.977   0.557  0.00  0.00    +0.034 C 
BRANCH  13  15
ATOM     15  N4  UNL     1      -1.033   0.698   0.523  0.00  0.00    -0.292 NA
ATOM     16  C10 UNL     1      -0.834  -0.755   0.757  0.00  0.00    +0.085 C 
ATOM     17  C11 UNL     1      -1.556  -1.545  -0.337  0.00  0.00    +0.017 C 
ATOM     18  C12 UNL     1      -3.074  -1.608  -0.130  0.00  0.00    +0.020 C 
ATOM     19  C13 UNL     1      -3.749  -0.220  -0.010  0.00  0.00    +0.057 C 
ATOM     20  C16 UNL     1      -3.427   0.438   1.364  0.00  0.00    +0.034 C 
ATOM     21  C17 UNL     1      -2.110   1.247   1.386  0.00  0.00    +0.086 C 
BRANCH  19  22
ATOM     22  N5  UNL     1      -5.209  -0.359  -0.269  0.00  0.00    -0.305 NA
ATOM     23  C14 UNL     1      -5.821   0.903  -0.716  0.00  0.00    +0.104 C 
ATOM     24  C15 UNL     1      -5.979  -0.948   0.843  0.00  0.00    +0.104 C 
ENDBRANCH  19  22
ENDBRANCH  13  15
ENDBRANCH   2  13
TORSDOF 5
