REMARK  Name = /home/qwerty/github/datacon2025hack/step_04_hit_selection/docking/ligands/lig_165.pdb
REMARK  6 active torsions:
REMARK  status: ('A' for Active; 'I' for Inactive)
REMARK    1  A    between atoms: C1_1  and  C2_2
REMARK    2  A    between atoms: C8_8  and  C9_9
REMARK    3  A    between atoms: C9_9  and  N1_10
REMARK    4  A    between atoms: C13_15  and  O1_16
REMARK    5  A    between atoms: O1_16  and  C14_17
REMARK    6  A    between atoms: N5_27  and  C22_28
REMARK                            x       y       z     vdW  Elec       q    Type
REMARK                         _______ _______ _______ _____ _____    ______ ____
ROOT
ATOM      1  N1  UNL     1       0.826   1.033   0.710  0.00  0.00    -0.295 NA
ATOM      2  C10 UNL     1       0.331   2.245   1.410  0.00  0.00    +0.100 C 
ATOM      3  C11 UNL     1      -0.826   2.910   0.661  0.00  0.00    +0.100 C 
ATOM      4  N2  UNL     1      -1.970   1.981   0.601  0.00  0.00    -0.293 NA
ATOM      5  C12 UNL     1      -3.008   2.427  -0.334  0.00  0.00    +0.129 C 
ATOM      6  C13 UNL     1      -3.710   1.176  -0.830  0.00  0.00    +0.189 C 
ATOM      7  C18 UNL     1      -2.609   0.129  -0.834  0.00  0.00    +0.066 C 
ATOM      8  C19 UNL     1      -1.612   0.595   0.232  0.00  0.00    +0.074 C 
ATOM      9  C20 UNL     1      -0.147   0.448  -0.247  0.00  0.00    +0.103 C 
ENDROOT
BRANCH   1  10
ATOM     10  C9  UNL     1       1.339   0.036   1.671  0.00  0.00    +0.121 C 
BRANCH  10  18
ATOM     11  C1  UNL     1       6.066   1.979  -0.724  0.00  0.00    +0.044 C 
ATOM     12  C2  UNL     1       5.332   0.686  -0.531  0.00  0.00    -0.050 A 
ATOM     13  C3  UNL     1       5.889  -0.524  -1.017  0.00  0.00    +0.005 A 
ATOM     14  C4  UNL     1       5.228  -1.749  -0.817  0.00  0.00    +0.026 A 
ATOM     15  C5  UNL     1       4.022  -1.736  -0.114  0.00  0.00    +0.049 A 
ATOM     16  C6  UNL     1       3.489  -0.569   0.370  0.00  0.00    +0.004 A 
ATOM     17  C7  UNL     1       4.118   0.662   0.187  0.00  0.00    +0.013 A 
ATOM     18  C8  UNL     1       2.303  -0.897   0.999  0.00  0.00    -0.008 A 
ATOM     19  C21 UNL     1       2.167  -2.275   0.864  0.00  0.00    +0.091 A 
ATOM     20  N5  UNL     1       3.226  -2.782   0.189  0.00  0.00    -0.349 N 
ATOM     21  C22 UNL     1       3.426  -4.179  -0.180  0.00  0.00    +0.149 C 
ENDBRANCH  10  18
ENDBRANCH   1  10
BRANCH   6  22
ATOM     22  O1  UNL     1      -4.748   0.821   0.088  0.00  0.00    -0.484 OA
BRANCH  22  23
ATOM     23  C14 UNL     1      -5.725  -0.162  -0.139  0.00  0.00    +0.157 A 
ATOM     24  C15 UNL     1      -6.676  -0.411   0.853  0.00  0.00    +0.159 A 
ATOM     25  N3  UNL     1      -7.634  -1.354   0.661  0.00  0.00    -0.240 NA
ATOM     26  C16 UNL     1      -7.686  -2.071  -0.490  0.00  0.00    +0.221 A 
ATOM     27  N4  UNL     1      -6.774  -1.848  -1.472  0.00  0.00    -0.240 NA
ATOM     28  C17 UNL     1      -5.800  -0.913  -1.323  0.00  0.00    +0.159 A 
ENDBRANCH  22  23
ENDBRANCH   6  22
TORSDOF 4
