REMARK  Name = /home/qwerty/github/datacon2025hack/step_04_hit_selection/docking/ligands/lig_78.pdb
REMARK  4 active torsions:
REMARK  status: ('A' for Active; 'I' for Inactive)
REMARK    1  A    between atoms: N1_3  and  C2_4
REMARK    2  A    between atoms: C2_4  and  C3_5
REMARK    3  A    between atoms: C5_7  and  C6_8
REMARK    4  A    between atoms: C15_18  and  C16_19
REMARK                            x       y       z     vdW  Elec       q    Type
REMARK                         _______ _______ _______ _____ _____    ______ ____
ROOT
ATOM      1  O1  UNL     1      -1.027  -0.962  -1.820  0.00  0.00    -0.253 OA
ATOM      2  C1  UNL     1      -1.322  -0.789  -0.606  0.00  0.00    +0.302 C 
ATOM      3  N1  UNL     1      -0.501  -1.371   0.417  0.00  0.00    -0.299 N 
ATOM      4  N2  UNL     1      -2.504  -0.043  -0.260  0.00  0.00    -0.285 N 
ATOM      5  C12 UNL     1      -2.505   0.854   0.902  0.00  0.00    +0.109 C 
ATOM      6  C13 UNL     1      -3.801   0.716   1.721  0.00  0.00    +0.019 C 
ATOM      7  C14 UNL     1      -4.972   0.111   0.925  0.00  0.00    +0.009 C 
ATOM      8  C15 UNL     1      -4.940   0.486  -0.569  0.00  0.00    +0.037 C 
ATOM      9  C17 UNL     1      -3.619   0.007  -1.220  0.00  0.00    +0.115 C 
ATOM     10  H1  UNL     1      -0.882  -1.465   1.385  0.00  0.00    +0.150 HD
ENDROOT
BRANCH   8  11
ATOM     11  C16 UNL     1      -5.195   1.986  -0.803  0.00  0.00    +0.218 C 
ATOM     12  F1  UNL     1      -6.427   2.348  -0.288  0.00  0.00    -0.249 F 
ENDBRANCH   8  11
BRANCH   3  13
ATOM     13  C2  UNL     1       0.817  -1.934   0.139  0.00  0.00    +0.110 C 
BRANCH  13  14
ATOM     14  C3  UNL     1       1.822  -0.808  -0.129  0.00  0.00    +0.014 C 
ATOM     15  C4  UNL     1       2.179  -0.563  -1.595  0.00  0.00    +0.014 C 
ATOM     16  C5  UNL     1       3.163  -1.286  -0.681  0.00  0.00    +0.024 C 
BRANCH  16  17
ATOM     17  C6  UNL     1       4.404  -0.514  -0.264  0.00  0.00    -0.044 A 
ATOM     18  C7  UNL     1       4.415   0.875  -0.006  0.00  0.00    +0.004 A 
ATOM     19  C8  UNL     1       5.598   1.515   0.377  0.00  0.00    +0.000 A 
ATOM     20  C9  UNL     1       6.780   0.786   0.507  0.00  0.00    +0.000 A 
ATOM     21  C10 UNL     1       6.784  -0.587   0.255  0.00  0.00    +0.000 A 
ATOM     22  C11 UNL     1       5.605  -1.233  -0.127  0.00  0.00    +0.004 A 
ENDBRANCH  16  17
ENDBRANCH  13  14
ENDBRANCH   3  13
TORSDOF 4
