REMARK  Name = /home/qwerty/github/datacon2025hack/step_04_hit_selection/docking/ligands/lig_768.pdb
REMARK  3 active torsions:
REMARK  status: ('A' for Active; 'I' for Inactive)
REMARK    1  A    between atoms: C1_1  and  C2_2
REMARK    2  A    between atoms: C8_10  and  N3_11
REMARK    3  A    between atoms: C13_18  and  C14_19
REMARK                            x       y       z     vdW  Elec       q    Type
REMARK                         _______ _______ _______ _____ _____    ______ ____
ROOT
ATOM      1  N3  UNL     1      -0.595  -0.975  -0.185  0.00  0.00    -0.296 N 
ATOM      2  C9  UNL     1       0.556  -0.548  -0.934  0.00  0.00    +0.303 C 
ATOM      3  O1  UNL     1       0.624   0.636  -1.364  0.00  0.00    -0.253 OA
ATOM      4  N4  UNL     1       1.643  -1.457  -1.189  0.00  0.00    -0.276 N 
ATOM      5  C10 UNL     1       1.537  -2.899  -1.040  0.00  0.00    +0.110 C 
ATOM      6  C11 UNL     1       2.758  -3.477  -1.742  0.00  0.00    +0.021 C 
ATOM      7  C12 UNL     1       3.749  -2.324  -1.879  0.00  0.00    +0.032 C 
ATOM      8  C13 UNL     1       2.913  -1.047  -1.772  0.00  0.00    +0.143 C 
ATOM      9  H10 UNL     1      -0.629  -1.952   0.183  0.00  0.00    +0.151 HD
ENDROOT
BRANCH   1  19
ATOM     10  C1  UNL     1      -8.088   1.572   0.300  0.00  0.00    +0.088 C 
ATOM     11  C2  UNL     1      -6.734   1.034  -0.023  0.00  0.00    +0.126 A 
ATOM     12  N1  UNL     1      -6.516   0.412  -1.211  0.00  0.00    -0.240 NA
ATOM     13  C3  UNL     1      -5.299  -0.107  -1.516  0.00  0.00    +0.118 A 
ATOM     14  C4  UNL     1      -4.244  -0.010  -0.602  0.00  0.00    -0.006 A 
ATOM     15  C5  UNL     1      -4.501   0.599   0.643  0.00  0.00    +0.048 A 
ATOM     16  N2  UNL     1      -5.734   1.115   0.893  0.00  0.00    -0.237 NA
ATOM     17  C6  UNL     1      -3.416   0.786   1.672  0.00  0.00    +0.057 C 
ATOM     18  C7  UNL     1      -2.232  -0.163   1.456  0.00  0.00    +0.029 C 
ATOM     19  C8  UNL     1      -1.786  -0.139  -0.012  0.00  0.00    +0.079 C 
ATOM     20  C21 UNL     1      -2.916  -0.656  -0.916  0.00  0.00    +0.060 C 
ENDBRANCH   1  19
BRANCH   8  21
ATOM     21  C14 UNL     1       3.595  -0.016  -0.914  0.00  0.00    +0.129 A 
ATOM     22  N5  UNL     1       4.210   1.082  -1.429  0.00  0.00    -0.231 NA
ATOM     23  C15 UNL     1       4.691   1.693  -0.332  0.00  0.00    +0.091 A 
ATOM     24  C16 UNL     1       5.416   2.880  -0.267  0.00  0.00    +0.050 A 
ATOM     25  C17 UNL     1       5.822   3.331   1.006  0.00  0.00    +0.043 A 
ATOM     26 CL1  UNL     1       6.739   4.818   1.152  0.00  0.00    -0.083 Cl
ATOM     27  C18 UNL     1       5.494   2.587   2.166  0.00  0.00    +0.022 A 
ATOM     28  C19 UNL     1       4.760   1.390   2.061  0.00  0.00    +0.029 A 
ATOM     29  C20 UNL     1       4.378   0.980   0.787  0.00  0.00    +0.066 A 
ATOM     30  N6  UNL     1       3.686  -0.110   0.437  0.00  0.00    -0.340 N 
ATOM     31  H21 UNL     1       3.308  -0.859   1.059  0.00  0.00    +0.167 HD
ENDBRANCH   8  21
TORSDOF 2
