REMARK  Name = /home/qwerty/github/datacon2025hack/step_04_hit_selection/docking/ligands/lig_94.pdb
REMARK  3 active torsions:
REMARK  status: ('A' for Active; 'I' for Inactive)
REMARK    1  A    between atoms: N1_3  and  C2_4
REMARK    2  A    between atoms: C2_4  and  C3_5
REMARK    3  A    between atoms: C11_16  and  C12_17
REMARK                            x       y       z     vdW  Elec       q    Type
REMARK                         _______ _______ _______ _____ _____    ______ ____
ROOT
ATOM      1  O1  UNL     1      -2.937   0.040  -1.983  0.00  0.00    -0.253 OA
ATOM      2  C1  UNL     1      -2.249   0.684  -1.144  0.00  0.00    +0.302 C 
ATOM      3  N1  UNL     1      -2.871   1.706  -0.348  0.00  0.00    -0.295 N 
ATOM      4  N2  UNL     1      -0.853   0.366  -0.981  0.00  0.00    -0.286 N 
ATOM      5  C9  UNL     1      -0.389  -0.989  -1.313  0.00  0.00    +0.110 C 
ATOM      6  C10 UNL     1       0.976  -1.278  -0.683  0.00  0.00    +0.027 C 
ATOM      7  C11 UNL     1       2.020  -0.223  -1.105  0.00  0.00    +0.022 C 
ATOM      8  C20 UNL     1       1.459   1.227  -1.117  0.00  0.00    +0.027 C 
ATOM      9  C21 UNL     1       0.088   1.358  -0.439  0.00  0.00    +0.110 C 
ATOM     10  H1  UNL     1      -2.335   2.161   0.424  0.00  0.00    +0.151 HD
ENDROOT
BRANCH   7  11
ATOM     11  C12 UNL     1       3.266  -0.341  -0.247  0.00  0.00    -0.043 A 
ATOM     12  C13 UNL     1       3.236   0.016   1.130  0.00  0.00    +0.006 A 
ATOM     13  C14 UNL     1       4.386  -0.105   1.931  0.00  0.00    +0.026 A 
ATOM     14  C15 UNL     1       5.547  -0.588   1.335  0.00  0.00    +0.046 A 
ATOM     15  N3  UNL     1       6.743  -0.781   1.915  0.00  0.00    -0.361 N 
ATOM     16  C16 UNL     1       7.551  -1.263   0.942  0.00  0.00    +0.083 A 
ATOM     17  C17 UNL     1       6.862  -1.376  -0.261  0.00  0.00    +0.027 A 
ATOM     18  C18 UNL     1       5.585  -0.939   0.013  0.00  0.00    -0.000 A 
ATOM     19  C19 UNL     1       4.467  -0.833  -0.810  0.00  0.00    +0.014 A 
ATOM     20  H14 UNL     1       7.000  -0.599   2.910  0.00  0.00    +0.165 HD
ENDBRANCH   7  11
BRANCH   3  21
ATOM     21  C2  UNL     1      -4.272   2.084  -0.518  0.00  0.00    +0.141 C 
BRANCH  21  22
ATOM     22  C3  UNL     1      -5.171   1.031   0.071  0.00  0.00    -0.029 A 
ATOM     23  C4  UNL     1      -5.237   0.865   1.464  0.00  0.00    +0.008 A 
ATOM     24  C5  UNL     1      -6.053  -0.126   2.017  0.00  0.00    +0.040 A 
ATOM     25  C6  UNL     1      -6.805  -0.961   1.186  0.00  0.00    +0.142 A 
ATOM     26  F1  UNL     1      -7.593  -1.921   1.733  0.00  0.00    -0.204 F 
ATOM     27  C7  UNL     1      -6.741  -0.806  -0.205  0.00  0.00    +0.076 A 
ATOM     28 CL1  UNL     1      -7.677  -1.853  -1.258  0.00  0.00    -0.081 Cl
ATOM     29  C8  UNL     1      -5.925   0.186  -0.760  0.00  0.00    +0.028 A 
ENDBRANCH  21  22
ENDBRANCH   3  21
TORSDOF 3
