REMARK  Name = /home/qwerty/github/datacon2025hack/step_04_hit_selection/docking/ligands/lig_54.pdb
REMARK  7 active torsions:
REMARK  status: ('A' for Active; 'I' for Inactive)
REMARK    1  A    between atoms: C1_1  and  C2_2
REMARK    2  A    between atoms: C2_2  and  C3_3
REMARK    3  A    between atoms: C2_2  and  C4_4
REMARK    4  A    between atoms: C9_12  and  C10_13
REMARK    5  A    between atoms: N4_16  and  C13_17
REMARK    6  A    between atoms: C13_17  and  C14_18
REMARK    7  A    between atoms: C14_18  and  N5_19
REMARK                            x       y       z     vdW  Elec       q    Type
REMARK                         _______ _______ _______ _____ _____    ______ ____
ROOT
ATOM      1  C4  UNL     1       0.062   2.098   1.014  0.00  0.00    +0.137 A 
ATOM      2  N1  UNL     1       0.876   1.920   2.075  0.00  0.00    -0.132 NA
ATOM      3  N2  UNL     1       1.378   0.699   1.992  0.00  0.00    -0.113 NA
ATOM      4  C5  UNL     1       0.872   0.146   0.878  0.00  0.00    +0.220 A 
ATOM      5  N3  UNL     1       1.446  -1.039   0.298  0.00  0.00    -0.300 N 
ATOM      6  C6  UNL     1       1.497  -2.251   1.145  0.00  0.00    +0.108 C 
ATOM      7  C7  UNL     1       2.498  -3.318   0.660  0.00  0.00    +0.019 C 
ATOM      8  C8  UNL     1       3.991  -2.904   0.698  0.00  0.00    +0.005 C 
ATOM      9  C9  UNL     1       4.280  -1.386   0.766  0.00  0.00    -0.013 C 
ATOM     10  C10 UNL     1       5.787  -1.152   0.949  0.00  0.00    +0.007 C 
ATOM     11  C11 UNL     1       3.781  -0.610  -0.474  0.00  0.00    +0.022 C 
ATOM     12  C12 UNL     1       2.323  -0.879  -0.875  0.00  0.00    +0.108 C 
ATOM     13  N4  UNL     1      -0.009   0.975   0.255  0.00  0.00    -0.297 N 
ENDROOT
BRANCH   1  15
ATOM     14  C1  UNL     1      -1.007   4.249   1.732  0.00  0.00    +0.015 C 
ATOM     15  C2  UNL     1      -0.369   3.478   0.574  0.00  0.00    +0.051 C 
ATOM     16  C3  UNL     1       0.832   4.243   0.011  0.00  0.00    +0.015 C 
ENDBRANCH   1  15
BRANCH  13  17
ATOM     17  C13 UNL     1      -0.693   0.779  -1.039  0.00  0.00    +0.148 C 
BRANCH  17  18
ATOM     18  C14 UNL     1      -2.222   0.398  -0.973  0.00  0.00    +0.040 C 
ATOM     19  C19 UNL     1      -3.116   1.458  -0.285  0.00  0.00    +0.024 C 
ATOM     20  C20 UNL     1      -3.603   2.445  -1.342  0.00  0.00    +0.002 C 
ATOM     21  C21 UNL     1      -3.233   1.855  -2.689  0.00  0.00    +0.002 C 
ATOM     22  C22 UNL     1      -2.778   0.432  -2.415  0.00  0.00    +0.024 C 
BRANCH  18  23
ATOM     23  N5  UNL     1      -2.475  -0.951  -0.379  0.00  0.00    -0.293 NA
ATOM     24  C15 UNL     1      -2.305  -1.059   1.086  0.00  0.00    +0.095 C 
ATOM     25  C16 UNL     1      -3.156  -2.211   1.615  0.00  0.00    +0.084 C 
ATOM     26  S1  UNL     1      -2.546  -3.822   0.989  0.00  0.00    -0.158 S 
ATOM     27  C17 UNL     1      -2.617  -3.370  -0.783  0.00  0.00    +0.084 C 
ATOM     28  C18 UNL     1      -1.831  -2.090  -1.069  0.00  0.00    +0.095 C 
ENDBRANCH  18  23
ENDBRANCH  17  18
ENDBRANCH  13  17
TORSDOF 4
