REMARK  Name = /home/qwerty/github/datacon2025hack/step_04_hit_selection/docking/ligands/lig_121.pdb
REMARK  7 active torsions:
REMARK  status: ('A' for Active; 'I' for Inactive)
REMARK    1  A    between atoms: C1_1  and  C2_2
REMARK    2  A    between atoms: C7_7  and  C8_8
REMARK    3  A    between atoms: C8_8  and  C9_9
REMARK    4  A    between atoms: C8_8  and  C10_10
REMARK    5  A    between atoms: C13_16  and  C14_18
REMARK    6  A    between atoms: C14_18  and  C15_19
REMARK    7  A    between atoms: C14_18  and  C16_20
REMARK                            x       y       z     vdW  Elec       q    Type
REMARK                         _______ _______ _______ _____ _____    ______ ____
ROOT
ATOM      1  C10 UNL     1       1.416  -0.816   0.668  0.00  0.00    +0.223 C 
ATOM      2  O1  UNL     1       1.790  -1.138   1.830  0.00  0.00    -0.275 OA
ATOM      3  N1  UNL     1       0.005  -0.708   0.394  0.00  0.00    -0.298 N 
ATOM      4  C11 UNL     1      -0.502   0.238  -0.608  0.00  0.00    +0.127 C 
ATOM      5  C12 UNL     1      -1.884   0.765  -0.211  0.00  0.00    +0.126 C 
ATOM      6  N2  UNL     1      -2.754  -0.336   0.220  0.00  0.00    -0.298 N 
ATOM      7  C13 UNL     1      -4.155  -0.374  -0.124  0.00  0.00    +0.218 C 
ATOM      8  O2  UNL     1      -4.739  -1.489  -0.210  0.00  0.00    -0.275 OA
ATOM      9  C17 UNL     1      -2.237  -1.249   1.245  0.00  0.00    +0.126 C 
ATOM     10  C18 UNL     1      -0.878  -1.800   0.819  0.00  0.00    +0.127 C 
ENDROOT
BRANCH   7  11
ATOM     11  C14 UNL     1      -4.945   0.888  -0.391  0.00  0.00    +0.069 C 
ATOM     12  C15 UNL     1      -6.234   0.905   0.438  0.00  0.00    +0.017 C 
ATOM     13  C16 UNL     1      -5.261   1.012  -1.885  0.00  0.00    +0.017 C 
ENDBRANCH   7  11
BRANCH   1  14
ATOM     14  C8  UNL     1       2.445  -0.685  -0.436  0.00  0.00    +0.102 C 
ATOM     15  C9  UNL     1       2.519  -1.993  -1.237  0.00  0.00    +0.022 C 
BRANCH  14  22
ATOM     16  C1  UNL     1       3.288   2.217  -0.368  0.00  0.00    +0.044 C 
ATOM     17  C2  UNL     1       4.188   1.124   0.149  0.00  0.00    -0.047 A 
ATOM     18  C3  UNL     1       5.443   1.481   0.674  0.00  0.00    +0.003 A 
ATOM     19  C4  UNL     1       6.298   0.512   1.196  0.00  0.00    +0.000 A 
ATOM     20  C5  UNL     1       5.911  -0.825   1.210  0.00  0.00    +0.000 A 
ATOM     21  C6  UNL     1       4.675  -1.203   0.686  0.00  0.00    +0.004 A 
ATOM     22  C7  UNL     1       3.804  -0.247   0.117  0.00  0.00    -0.033 A 
ENDBRANCH  14  22
ENDBRANCH   1  14
TORSDOF 3
