REMARK  Name = /home/qwerty/github/datacon2025hack/step_04_hit_selection/docking/ligands/lig_535.pdb
REMARK  8 active torsions:
REMARK  status: ('A' for Active; 'I' for Inactive)
REMARK    1  A    between atoms: C1_1  and  C2_2
REMARK    2  A    between atoms: C2_2  and  C3_3
REMARK    3  A    between atoms: C5_6  and  C6_8
REMARK    4  A    between atoms: C9_12  and  C10_13
REMARK    5  A    between atoms: N3_25  and  C21_26
REMARK    6  A    between atoms: C21_26  and  C22_27
REMARK    7  A    between atoms: C22_27  and  C23_28
REMARK    8  A    between atoms: C22_27  and  O3_29
REMARK                            x       y       z     vdW  Elec       q    Type
REMARK                         _______ _______ _______ _____ _____    ______ ____
ROOT
ATOM      1  C3  UNL     1       2.914  -0.555  -1.005  0.00  0.00    +0.074 C 
ATOM      2  C4  UNL     1       1.705   0.295  -0.591  0.00  0.00    +0.127 C 
ATOM      3  N1  UNL     1       1.452   0.107   0.841  0.00  0.00    -0.295 N 
ATOM      4  C5  UNL     1       0.106   0.195   1.335  0.00  0.00    +0.248 C 
ATOM      5  O1  UNL     1      -0.184   1.076   2.187  0.00  0.00    -0.270 OA
ATOM      6  C19 UNL     1       2.572   0.227   1.776  0.00  0.00    +0.123 C 
ATOM      7  C20 UNL     1       3.807  -0.540   1.256  0.00  0.00    +0.104 C 
ATOM      8  N3  UNL     1       4.102  -0.243  -0.165  0.00  0.00    -0.294 NA
ENDROOT
BRANCH   4   9
ATOM      9  C6  UNL     1      -0.936  -0.743   0.861  0.00  0.00    +0.056 A 
ATOM     10  C7  UNL     1      -0.586  -2.010   0.368  0.00  0.00    +0.123 A 
ATOM     11  N2  UNL     1      -1.547  -2.871  -0.051  0.00  0.00    -0.262 NA
ATOM     12  C8  UNL     1      -2.865  -2.548  -0.016  0.00  0.00    +0.119 A 
ATOM     13  C9  UNL     1      -3.277  -1.294   0.467  0.00  0.00    +0.001 A 
ATOM     14  C18 UNL     1      -2.294  -0.395   0.914  0.00  0.00    +0.024 A 
BRANCH  13  15
ATOM     15  C10 UNL     1      -4.716  -0.924   0.490  0.00  0.00    -0.016 A 
ATOM     16  C11 UNL     1      -5.697  -1.878   0.864  0.00  0.00    +0.012 A 
ATOM     17  C12 UNL     1      -7.062  -1.540   0.860  0.00  0.00    +0.046 A 
ATOM     18  C13 UNL     1      -7.423  -0.250   0.483  0.00  0.00    +0.124 A 
ATOM     19  C14 UNL     1      -6.490   0.681   0.131  0.00  0.00    -0.002 A 
ATOM     20  C15 UNL     1      -5.128   0.379   0.123  0.00  0.00    +0.016 A 
ATOM     21  C16 UNL     1      -7.160   1.967  -0.204  0.00  0.00    +0.080 C 
ATOM     22  C17 UNL     1      -8.660   1.624  -0.020  0.00  0.00    +0.234 C 
ATOM     23  O2  UNL     1      -8.700   0.263   0.410  0.00  0.00    -0.491 OA
ENDBRANCH  13  15
ENDBRANCH   4   9
BRANCH   1  25
ATOM     24  C1  UNL     1       4.099  -1.636  -2.980  0.00  0.00    +0.005 C 
ATOM     25  C2  UNL     1       3.197  -0.490  -2.524  0.00  0.00    +0.017 C 
ENDBRANCH   1  25
BRANCH   8  26
ATOM     26  C21 UNL     1       4.677   1.120  -0.333  0.00  0.00    +0.115 C 
BRANCH  26  27
ATOM     27  C22 UNL     1       6.185   1.021  -0.635  0.00  0.00    +0.125 C 
ATOM     28  C23 UNL     1       6.859   2.398  -0.557  0.00  0.00    +0.039 C 
BRANCH  27  29
ATOM     29  O3  UNL     1       6.410   0.434  -1.893  0.00  0.00    -0.391 OA
ATOM     30  H29 UNL     1       6.047   1.052  -2.583  0.00  0.00    +0.210 HD
ENDBRANCH  27  29
ENDBRANCH  26  27
ENDBRANCH   8  26
TORSDOF 6
