MODEL 1
REMARK VINA RESULT:    -6.065      0.000      0.000
REMARK INTER + INTRA:          -9.750
REMARK INTER:                  -8.547
REMARK INTRA:                  -1.203
REMARK UNBOUND:                -1.203
REMARK  Name = /home/qwerty/github/datacon2025hack/step_04_hit_selection/docking/ligands/lig_148.pdb
REMARK  11 active torsions:
REMARK  status: ('A' for Active; 'I' for Inactive)
REMARK    1  A    between atoms: C1_1  and  C2_2
REMARK    2  A    between atoms: C2_2  and  C3_3
REMARK    3  A    between atoms: C2_2  and  N4_19
REMARK    4  A    between atoms: C3_3  and  C4_4
REMARK    5  A    between atoms: N1_6  and  C5_7
REMARK    6  A    between atoms: C9_12  and  C10_13
REMARK    7  A    between atoms: C13_20  and  O3_22
REMARK    8  A    between atoms: O3_22  and  C14_23
REMARK    9  A    between atoms: C14_23  and  C15_24
REMARK   10  A    between atoms: C14_23  and  C16_25
REMARK   11  A    between atoms: C14_23  and  C17_26
REMARK                            x       y       z     vdW  Elec       q    Type
REMARK                         _______ _______ _______ _____ _____    ______ ____
ROOT
ATOM      1  C4  UNL     1      14.428   1.323  20.947  0.00  0.00    +0.219 C 
ATOM      2  O1  UNL     1      14.977   1.795  21.979  0.00  0.00    -0.275 OA
ATOM      3  N1  UNL     1      13.006   1.411  20.768  0.00  0.00    -0.285 N 
ATOM      4  H7  UNL     1      12.625   1.264  19.806  0.00  0.00    +0.155 HD
ENDROOT
BRANCH   3   5
ATOM      5  C5  UNL     1      12.086   1.810  21.799  0.00  0.00    +0.035 A 
ATOM      6  C6  UNL     1      11.830   3.191  22.001  0.00  0.00    +0.025 A 
ATOM      7  C7  UNL     1      10.920   3.621  22.985  0.00  0.00    +0.032 A 
ATOM      8  C8  UNL     1      10.274   2.646  23.737  0.00  0.00    +0.089 A 
ATOM      9  N2  UNL     1       9.364   2.828  24.712  0.00  0.00    -0.227 NA
ATOM     10  C9  UNL     1       9.063   1.554  25.079  0.00  0.00    +0.175 A 
ATOM     11  N3  UNL     1       9.738   0.609  24.379  0.00  0.00    -0.337 N 
ATOM     12  C11 UNL     1      10.499   1.318  23.537  0.00  0.00    +0.068 A 
ATOM     13  C12 UNL     1      11.391   0.851  22.575  0.00  0.00    +0.051 A 
ATOM     14  H11 UNL     1       9.677  -0.430  24.473  0.00  0.00    +0.167 HD
BRANCH  10  15
ATOM     15  C10 UNL     1       8.074   1.227  26.151  0.00  0.00    +0.406 C 
ATOM     16  F1  UNL     1       7.709  -0.102  26.054  0.00  0.00    -0.201 F 
ATOM     17  F2  UNL     1       6.954   2.023  26.005  0.00  0.00    -0.201 F 
ENDBRANCH  10  15
ENDBRANCH   3   5
BRANCH   1  18
ATOM     18  C3  UNL     1      15.288   0.737  19.865  0.00  0.00    +0.118 C 
BRANCH  18  20
ATOM     19  C1  UNL     1      16.889  -1.164  19.327  0.00  0.00    +0.028 C 
ATOM     20  C2  UNL     1      16.323  -0.257  20.427  0.00  0.00    +0.082 C 
BRANCH  20  21
ATOM     21  N4  UNL     1      15.702  -1.074  21.475  0.00  0.00    -0.278 N 
ATOM     22  C13 UNL     1      16.341  -1.336  22.730  0.00  0.00    +0.401 C 
ATOM     23  O2  UNL     1      17.496  -0.882  22.957  0.00  0.00    -0.226 OA
ATOM     24  H13 UNL     1      14.761  -1.500  21.311  0.00  0.00    +0.152 HD
BRANCH  22  25
ATOM     25  O3  UNL     1      15.665  -2.103  23.689  0.00  0.00    -0.445 OA
BRANCH  25  26
ATOM     26  C14 UNL     1      15.054  -1.614  24.893  0.00  0.00    +0.107 C 
ATOM     27  C15 UNL     1      14.070  -0.471  24.577  0.00  0.00    +0.055 C 
ATOM     28  C16 UNL     1      16.128  -1.146  25.895  0.00  0.00    +0.055 C 
ATOM     29  C17 UNL     1      14.274  -2.783  25.513  0.00  0.00    +0.055 C 
ENDBRANCH  25  26
ENDBRANCH  22  25
ENDBRANCH  20  21
ENDBRANCH  18  20
ENDBRANCH   1  18
TORSDOF 7
ENDMDL
MODEL 2
REMARK VINA RESULT:    -5.984     16.224     18.590
REMARK INTER + INTRA:          -9.636
REMARK INTER:                  -9.107
REMARK INTRA:                  -0.529
REMARK UNBOUND:                -1.203
REMARK  Name = /home/qwerty/github/datacon2025hack/step_04_hit_selection/docking/ligands/lig_148.pdb
REMARK  11 active torsions:
REMARK  status: ('A' for Active; 'I' for Inactive)
REMARK    1  A    between atoms: C1_1  and  C2_2
REMARK    2  A    between atoms: C2_2  and  C3_3
REMARK    3  A    between atoms: C2_2  and  N4_19
REMARK    4  A    between atoms: C3_3  and  C4_4
REMARK    5  A    between atoms: N1_6  and  C5_7
REMARK    6  A    between atoms: C9_12  and  C10_13
REMARK    7  A    between atoms: C13_20  and  O3_22
REMARK    8  A    between atoms: O3_22  and  C14_23
REMARK    9  A    between atoms: C14_23  and  C15_24
REMARK   10  A    between atoms: C14_23  and  C16_25
REMARK   11  A    between atoms: C14_23  and  C17_26
REMARK                            x       y       z     vdW  Elec       q    Type
REMARK                         _______ _______ _______ _____ _____    ______ ____
ROOT
ATOM      1  C4  UNL     1      18.364   9.047  37.523  0.00  0.00    +0.219 C 
ATOM      2  O1  UNL     1      18.013   8.053  36.832  0.00  0.00    -0.275 OA
ATOM      3  N1  UNL     1      19.742   9.446  37.586  0.00  0.00    -0.285 N 
ATOM      4  H7  UNL     1      19.956  10.407  37.932  0.00  0.00    +0.155 HD
ENDROOT
BRANCH   3   5
ATOM      5  C5  UNL     1      20.834   8.653  37.087  0.00  0.00    +0.035 A 
ATOM      6  C6  UNL     1      21.250   7.510  37.819  0.00  0.00    +0.025 A 
ATOM      7  C7  UNL     1      22.299   6.696  37.353  0.00  0.00    +0.032 A 
ATOM      8  C8  UNL     1      22.900   7.044  36.148  0.00  0.00    +0.089 A 
ATOM      9  N2  UNL     1      23.902   6.407  35.514  0.00  0.00    -0.227 NA
ATOM     10  C9  UNL     1      24.072   7.160  34.395  0.00  0.00    +0.175 A 
ATOM     11  N3  UNL     1      23.226   8.216  34.312  0.00  0.00    -0.337 N 
ATOM     12  C11 UNL     1      22.494   8.128  35.430  0.00  0.00    +0.068 A 
ATOM     13  C12 UNL     1      21.461   8.958  35.855  0.00  0.00    +0.051 A 
ATOM     14  H11 UNL     1      23.159   8.932  33.554  0.00  0.00    +0.167 HD
BRANCH  10  15
ATOM     15  C10 UNL     1      25.092   6.846  33.349  0.00  0.00    +0.406 C 
ATOM     16  F1  UNL     1      25.339   7.974  32.589  0.00  0.00    -0.201 F 
ATOM     17  F2  UNL     1      24.622   5.836  32.532  0.00  0.00    -0.201 F 
ENDBRANCH  10  15
ENDBRANCH   3   5
BRANCH   1  18
ATOM     18  C3  UNL     1      17.312   9.863  38.218  0.00  0.00    +0.118 C 
BRANCH  18  20
ATOM     19  C1  UNL     1      16.342  12.122  37.568  0.00  0.00    +0.028 C 
ATOM     20  C2  UNL     1      16.425  10.630  37.218  0.00  0.00    +0.082 C 
BRANCH  20  21
ATOM     21  N4  UNL     1      15.079  10.047  37.205  0.00  0.00    -0.278 N 
ATOM     22  C13 UNL     1      14.241  10.064  36.043  0.00  0.00    +0.401 C 
ATOM     23  O2  UNL     1      14.641  10.623  34.985  0.00  0.00    -0.226 OA
ATOM     24  H13 UNL     1      14.696   9.608  38.074  0.00  0.00    +0.152 HD
BRANCH  22  25
ATOM     25  O3  UNL     1      12.979   9.457  36.108  0.00  0.00    -0.445 OA
BRANCH  25  26
ATOM     26  C14 UNL     1      11.723  10.125  36.305  0.00  0.00    +0.107 C 
ATOM     27  C15 UNL     1      10.687   9.161  36.915  0.00  0.00    +0.055 C 
ATOM     28  C16 UNL     1      11.205  10.708  34.976  0.00  0.00    +0.055 C 
ATOM     29  C17 UNL     1      11.970  11.277  37.290  0.00  0.00    +0.055 C 
ENDBRANCH  25  26
ENDBRANCH  22  25
ENDBRANCH  20  21
ENDBRANCH  18  20
ENDBRANCH   1  18
TORSDOF 7
ENDMDL
MODEL 3
REMARK VINA RESULT:    -5.919     16.630     18.651
REMARK INTER + INTRA:          -9.543
REMARK INTER:                  -8.304
REMARK INTRA:                  -1.239
REMARK UNBOUND:                -1.203
REMARK  Name = /home/qwerty/github/datacon2025hack/step_04_hit_selection/docking/ligands/lig_148.pdb
REMARK  11 active torsions:
REMARK  status: ('A' for Active; 'I' for Inactive)
REMARK    1  A    between atoms: C1_1  and  C2_2
REMARK    2  A    between atoms: C2_2  and  C3_3
REMARK    3  A    between atoms: C2_2  and  N4_19
REMARK    4  A    between atoms: C3_3  and  C4_4
REMARK    5  A    between atoms: N1_6  and  C5_7
REMARK    6  A    between atoms: C9_12  and  C10_13
REMARK    7  A    between atoms: C13_20  and  O3_22
REMARK    8  A    between atoms: O3_22  and  C14_23
REMARK    9  A    between atoms: C14_23  and  C15_24
REMARK   10  A    between atoms: C14_23  and  C16_25
REMARK   11  A    between atoms: C14_23  and  C17_26
REMARK                            x       y       z     vdW  Elec       q    Type
REMARK                         _______ _______ _______ _____ _____    ______ ____
ROOT
ATOM      1  C4  UNL     1      18.545   9.110  37.443  0.00  0.00    +0.219 C 
ATOM      2  O1  UNL     1      18.173   8.257  36.593  0.00  0.00    -0.275 OA
ATOM      3  N1  UNL     1      19.941   9.384  37.643  0.00  0.00    -0.285 N 
ATOM      4  H7  UNL     1      20.198  10.265  38.141  0.00  0.00    +0.155 HD
ENDROOT
BRANCH   3   5
ATOM      5  C5  UNL     1      21.005   8.588  37.094  0.00  0.00    +0.035 A 
ATOM      6  C6  UNL     1      21.439   7.434  37.797  0.00  0.00    +0.025 A 
ATOM      7  C7  UNL     1      22.463   6.616  37.283  0.00  0.00    +0.032 A 
ATOM      8  C8  UNL     1      23.019   6.971  36.059  0.00  0.00    +0.089 A 
ATOM      9  N2  UNL     1      23.990   6.332  35.380  0.00  0.00    -0.227 NA
ATOM     10  C9  UNL     1      24.123   7.095  34.262  0.00  0.00    +0.175 A 
ATOM     11  N3  UNL     1      23.283   8.160  34.223  0.00  0.00    -0.337 N 
ATOM     12  C11 UNL     1      22.595   8.065  35.367  0.00  0.00    +0.068 A 
ATOM     13  C12 UNL     1      21.586   8.900  35.841  0.00  0.00    +0.051 A 
ATOM     14  H11 UNL     1      23.193   8.884  33.475  0.00  0.00    +0.167 HD
BRANCH  10  15
ATOM     15  C10 UNL     1      25.098   6.784  33.174  0.00  0.00    +0.406 C 
ATOM     16  F1  UNL     1      24.538   7.089  31.948  0.00  0.00    -0.201 F 
ATOM     17  F2  UNL     1      25.419   5.440  33.211  0.00  0.00    -0.201 F 
ENDBRANCH  10  15
ENDBRANCH   3   5
BRANCH   1  18
ATOM     18  C3  UNL     1      17.509   9.897  38.192  0.00  0.00    +0.118 C 
BRANCH  18  20
ATOM     19  C1  UNL     1      15.274  10.520  37.152  0.00  0.00    +0.028 C 
ATOM     20  C2  UNL     1      16.761  10.882  37.273  0.00  0.00    +0.082 C 
BRANCH  20  21
ATOM     21  N4  UNL     1      17.381  10.886  35.944  0.00  0.00    -0.278 N 
ATOM     22  C13 UNL     1      17.515  12.075  35.158  0.00  0.00    +0.401 C 
ATOM     23  O2  UNL     1      17.062  13.171  35.589  0.00  0.00    -0.226 OA
ATOM     24  H13 UNL     1      17.734   9.991  35.534  0.00  0.00    +0.152 HD
BRANCH  22  25
ATOM     25  O3  UNL     1      18.148  11.996  33.910  0.00  0.00    -0.445 OA
BRANCH  25  26
ATOM     26  C14 UNL     1      19.556  12.133  33.659  0.00  0.00    +0.107 C 
ATOM     27  C15 UNL     1      20.107  10.875  32.962  0.00  0.00    +0.055 C 
ATOM     28  C16 UNL     1      20.316  12.404  34.972  0.00  0.00    +0.055 C 
ATOM     29  C17 UNL     1      19.735  13.338  32.724  0.00  0.00    +0.055 C 
ENDBRANCH  25  26
ENDBRANCH  22  25
ENDBRANCH  20  21
ENDBRANCH  18  20
ENDBRANCH   1  18
TORSDOF 7
ENDMDL
MODEL 4
REMARK VINA RESULT:    -5.901     16.188     17.462
REMARK INTER + INTRA:          -9.518
REMARK INTER:                  -8.758
REMARK INTRA:                  -0.760
REMARK UNBOUND:                -1.203
REMARK  Name = /home/qwerty/github/datacon2025hack/step_04_hit_selection/docking/ligands/lig_148.pdb
REMARK  11 active torsions:
REMARK  status: ('A' for Active; 'I' for Inactive)
REMARK    1  A    between atoms: C1_1  and  C2_2
REMARK    2  A    between atoms: C2_2  and  C3_3
REMARK    3  A    between atoms: C2_2  and  N4_19
REMARK    4  A    between atoms: C3_3  and  C4_4
REMARK    5  A    between atoms: N1_6  and  C5_7
REMARK    6  A    between atoms: C9_12  and  C10_13
REMARK    7  A    between atoms: C13_20  and  O3_22
REMARK    8  A    between atoms: O3_22  and  C14_23
REMARK    9  A    between atoms: C14_23  and  C15_24
REMARK   10  A    between atoms: C14_23  and  C16_25
REMARK   11  A    between atoms: C14_23  and  C17_26
REMARK                            x       y       z     vdW  Elec       q    Type
REMARK                         _______ _______ _______ _____ _____    ______ ____
ROOT
ATOM      1  C4  UNL     1      18.716  12.297  35.661  0.00  0.00    +0.219 C 
ATOM      2  O1  UNL     1      18.166  11.798  34.642  0.00  0.00    -0.275 OA
ATOM      3  N1  UNL     1      17.926  12.742  36.775  0.00  0.00    -0.285 N 
ATOM      4  H7  UNL     1      18.411  12.890  37.688  0.00  0.00    +0.155 HD
ENDROOT
BRANCH   3   5
ATOM      5  C5  UNL     1      16.494  12.877  36.746  0.00  0.00    +0.035 A 
ATOM      6  C6  UNL     1      15.923  14.081  36.258  0.00  0.00    +0.025 A 
ATOM      7  C7  UNL     1      14.526  14.244  36.192  0.00  0.00    +0.032 A 
ATOM      8  C8  UNL     1      13.732  13.180  36.606  0.00  0.00    +0.089 A 
ATOM      9  N2  UNL     1      12.388  13.112  36.616  0.00  0.00    -0.227 NA
ATOM     10  C9  UNL     1      12.157  11.859  37.093  0.00  0.00    +0.175 A 
ATOM     11  N3  UNL     1      13.287  11.162  37.369  0.00  0.00    -0.337 N 
ATOM     12  C11 UNL     1      14.272  12.014  37.057  0.00  0.00    +0.068 A 
ATOM     13  C12 UNL     1      15.647  11.812  37.138  0.00  0.00    +0.051 A 
ATOM     14  H11 UNL     1      13.371  10.188  37.737  0.00  0.00    +0.167 HD
BRANCH  10  15
ATOM     15  C10 UNL     1      10.785  11.301  37.286  0.00  0.00    +0.406 C 
ATOM     16  F1  UNL     1      10.167  11.947  38.340  0.00  0.00    -0.201 F 
ATOM     17  F2  UNL     1      10.869   9.949  37.561  0.00  0.00    -0.201 F 
ENDBRANCH  10  15
ENDBRANCH   3   5
BRANCH   1  18
ATOM     18  C3  UNL     1      20.214  12.348  35.733  0.00  0.00    +0.118 C 
BRANCH  18  20
ATOM     19  C1  UNL     1      21.049  10.391  34.339  0.00  0.00    +0.028 C 
ATOM     20  C2  UNL     1      20.837  10.938  35.757  0.00  0.00    +0.082 C 
BRANCH  20  21
ATOM     21  N4  UNL     1      19.970  10.029  36.515  0.00  0.00    -0.278 N 
ATOM     22  C13 UNL     1      20.416   8.753  36.988  0.00  0.00    +0.401 C 
ATOM     23  O2  UNL     1      21.587   8.358  36.731  0.00  0.00    -0.226 OA
ATOM     24  H13 UNL     1      18.981  10.303  36.716  0.00  0.00    +0.152 HD
BRANCH  22  25
ATOM     25  O3  UNL     1      19.532   7.958  37.732  0.00  0.00    -0.445 OA
BRANCH  25  26
ATOM     26  C14 UNL     1      18.374   7.275  37.229  0.00  0.00    +0.107 C 
ATOM     27  C15 UNL     1      18.155   5.950  37.985  0.00  0.00    +0.055 C 
ATOM     28  C16 UNL     1      18.508   7.021  35.715  0.00  0.00    +0.055 C 
ATOM     29  C17 UNL     1      17.165   8.190  37.473  0.00  0.00    +0.055 C 
ENDBRANCH  25  26
ENDBRANCH  22  25
ENDBRANCH  20  21
ENDBRANCH  18  20
ENDBRANCH   1  18
TORSDOF 7
ENDMDL
MODEL 5
REMARK VINA RESULT:    -5.896     16.204     17.696
REMARK INTER + INTRA:          -9.512
REMARK INTER:                  -8.771
REMARK INTRA:                  -0.741
REMARK UNBOUND:                -1.203
REMARK  Name = /home/qwerty/github/datacon2025hack/step_04_hit_selection/docking/ligands/lig_148.pdb
REMARK  11 active torsions:
REMARK  status: ('A' for Active; 'I' for Inactive)
REMARK    1  A    between atoms: C1_1  and  C2_2
REMARK    2  A    between atoms: C2_2  and  C3_3
REMARK    3  A    between atoms: C2_2  and  N4_19
REMARK    4  A    between atoms: C3_3  and  C4_4
REMARK    5  A    between atoms: N1_6  and  C5_7
REMARK    6  A    between atoms: C9_12  and  C10_13
REMARK    7  A    between atoms: C13_20  and  O3_22
REMARK    8  A    between atoms: O3_22  and  C14_23
REMARK    9  A    between atoms: C14_23  and  C15_24
REMARK   10  A    between atoms: C14_23  and  C16_25
REMARK   11  A    between atoms: C14_23  and  C17_26
REMARK                            x       y       z     vdW  Elec       q    Type
REMARK                         _______ _______ _______ _____ _____    ______ ____
ROOT
ATOM      1  C4  UNL     1      20.502   8.313  36.787  0.00  0.00    +0.219 C 
ATOM      2  O1  UNL     1      19.638   7.744  36.066  0.00  0.00    -0.275 OA
ATOM      3  N1  UNL     1      20.153   9.453  37.588  0.00  0.00    -0.285 N 
ATOM      4  H7  UNL     1      20.802   9.722  38.361  0.00  0.00    +0.155 HD
ENDROOT
BRANCH   3   5
ATOM      5  C5  UNL     1      18.910  10.167  37.475  0.00  0.00    +0.035 A 
ATOM      6  C6  UNL     1      17.738   9.611  38.050  0.00  0.00    +0.025 A 
ATOM      7  C7  UNL     1      16.507  10.290  37.982  0.00  0.00    +0.032 A 
ATOM      8  C8  UNL     1      16.486  11.526  37.345  0.00  0.00    +0.089 A 
ATOM      9  N2  UNL     1      15.433  12.347  37.177  0.00  0.00    -0.227 NA
ATOM     10  C9  UNL     1      15.981  13.403  36.517  0.00  0.00    +0.175 A 
ATOM     11  N3  UNL     1      17.309  13.269  36.279  0.00  0.00    -0.337 N 
ATOM     12  C11 UNL     1      17.610  12.077  36.808  0.00  0.00    +0.068 A 
ATOM     13  C12 UNL     1      18.847  11.439  36.855  0.00  0.00    +0.051 A 
ATOM     14  H11 UNL     1      17.949  13.940  35.798  0.00  0.00    +0.167 HD
BRANCH  10  15
ATOM     15  C10 UNL     1      15.192  14.602  36.101  0.00  0.00    +0.406 C 
ATOM     16  F1  UNL     1      16.054  15.616  35.727  0.00  0.00    -0.201 F 
ATOM     17  F2  UNL     1      14.409  15.030  37.156  0.00  0.00    -0.201 F 
ENDBRANCH  10  15
ENDBRANCH   3   5
BRANCH   1  18
ATOM     18  C3  UNL     1      21.887   7.738  36.860  0.00  0.00    +0.118 C 
BRANCH  18  20
ATOM     19  C1  UNL     1      23.250   5.890  35.766  0.00  0.00    +0.028 C 
ATOM     20  C2  UNL     1      22.305   7.077  35.532  0.00  0.00    +0.082 C 
BRANCH  20  21
ATOM     21  N4  UNL     1      22.958   8.069  34.671  0.00  0.00    -0.278 N 
ATOM     22  C13 UNL     1      22.298   8.677  33.555  0.00  0.00    +0.401 C 
ATOM     23  O2  UNL     1      21.118   8.341  33.260  0.00  0.00    -0.226 OA
ATOM     24  H13 UNL     1      23.949   8.346  34.859  0.00  0.00    +0.152 HD
BRANCH  22  25
ATOM     25  O3  UNL     1      22.985   9.639  32.802  0.00  0.00    -0.445 OA
BRANCH  25  26
ATOM     26  C14 UNL     1      23.950   9.383  31.770  0.00  0.00    +0.107 C 
ATOM     27  C15 UNL     1      23.687   8.015  31.110  0.00  0.00    +0.055 C 
ATOM     28  C16 UNL     1      25.381   9.446  32.338  0.00  0.00    +0.055 C 
ATOM     29  C17 UNL     1      23.787  10.484  30.711  0.00  0.00    +0.055 C 
ENDBRANCH  25  26
ENDBRANCH  22  25
ENDBRANCH  20  21
ENDBRANCH  18  20
ENDBRANCH   1  18
TORSDOF 7
ENDMDL
MODEL 6
REMARK VINA RESULT:    -5.794     11.118     13.740
REMARK INTER + INTRA:          -9.367
REMARK INTER:                  -8.373
REMARK INTRA:                  -0.994
REMARK UNBOUND:                -1.203
REMARK  Name = /home/qwerty/github/datacon2025hack/step_04_hit_selection/docking/ligands/lig_148.pdb
REMARK  11 active torsions:
REMARK  status: ('A' for Active; 'I' for Inactive)
REMARK    1  A    between atoms: C1_1  and  C2_2
REMARK    2  A    between atoms: C2_2  and  C3_3
REMARK    3  A    between atoms: C2_2  and  N4_19
REMARK    4  A    between atoms: C3_3  and  C4_4
REMARK    5  A    between atoms: N1_6  and  C5_7
REMARK    6  A    between atoms: C9_12  and  C10_13
REMARK    7  A    between atoms: C13_20  and  O3_22
REMARK    8  A    between atoms: O3_22  and  C14_23
REMARK    9  A    between atoms: C14_23  and  C15_24
REMARK   10  A    between atoms: C14_23  and  C16_25
REMARK   11  A    between atoms: C14_23  and  C17_26
REMARK                            x       y       z     vdW  Elec       q    Type
REMARK                         _______ _______ _______ _____ _____    ______ ____
ROOT
ATOM      1  C4  UNL     1       8.568  11.557  27.715  0.00  0.00    +0.219 C 
ATOM      2  O1  UNL     1       8.015  12.434  26.998  0.00  0.00    -0.275 OA
ATOM      3  N1  UNL     1       9.407  10.551  27.126  0.00  0.00    -0.285 N 
ATOM      4  H7  UNL     1      10.052  10.024  27.756  0.00  0.00    +0.155 HD
ENDROOT
BRANCH   3   5
ATOM      5  C5  UNL     1       9.505  10.310  25.712  0.00  0.00    +0.035 A 
ATOM      6  C6  UNL     1       8.357   9.868  25.004  0.00  0.00    +0.025 A 
ATOM      7  C7  UNL     1       8.406   9.643  23.615  0.00  0.00    +0.032 A 
ATOM      8  C8  UNL     1       9.611   9.883  22.965  0.00  0.00    +0.089 A 
ATOM      9  N2  UNL     1       9.879   9.749  21.653  0.00  0.00    -0.227 NA
ATOM     10  C9  UNL     1      11.182  10.129  21.574  0.00  0.00    +0.175 A 
ATOM     11  N3  UNL     1      11.719  10.490  22.766  0.00  0.00    -0.337 N 
ATOM     12  C11 UNL     1      10.712  10.327  23.632  0.00  0.00    +0.068 A 
ATOM     13  C12 UNL     1      10.706  10.562  25.005  0.00  0.00    +0.051 A 
ATOM     14  H11 UNL     1      12.691  10.820  22.962  0.00  0.00    +0.167 HD
BRANCH  10  15
ATOM     15  C10 UNL     1      11.948  10.153  20.291  0.00  0.00    +0.406 C 
ATOM     16  F1  UNL     1      12.873  11.179  20.323  0.00  0.00    -0.201 F 
ATOM     17  F2  UNL     1      11.077  10.353  19.236  0.00  0.00    -0.201 F 
ENDBRANCH  10  15
ENDBRANCH   3   5
BRANCH   1  18
ATOM     18  C3  UNL     1       8.405  11.622  29.206  0.00  0.00    +0.118 C 
BRANCH  18  20
ATOM     19  C1  UNL     1       7.372  13.853  29.860  0.00  0.00    +0.028 C 
ATOM     20  C2  UNL     1       8.669  13.039  29.752  0.00  0.00    +0.082 C 
BRANCH  20  21
ATOM     21  N4  UNL     1       9.621  13.735  28.878  0.00  0.00    -0.278 N 
ATOM     22  C13 UNL     1      10.938  14.100  29.307  0.00  0.00    +0.401 C 
ATOM     23  O2  UNL     1      11.309  13.851  30.487  0.00  0.00    -0.226 OA
ATOM     24  H13 UNL     1       9.338  13.993  27.905  0.00  0.00    +0.152 HD
BRANCH  22  25
ATOM     25  O3  UNL     1      11.795  14.736  28.398  0.00  0.00    -0.445 OA
BRANCH  25  26
ATOM     26  C14 UNL     1      12.894  14.132  27.699  0.00  0.00    +0.107 C 
ATOM     27  C15 UNL     1      13.158  14.863  26.369  0.00  0.00    +0.055 C 
ATOM     28  C16 UNL     1      12.622  12.635  27.451  0.00  0.00    +0.055 C 
ATOM     29  C17 UNL     1      14.133  14.269  28.595  0.00  0.00    +0.055 C 
ENDBRANCH  25  26
ENDBRANCH  22  25
ENDBRANCH  20  21
ENDBRANCH  18  20
ENDBRANCH   1  18
TORSDOF 7
ENDMDL
MODEL 7
REMARK VINA RESULT:    -5.714     12.588     15.369
REMARK INTER + INTRA:          -9.255
REMARK INTER:                  -8.241
REMARK INTRA:                  -1.014
REMARK UNBOUND:                -1.203
REMARK  Name = /home/qwerty/github/datacon2025hack/step_04_hit_selection/docking/ligands/lig_148.pdb
REMARK  11 active torsions:
REMARK  status: ('A' for Active; 'I' for Inactive)
REMARK    1  A    between atoms: C1_1  and  C2_2
REMARK    2  A    between atoms: C2_2  and  C3_3
REMARK    3  A    between atoms: C2_2  and  N4_19
REMARK    4  A    between atoms: C3_3  and  C4_4
REMARK    5  A    between atoms: N1_6  and  C5_7
REMARK    6  A    between atoms: C9_12  and  C10_13
REMARK    7  A    between atoms: C13_20  and  O3_22
REMARK    8  A    between atoms: O3_22  and  C14_23
REMARK    9  A    between atoms: C14_23  and  C15_24
REMARK   10  A    between atoms: C14_23  and  C16_25
REMARK   11  A    between atoms: C14_23  and  C17_26
REMARK                            x       y       z     vdW  Elec       q    Type
REMARK                         _______ _______ _______ _____ _____    ______ ____
ROOT
ATOM      1  C4  UNL     1      19.776   5.218  34.262  0.00  0.00    +0.219 C 
ATOM      2  O1  UNL     1      19.853   5.733  33.113  0.00  0.00    -0.275 OA
ATOM      3  N1  UNL     1      20.118   3.839  34.471  0.00  0.00    -0.285 N 
ATOM      4  H7  UNL     1      20.305   3.527  35.450  0.00  0.00    +0.155 HD
ENDROOT
BRANCH   3   5
ATOM      5  C5  UNL     1      20.342   2.894  33.411  0.00  0.00    +0.035 A 
ATOM      6  C6  UNL     1      19.347   1.922  33.129  0.00  0.00    +0.025 A 
ATOM      7  C7  UNL     1      19.518   0.994  32.085  0.00  0.00    +0.032 A 
ATOM      8  C8  UNL     1      20.685   1.074  31.334  0.00  0.00    +0.089 A 
ATOM      9  N2  UNL     1      21.047   0.305  30.291  0.00  0.00    -0.227 NA
ATOM     10  C9  UNL     1      22.251   0.830  29.937  0.00  0.00    +0.175 A 
ATOM     11  N3  UNL     1      22.638   1.878  30.706  0.00  0.00    -0.337 N 
ATOM     12  C11 UNL     1      21.636   2.017  31.584  0.00  0.00    +0.068 A 
ATOM     13  C12 UNL     1      21.506   2.952  32.607  0.00  0.00    +0.051 A 
ATOM     14  H11 UNL     1      23.511   2.446  30.631  0.00  0.00    +0.167 HD
BRANCH  10  15
ATOM     15  C10 UNL     1      23.067   0.305  28.802  0.00  0.00    +0.406 C 
ATOM     16  F1  UNL     1      22.984  -1.074  28.770  0.00  0.00    -0.201 F 
ATOM     17  F2  UNL     1      24.387   0.682  28.967  0.00  0.00    -0.201 F 
ENDBRANCH  10  15
ENDBRANCH   3   5
BRANCH   1  18
ATOM     18  C3  UNL     1      19.399   6.085  35.428  0.00  0.00    +0.118 C 
BRANCH  18  20
ATOM     19  C1  UNL     1      20.235   7.391  37.444  0.00  0.00    +0.028 C 
ATOM     20  C2  UNL     1      20.633   6.529  36.237  0.00  0.00    +0.082 C 
BRANCH  20  21
ATOM     21  N4  UNL     1      21.548   7.280  35.370  0.00  0.00    -0.278 N 
ATOM     22  C13 UNL     1      22.952   7.002  35.306  0.00  0.00    +0.401 C 
ATOM     23  O2  UNL     1      23.452   6.102  36.035  0.00  0.00    -0.226 OA
ATOM     24  H13 UNL     1      21.179   8.059  34.779  0.00  0.00    +0.152 HD
BRANCH  22  25
ATOM     25  O3  UNL     1      23.751   7.747  34.428  0.00  0.00    -0.445 OA
BRANCH  25  26
ATOM     26  C14 UNL     1      24.280   7.299  33.170  0.00  0.00    +0.107 C 
ATOM     27  C15 UNL     1      23.154   6.756  32.270  0.00  0.00    +0.055 C 
ATOM     28  C16 UNL     1      25.365   6.226  33.390  0.00  0.00    +0.055 C 
ATOM     29  C17 UNL     1      24.919   8.517  32.486  0.00  0.00    +0.055 C 
ENDBRANCH  25  26
ENDBRANCH  22  25
ENDBRANCH  20  21
ENDBRANCH  18  20
ENDBRANCH   1  18
TORSDOF 7
ENDMDL
MODEL 8
REMARK VINA RESULT:    -5.700     16.124     17.684
REMARK INTER + INTRA:          -9.235
REMARK INTER:                  -8.113
REMARK INTRA:                  -1.122
REMARK UNBOUND:                -1.203
REMARK  Name = /home/qwerty/github/datacon2025hack/step_04_hit_selection/docking/ligands/lig_148.pdb
REMARK  11 active torsions:
REMARK  status: ('A' for Active; 'I' for Inactive)
REMARK    1  A    between atoms: C1_1  and  C2_2
REMARK    2  A    between atoms: C2_2  and  C3_3
REMARK    3  A    between atoms: C2_2  and  N4_19
REMARK    4  A    between atoms: C3_3  and  C4_4
REMARK    5  A    between atoms: N1_6  and  C5_7
REMARK    6  A    between atoms: C9_12  and  C10_13
REMARK    7  A    between atoms: C13_20  and  O3_22
REMARK    8  A    between atoms: O3_22  and  C14_23
REMARK    9  A    between atoms: C14_23  and  C15_24
REMARK   10  A    between atoms: C14_23  and  C16_25
REMARK   11  A    between atoms: C14_23  and  C17_26
REMARK                            x       y       z     vdW  Elec       q    Type
REMARK                         _______ _______ _______ _____ _____    ______ ____
ROOT
ATOM      1  C4  UNL     1      20.477   8.707  36.556  0.00  0.00    +0.219 C 
ATOM      2  O1  UNL     1      20.054   8.204  35.479  0.00  0.00    -0.275 OA
ATOM      3  N1  UNL     1      20.182  10.071  36.893  0.00  0.00    -0.285 N 
ATOM      4  H7  UNL     1      20.307  10.366  37.887  0.00  0.00    +0.155 HD
ENDROOT
BRANCH   3   5
ATOM      5  C5  UNL     1      19.609  11.022  35.978  0.00  0.00    +0.035 A 
ATOM      6  C6  UNL     1      18.275  11.461  36.183  0.00  0.00    +0.025 A 
ATOM      7  C7  UNL     1      17.686  12.408  35.323  0.00  0.00    +0.032 A 
ATOM      8  C8  UNL     1      18.461  12.905  34.282  0.00  0.00    +0.089 A 
ATOM      9  N2  UNL     1      18.110  13.817  33.357  0.00  0.00    -0.227 NA
ATOM     10  C9  UNL     1      19.241  13.937  32.612  0.00  0.00    +0.175 A 
ATOM     11  N3  UNL     1      20.261  13.150  33.035  0.00  0.00    -0.337 N 
ATOM     12  C11 UNL     1      19.749  12.504  34.090  0.00  0.00    +0.068 A 
ATOM     13  C12 UNL     1      20.369  11.570  34.916  0.00  0.00    +0.051 A 
ATOM     14  H11 UNL     1      21.222  13.067  32.634  0.00  0.00    +0.167 HD
BRANCH  10  15
ATOM     15  C10 UNL     1      19.351  14.857  31.440  0.00  0.00    +0.406 C 
ATOM     16  F1  UNL     1      20.450  15.680  31.598  0.00  0.00    -0.201 F 
ATOM     17  F2  UNL     1      18.208  15.630  31.349  0.00  0.00    -0.201 F 
ENDBRANCH  10  15
ENDBRANCH   3   5
BRANCH   1  18
ATOM     18  C3  UNL     1      21.227   7.838  37.523  0.00  0.00    +0.118 C 
BRANCH  18  20
ATOM     19  C1  UNL     1      23.384   6.528  37.840  0.00  0.00    +0.028 C 
ATOM     20  C2  UNL     1      22.350   7.041  36.829  0.00  0.00    +0.082 C 
BRANCH  20  21
ATOM     21  N4  UNL     1      23.010   7.888  35.829  0.00  0.00    -0.278 N 
ATOM     22  C13 UNL     1      23.488   7.376  34.580  0.00  0.00    +0.401 C 
ATOM     23  O2  UNL     1      23.377   6.147  34.316  0.00  0.00    -0.226 OA
ATOM     24  H13 UNL     1      23.155   8.905  36.026  0.00  0.00    +0.152 HD
BRANCH  22  25
ATOM     25  O3  UNL     1      24.080   8.260  33.667  0.00  0.00    -0.445 OA
BRANCH  25  26
ATOM     26  C14 UNL     1      23.486   8.761  32.459  0.00  0.00    +0.107 C 
ATOM     27  C15 UNL     1      22.121   9.412  32.756  0.00  0.00    +0.055 C 
ATOM     28  C16 UNL     1      23.336   7.633  31.420  0.00  0.00    +0.055 C 
ATOM     29  C17 UNL     1      24.434   9.831  31.897  0.00  0.00    +0.055 C 
ENDBRANCH  25  26
ENDBRANCH  22  25
ENDBRANCH  20  21
ENDBRANCH  18  20
ENDBRANCH   1  18
TORSDOF 7
ENDMDL
MODEL 9
REMARK VINA RESULT:    -5.685     14.542     16.338
REMARK INTER + INTRA:          -9.214
REMARK INTER:                  -8.061
REMARK INTRA:                  -1.152
REMARK UNBOUND:                -1.203
REMARK  Name = /home/qwerty/github/datacon2025hack/step_04_hit_selection/docking/ligands/lig_148.pdb
REMARK  11 active torsions:
REMARK  status: ('A' for Active; 'I' for Inactive)
REMARK    1  A    between atoms: C1_1  and  C2_2
REMARK    2  A    between atoms: C2_2  and  C3_3
REMARK    3  A    between atoms: C2_2  and  N4_19
REMARK    4  A    between atoms: C3_3  and  C4_4
REMARK    5  A    between atoms: N1_6  and  C5_7
REMARK    6  A    between atoms: C9_12  and  C10_13
REMARK    7  A    between atoms: C13_20  and  O3_22
REMARK    8  A    between atoms: O3_22  and  C14_23
REMARK    9  A    between atoms: C14_23  and  C15_24
REMARK   10  A    between atoms: C14_23  and  C16_25
REMARK   11  A    between atoms: C14_23  and  C17_26
REMARK                            x       y       z     vdW  Elec       q    Type
REMARK                         _______ _______ _______ _____ _____    ______ ____
ROOT
ATOM      1  C4  UNL     1      14.781  12.455  32.192  0.00  0.00    +0.219 C 
ATOM      2  O1  UNL     1      14.454  11.388  31.606  0.00  0.00    -0.275 OA
ATOM      3  N1  UNL     1      14.087  13.683  31.921  0.00  0.00    -0.285 N 
ATOM      4  H7  UNL     1      14.195  14.465  32.604  0.00  0.00    +0.155 HD
ENDROOT
BRANCH   3   5
ATOM      5  C5  UNL     1      13.157  13.861  30.838  0.00  0.00    +0.035 A 
ATOM      6  C6  UNL     1      13.619  14.406  29.612  0.00  0.00    +0.025 A 
ATOM      7  C7  UNL     1      12.746  14.574  28.521  0.00  0.00    +0.032 A 
ATOM      8  C8  UNL     1      11.424  14.176  28.685  0.00  0.00    +0.089 A 
ATOM      9  N2  UNL     1      10.429  14.233  27.780  0.00  0.00    -0.227 NA
ATOM     10  C9  UNL     1       9.377  13.704  28.461  0.00  0.00    +0.175 A 
ATOM     11  N3  UNL     1       9.679  13.327  29.728  0.00  0.00    -0.337 N 
ATOM     12  C11 UNL     1      10.976  13.634  29.852  0.00  0.00    +0.068 A 
ATOM     13  C12 UNL     1      11.807  13.450  30.954  0.00  0.00    +0.051 A 
ATOM     14  H11 UNL     1       9.049  12.895  30.441  0.00  0.00    +0.167 HD
BRANCH  10  15
ATOM     15  C10 UNL     1       8.017  13.548  27.864  0.00  0.00    +0.406 C 
ATOM     16  F1  UNL     1       7.961  12.373  27.139  0.00  0.00    -0.201 F 
ATOM     17  F2  UNL     1       7.752  14.616  27.028  0.00  0.00    -0.201 F 
ENDBRANCH  10  15
ENDBRANCH   3   5
BRANCH   1  18
ATOM     18  C3  UNL     1      15.856  12.414  33.240  0.00  0.00    +0.118 C 
BRANCH  18  20
ATOM     19  C1  UNL     1      17.043  13.887  34.940  0.00  0.00    +0.028 C 
ATOM     20  C2  UNL     1      15.706  13.557  34.263  0.00  0.00    +0.082 C 
BRANCH  20  21
ATOM     21  N4  UNL     1      14.713  13.184  35.277  0.00  0.00    -0.278 N 
ATOM     22  C13 UNL     1      13.459  13.861  35.414  0.00  0.00    +0.401 C 
ATOM     23  O2  UNL     1      13.183  14.839  34.667  0.00  0.00    -0.226 OA
ATOM     24  H13 UNL     1      14.920  12.403  35.941  0.00  0.00    +0.152 HD
BRANCH  22  25
ATOM     25  O3  UNL     1      12.554  13.420  36.391  0.00  0.00    -0.445 OA
BRANCH  25  26
ATOM     26  C14 UNL     1      11.279  12.805  36.154  0.00  0.00    +0.107 C 
ATOM     27  C15 UNL     1      10.176  13.874  36.027  0.00  0.00    +0.055 C 
ATOM     28  C16 UNL     1      10.941  11.807  37.279  0.00  0.00    +0.055 C 
ATOM     29  C17 UNL     1      11.383  12.040  34.826  0.00  0.00    +0.055 C 
ENDBRANCH  25  26
ENDBRANCH  22  25
ENDBRANCH  20  21
ENDBRANCH  18  20
ENDBRANCH   1  18
TORSDOF 7
ENDMDL
