REMARK  Name = /home/qwerty/github/datacon2025hack/step_04_hit_selection/docking/ligands/lig_708.pdb
REMARK  5 active torsions:
REMARK  status: ('A' for Active; 'I' for Inactive)
REMARK    1  A    between atoms: C1_1  and  O1_2
REMARK    2  A    between atoms: O1_2  and  C2_3
REMARK    3  A    between atoms: C5_6  and  C6_7
REMARK    4  A    between atoms: C8_11  and  C9_12
REMARK    5  A    between atoms: N5_29  and  C22_30
REMARK                            x       y       z     vdW  Elec       q    Type
REMARK                         _______ _______ _______ _____ _____    ______ ____
ROOT
ATOM      1  C9  UNL     1       1.540  -0.590   0.913  0.00  0.00    +0.250 C 
ATOM      2  O2  UNL     1       2.267  -0.003   1.759  0.00  0.00    -0.270 OA
ATOM      3  N3  UNL     1       0.144  -0.250   0.812  0.00  0.00    -0.297 N 
ATOM      4  C10 UNL     1      -0.549   0.321   1.974  0.00  0.00    +0.112 C 
ATOM      5  C11 UNL     1      -2.002  -0.173   2.025  0.00  0.00    +0.065 C 
ATOM      6  C12 UNL     1      -2.768  -0.043   0.659  0.00  0.00    +0.104 C 
ATOM      7  C13 UNL     1      -1.853   0.499  -0.471  0.00  0.00    +0.065 C 
ATOM      8  C14 UNL     1      -0.498  -0.221  -0.512  0.00  0.00    +0.112 C 
ATOM      9  N4  UNL     1      -3.198  -1.397   0.271  0.00  0.00    -0.290 N 
ATOM     10  C15 UNL     1      -4.433  -1.671  -0.378  0.00  0.00    +0.247 C 
ATOM     11  O3  UNL     1      -4.615  -2.795  -0.920  0.00  0.00    -0.270 OA
ATOM     12  C16 UNL     1      -5.488  -0.661  -0.375  0.00  0.00    +0.058 A 
ATOM     13  C17 UNL     1      -6.742  -0.938  -0.950  0.00  0.00    +0.015 A 
ATOM     14  C18 UNL     1      -7.765   0.007  -0.899  0.00  0.00    +0.001 A 
ATOM     15  C19 UNL     1      -7.549   1.229  -0.270  0.00  0.00    +0.002 A 
ATOM     16  C20 UNL     1      -6.307   1.516   0.300  0.00  0.00    +0.024 A 
ATOM     17  C21 UNL     1      -5.245   0.579   0.245  0.00  0.00    +0.043 A 
ATOM     18  N5  UNL     1      -3.934   0.882   0.808  0.00  0.00    -0.311 N 
ATOM     19  C22 UNL     1      -3.701   2.233   1.356  0.00  0.00    +0.131 C 
ATOM     20  H16 UNL     1      -2.498  -2.173   0.301  0.00  0.00    +0.151 HD
ENDROOT
BRANCH   1  25
ATOM     21  C6  UNL     1       3.438  -1.728  -0.421  0.00  0.00    +0.105 A 
ATOM     22  N1  UNL     1       3.604  -2.929  -1.012  0.00  0.00    -0.173 NA
ATOM     23  N2  UNL     1       2.461  -3.589  -0.922  0.00  0.00    -0.283 N 
ATOM     24  C7  UNL     1       1.551  -2.839  -0.278  0.00  0.00    +0.118 A 
ATOM     25  C8  UNL     1       2.135  -1.635   0.058  0.00  0.00    +0.082 A 
ATOM     26  H6  UNL     1       2.312  -4.556  -1.285  0.00  0.00    +0.188 HD
BRANCH  21  30
ATOM     27  C2  UNL     1       6.565   1.217  -0.282  0.00  0.00    +0.120 A 
ATOM     28  C3  UNL     1       6.867  -0.153  -0.176  0.00  0.00    +0.046 A 
ATOM     29  C4  UNL     1       5.844  -1.106  -0.221  0.00  0.00    +0.013 A 
ATOM     30  C5  UNL     1       4.505  -0.707  -0.356  0.00  0.00    +0.003 A 
ATOM     31  C23 UNL     1       4.209   0.661  -0.481  0.00  0.00    +0.013 A 
ATOM     32  C24 UNL     1       5.232   1.612  -0.437  0.00  0.00    +0.046 A 
BRANCH  27  34
ATOM     33  C1  UNL     1       8.946   1.954  -0.089  0.00  0.00    +0.277 C 
ATOM     34  O1  UNL     1       7.554   2.211  -0.242  0.00  0.00    -0.495 OA
ENDBRANCH  27  34
ENDBRANCH  21  30
ENDBRANCH   1  25
TORSDOF 3
