REMARK  Name = /home/qwerty/github/datacon2025hack/step_04_hit_selection/docking/ligands/lig_473.pdb
REMARK  6 active torsions:
REMARK  status: ('A' for Active; 'I' for Inactive)
REMARK    1  A    between atoms: C1_1  and  C2_2
REMARK    2  A    between atoms: C2_2  and  N1_3
REMARK    3  A    between atoms: C2_2  and  C17_23
REMARK    4  A    between atoms: N2_6  and  C4_7
REMARK    5  A    between atoms: C8_12  and  C9_13
REMARK    6  A    between atoms: C20_26  and  N5_27
REMARK                            x       y       z     vdW  Elec       q    Type
REMARK                         _______ _______ _______ _____ _____    ______ ____
ROOT
ATOM      1  N1  UNL     1       1.983  -0.480  -0.314  0.00  0.00    -0.293 N 
ATOM      2  C3  UNL     1       0.604  -0.161  -0.078  0.00  0.00    +0.304 C 
ATOM      3  O1  UNL     1      -0.042  -0.774   0.815  0.00  0.00    -0.252 OA
ATOM      4  N2  UNL     1      -0.018   0.893  -0.828  0.00  0.00    -0.269 N 
ATOM      5  H5  UNL     1       2.470   0.007  -1.100  0.00  0.00    +0.151 HD
ATOM      6  H6  UNL     1       0.602   1.529  -1.380  0.00  0.00    +0.156 HD
ENDROOT
BRANCH   4   7
ATOM      7  C4  UNL     1      -1.411   1.230  -0.729  0.00  0.00    +0.037 A 
ATOM      8  C5  UNL     1      -1.798   2.595  -0.776  0.00  0.00    +0.025 A 
ATOM      9  C6  UNL     1      -3.154   2.960  -0.688  0.00  0.00    +0.029 A 
ATOM     10  C7  UNL     1      -4.091   1.938  -0.573  0.00  0.00    +0.067 A 
ATOM     11  N3  UNL     1      -5.422   2.036  -0.485  0.00  0.00    -0.338 N 
ATOM     12  C8  UNL     1      -5.844   0.744  -0.414  0.00  0.00    +0.142 A 
ATOM     13  N4  UNL     1      -4.823  -0.156  -0.454  0.00  0.00    -0.228 NA
ATOM     14  C15 UNL     1      -3.733   0.625  -0.551  0.00  0.00    +0.091 A 
ATOM     15  C16 UNL     1      -2.402   0.224  -0.631  0.00  0.00    +0.053 A 
ATOM     16  H9  UNL     1      -5.990   2.913  -0.496  0.00  0.00    +0.167 HD
BRANCH  12  17
ATOM     17  C9  UNL     1      -7.270   0.346  -0.302  0.00  0.00    +0.052 A 
ATOM     18  C10 UNL     1      -8.235   1.267   0.148  0.00  0.00    +0.014 A 
ATOM     19  C11 UNL     1      -9.578   0.893   0.259  0.00  0.00    +0.001 A 
ATOM     20  C12 UNL     1      -9.974  -0.401  -0.078  0.00  0.00    +0.003 A 
ATOM     21  C13 UNL     1      -9.028  -1.329  -0.520  0.00  0.00    +0.039 A 
ATOM     22  C14 UNL     1      -7.682  -0.965  -0.630  0.00  0.00    +0.134 A 
ATOM     23  F1  UNL     1      -6.792  -1.890  -1.078  0.00  0.00    -0.205 F 
ENDBRANCH  12  17
ENDBRANCH   4   7
BRANCH   1  25
ATOM     24  C1  UNL     1       2.435  -2.889  -0.104  0.00  0.00    +0.033 C 
ATOM     25  C2  UNL     1       2.700  -1.493   0.467  0.00  0.00    +0.102 C 
BRANCH  25  26
ATOM     26  C17 UNL     1       4.185  -1.184   0.505  0.00  0.00    -0.027 A 
ATOM     27  C18 UNL     1       4.951  -1.161  -0.676  0.00  0.00    +0.007 A 
ATOM     28  C19 UNL     1       6.316  -0.862  -0.629  0.00  0.00    +0.023 A 
ATOM     29  C20 UNL     1       6.939  -0.563   0.592  0.00  0.00    +0.035 A 
ATOM     30  C22 UNL     1       6.181  -0.607   1.775  0.00  0.00    +0.023 A 
ATOM     31  C23 UNL     1       4.818  -0.909   1.729  0.00  0.00    +0.007 A 
BRANCH  29  32
ATOM     32  N5  UNL     1       8.348  -0.275   0.617  0.00  0.00    -0.270 N 
ATOM     33  C21 UNL     1       8.961   0.636   1.541  0.00  0.00    +0.301 C 
ATOM     34  N6  UNL     1      10.377   0.635   1.710  0.00  0.00    -0.313 N 
ATOM     35  O2  UNL     1       8.260   1.466   2.182  0.00  0.00    -0.253 OA
ATOM     36  H17 UNL     1       8.953  -0.696  -0.125  0.00  0.00    +0.156 HD
ATOM     37  H18 UNL     1      10.828   1.285   2.392  0.00  0.00    +0.146 HD
ATOM     38  H19 UNL     1      10.973  -0.045   1.190  0.00  0.00    +0.146 HD
ENDBRANCH  29  32
ENDBRANCH  25  26
ENDBRANCH   1  25
TORSDOF 5
