MODEL 1
REMARK VINA RESULT:    -5.779      0.000      0.000
REMARK INTER + INTRA:          -8.756
REMARK INTER:                  -7.637
REMARK INTRA:                  -1.120
REMARK UNBOUND:                -1.120
REMARK  Name = /home/qwerty/github/datacon2025hack/step_04_hit_selection/docking/ligands/lig_714.pdb
REMARK  6 active torsions:
REMARK  status: ('A' for Active; 'I' for Inactive)
REMARK    1  A    between atoms: C1_2  and  C12_18
REMARK    2  A    between atoms: N1_3  and  C2_4
REMARK    3  A    between atoms: C2_4  and  C3_5
REMARK    4  A    between atoms: C3_5  and  C4_6
REMARK    5  A    between atoms: C3_5  and  N2_8
REMARK    6  A    between atoms: C4_6  and  O2_7
REMARK                            x       y       z     vdW  Elec       q    Type
REMARK                         _______ _______ _______ _____ _____    ______ ____
ROOT
ATOM      1  C3  UNL     1       7.364   6.140  20.561  0.00  0.00    +0.114 C 
ENDROOT
BRANCH   1   2
ATOM      2  N2  UNL     1       7.928   6.998  21.614  0.00  0.00    -0.322 N 
ATOM      3  C5  UNL     1       9.108   7.812  21.477  0.00  0.00    +0.126 A 
ATOM      4  N3  UNL     1       9.870   7.764  20.346  0.00  0.00    -0.221 NA
ATOM      5  C6  UNL     1      10.989   8.533  20.206  0.00  0.00    +0.223 A 
ATOM      6  N4  UNL     1      11.371   9.375  21.206  0.00  0.00    -0.240 NA
ATOM      7  C7  UNL     1      10.629   9.440  22.339  0.00  0.00    +0.049 A 
ATOM      8  C8  UNL     1       9.507   8.679  22.502  0.00  0.00    +0.014 A 
ATOM      9  C9  UNL     1       8.861   8.924  23.814  0.00  0.00    +0.041 C 
ATOM     10  C10 UNL     1       9.760   9.987  24.480  0.00  0.00    +0.011 C 
ATOM     11  C11 UNL     1      10.911  10.305  23.504  0.00  0.00    +0.056 C 
ATOM     12  H8  UNL     1       7.406   7.029  22.518  0.00  0.00    +0.148 HD
ENDBRANCH   1   2
BRANCH   1  13
ATOM     13  C2  UNL     1       7.759   4.664  20.756  0.00  0.00    +0.129 C 
BRANCH  13  16
ATOM     14  O1  UNL     1       9.985   4.424  22.477  0.00  0.00    -0.270 OA
ATOM     15  C1  UNL     1      10.200   4.233  21.249  0.00  0.00    +0.246 C 
ATOM     16  N1  UNL     1       9.130   4.412  20.308  0.00  0.00    -0.309 N 
ATOM     17  H1  UNL     1       9.342   4.409  19.286  0.00  0.00    +0.149 HD
BRANCH  15  18
ATOM     18  C12 UNL     1      11.560   3.848  20.802  0.00  0.00    +0.057 A 
ATOM     19  C13 UNL     1      12.164   2.650  21.230  0.00  0.00    +0.124 A 
ATOM     20  N5  UNL     1      13.415   2.325  20.810  0.00  0.00    -0.260 NA
ATOM     21  C14 UNL     1      14.123   3.130  19.975  0.00  0.00    +0.149 A 
ATOM     22  C15 UNL     1      13.574   4.332  19.533  0.00  0.00    +0.142 A 
ATOM     23  F1  UNL     1      14.277   5.143  18.706  0.00  0.00    -0.204 F 
ATOM     24  C16 UNL     1      12.291   4.694  19.952  0.00  0.00    +0.054 A 
ENDBRANCH  15  18
ENDBRANCH  13  16
ENDBRANCH   1  13
BRANCH   1  25
ATOM     25  C4  UNL     1       5.838   6.310  20.455  0.00  0.00    +0.179 C 
BRANCH  25  26
ATOM     26  O2  UNL     1       5.294   5.355  19.585  0.00  0.00    -0.393 OA
ATOM     27  H7  UNL     1       5.994   4.665  19.445  0.00  0.00    +0.209 HD
ENDBRANCH  25  26
ENDBRANCH   1  25
TORSDOF 6
ENDMDL
MODEL 2
REMARK VINA RESULT:    -5.744      3.185      4.884
REMARK INTER + INTRA:          -8.710
REMARK INTER:                  -8.130
REMARK INTRA:                  -0.580
REMARK UNBOUND:                -1.120
REMARK  Name = /home/qwerty/github/datacon2025hack/step_04_hit_selection/docking/ligands/lig_714.pdb
REMARK  6 active torsions:
REMARK  status: ('A' for Active; 'I' for Inactive)
REMARK    1  A    between atoms: C1_2  and  C12_18
REMARK    2  A    between atoms: N1_3  and  C2_4
REMARK    3  A    between atoms: C2_4  and  C3_5
REMARK    4  A    between atoms: C3_5  and  C4_6
REMARK    5  A    between atoms: C3_5  and  N2_8
REMARK    6  A    between atoms: C4_6  and  O2_7
REMARK                            x       y       z     vdW  Elec       q    Type
REMARK                         _______ _______ _______ _____ _____    ______ ____
ROOT
ATOM      1  C3  UNL     1      12.556   4.807  19.787  0.00  0.00    +0.114 C 
ENDROOT
BRANCH   1   2
ATOM      2  N2  UNL     1      12.437   6.191  20.270  0.00  0.00    -0.322 N 
ATOM      3  C5  UNL     1      11.197   6.874  20.535  0.00  0.00    +0.126 A 
ATOM      4  N3  UNL     1       9.997   6.292  20.249  0.00  0.00    -0.221 NA
ATOM      5  C6  UNL     1       8.816   6.929  20.498  0.00  0.00    +0.223 A 
ATOM      6  N4  UNL     1       8.813   8.176  21.045  0.00  0.00    -0.240 NA
ATOM      7  C7  UNL     1       9.995   8.775  21.338  0.00  0.00    +0.049 A 
ATOM      8  C8  UNL     1      11.188   8.157  21.096  0.00  0.00    +0.014 A 
ATOM      9  C9  UNL     1      12.337   9.001  21.503  0.00  0.00    +0.041 C 
ATOM     10  C10 UNL     1      11.682  10.282  22.059  0.00  0.00    +0.011 C 
ATOM     11  C11 UNL     1      10.153  10.117  21.937  0.00  0.00    +0.056 C 
ATOM     12  H8  UNL     1      13.332   6.698  20.457  0.00  0.00    +0.148 HD
ENDBRANCH   1   2
BRANCH   1  13
ATOM     13  C2  UNL     1      13.965   4.516  19.234  0.00  0.00    +0.129 C 
BRANCH  13  16
ATOM     14  O1  UNL     1      16.548   3.820  20.139  0.00  0.00    -0.270 OA
ATOM     15  C1  UNL     1      15.704   2.884  20.072  0.00  0.00    +0.246 C 
ATOM     16  N1  UNL     1      14.393   3.152  19.550  0.00  0.00    -0.309 N 
ATOM     17  H1  UNL     1      13.751   2.354  19.347  0.00  0.00    +0.149 HD
BRANCH  15  18
ATOM     18  C12 UNL     1      16.092   1.524  20.515  0.00  0.00    +0.057 A 
ATOM     19  C13 UNL     1      16.330   1.232  21.871  0.00  0.00    +0.124 A 
ATOM     20  N5  UNL     1      16.692  -0.023  22.250  0.00  0.00    -0.260 NA
ATOM     21  C14 UNL     1      16.836  -1.030  21.348  0.00  0.00    +0.149 A 
ATOM     22  C15 UNL     1      16.623  -0.788  19.992  0.00  0.00    +0.142 A 
ATOM     23  F1  UNL     1      16.772  -1.785  19.087  0.00  0.00    -0.204 F 
ATOM     24  C16 UNL     1      16.255   0.493  19.575  0.00  0.00    +0.054 A 
ENDBRANCH  15  18
ENDBRANCH  13  16
ENDBRANCH   1  13
BRANCH   1  25
ATOM     25  C4  UNL     1      12.153   3.796  20.874  0.00  0.00    +0.179 C 
BRANCH  25  26
ATOM     26  O2  UNL     1      11.486   2.701  20.307  0.00  0.00    -0.393 OA
ATOM     27  H7  UNL     1      11.203   2.119  21.060  0.00  0.00    +0.209 HD
ENDBRANCH  25  26
ENDBRANCH   1  25
TORSDOF 6
ENDMDL
MODEL 3
REMARK VINA RESULT:    -5.729      6.373      9.828
REMARK INTER + INTRA:          -8.691
REMARK INTER:                  -7.782
REMARK INTRA:                  -0.909
REMARK UNBOUND:                -1.120
REMARK  Name = /home/qwerty/github/datacon2025hack/step_04_hit_selection/docking/ligands/lig_714.pdb
REMARK  6 active torsions:
REMARK  status: ('A' for Active; 'I' for Inactive)
REMARK    1  A    between atoms: C1_2  and  C12_18
REMARK    2  A    between atoms: N1_3  and  C2_4
REMARK    3  A    between atoms: C2_4  and  C3_5
REMARK    4  A    between atoms: C3_5  and  C4_6
REMARK    5  A    between atoms: C3_5  and  N2_8
REMARK    6  A    between atoms: C4_6  and  O2_7
REMARK                            x       y       z     vdW  Elec       q    Type
REMARK                         _______ _______ _______ _____ _____    ______ ____
ROOT
ATOM      1  C3  UNL     1       8.191  10.825  28.664  0.00  0.00    +0.114 C 
ENDROOT
BRANCH   1   2
ATOM      2  N2  UNL     1       8.023  10.583  27.223  0.00  0.00    -0.322 N 
ATOM      3  C5  UNL     1       9.097  10.437  26.275  0.00  0.00    +0.126 A 
ATOM      4  N3  UNL     1      10.397  10.620  26.648  0.00  0.00    -0.221 NA
ATOM      5  C6  UNL     1      11.422  10.482  25.758  0.00  0.00    +0.223 A 
ATOM      6  N4  UNL     1      11.164  10.154  24.463  0.00  0.00    -0.240 NA
ATOM      7  C7  UNL     1       9.880   9.966  24.068  0.00  0.00    +0.049 A 
ATOM      8  C8  UNL     1       8.838  10.100  24.941  0.00  0.00    +0.014 A 
ATOM      9  C9  UNL     1       7.534   9.842  24.285  0.00  0.00    +0.041 C 
ATOM     10  C10 UNL     1       7.909   9.510  22.825  0.00  0.00    +0.011 C 
ATOM     11  C11 UNL     1       9.443   9.603  22.704  0.00  0.00    +0.056 C 
ATOM     12  H8  UNL     1       7.041  10.484  26.880  0.00  0.00    +0.148 HD
ENDBRANCH   1   2
BRANCH   1  13
ATOM     13  C2  UNL     1       8.179  12.330  28.993  0.00  0.00    +0.129 C 
BRANCH  13  16
ATOM     14  O1  UNL     1      10.196  13.475  30.604  0.00  0.00    -0.270 OA
ATOM     15  C1  UNL     1      10.390  13.499  29.358  0.00  0.00    +0.246 C 
ATOM     16  N1  UNL     1       9.373  13.002  28.475  0.00  0.00    -0.309 N 
ATOM     17  H1  UNL     1       9.463  13.165  27.447  0.00  0.00    +0.149 HD
BRANCH  15  18
ATOM     18  C12 UNL     1      11.658  14.060  28.832  0.00  0.00    +0.057 A 
ATOM     19  C13 UNL     1      12.718  14.412  29.688  0.00  0.00    +0.124 A 
ATOM     20  N5  UNL     1      13.867  14.931  29.180  0.00  0.00    -0.260 NA
ATOM     21  C14 UNL     1      14.036  15.127  27.846  0.00  0.00    +0.149 A 
ATOM     22  C15 UNL     1      13.011  14.805  26.958  0.00  0.00    +0.142 A 
ATOM     23  F1  UNL     1      13.170  15.004  25.627  0.00  0.00    -0.204 F 
ATOM     24  C16 UNL     1      11.818  14.274  27.453  0.00  0.00    +0.054 A 
ENDBRANCH  15  18
ENDBRANCH  13  16
ENDBRANCH   1  13
BRANCH   1  25
ATOM     25  C4  UNL     1       7.146  10.055  29.489  0.00  0.00    +0.179 C 
BRANCH  25  26
ATOM     26  O2  UNL     1       6.388   9.212  28.665  0.00  0.00    -0.393 OA
ATOM     27  H7  UNL     1       5.435   9.433  28.831  0.00  0.00    +0.209 HD
ENDBRANCH  25  26
ENDBRANCH   1  25
TORSDOF 6
ENDMDL
MODEL 4
REMARK VINA RESULT:    -5.704     16.303     18.114
REMARK INTER + INTRA:          -8.657
REMARK INTER:                  -8.044
REMARK INTRA:                  -0.613
REMARK UNBOUND:                -1.120
REMARK  Name = /home/qwerty/github/datacon2025hack/step_04_hit_selection/docking/ligands/lig_714.pdb
REMARK  6 active torsions:
REMARK  status: ('A' for Active; 'I' for Inactive)
REMARK    1  A    between atoms: C1_2  and  C12_18
REMARK    2  A    between atoms: N1_3  and  C2_4
REMARK    3  A    between atoms: C2_4  and  C3_5
REMARK    4  A    between atoms: C3_5  and  C4_6
REMARK    5  A    between atoms: C3_5  and  N2_8
REMARK    6  A    between atoms: C4_6  and  O2_7
REMARK                            x       y       z     vdW  Elec       q    Type
REMARK                         _______ _______ _______ _____ _____    ______ ____
ROOT
ATOM      1  C3  UNL     1      16.883  11.192  37.627  0.00  0.00    +0.114 C 
ENDROOT
BRANCH   1   2
ATOM      2  N2  UNL     1      15.512  10.922  37.169  0.00  0.00    -0.322 N 
ATOM      3  C5  UNL     1      14.559  11.925  36.771  0.00  0.00    +0.126 A 
ATOM      4  N3  UNL     1      14.841  13.254  36.892  0.00  0.00    -0.221 NA
ATOM      5  C6  UNL     1      13.945  14.212  36.516  0.00  0.00    +0.223 A 
ATOM      6  N4  UNL     1      12.735  13.855  36.005  0.00  0.00    -0.240 NA
ATOM      7  C7  UNL     1      12.431  12.539  35.875  0.00  0.00    +0.049 A 
ATOM      8  C8  UNL     1      13.311  11.564  36.246  0.00  0.00    +0.014 A 
ATOM      9  C9  UNL     1      12.763  10.208  36.005  0.00  0.00    +0.041 C 
ATOM     10  C10 UNL     1      11.366  10.470  35.406  0.00  0.00    +0.011 C 
ATOM     11  C11 UNL     1      11.167  11.998  35.335  0.00  0.00    +0.056 C 
ATOM     12  H8  UNL     1      15.231   9.918  37.107  0.00  0.00    +0.148 HD
ENDBRANCH   1   2
BRANCH   1  13
ATOM     13  C2  UNL     1      17.463  10.003  38.418  0.00  0.00    +0.129 C 
BRANCH  13  16
ATOM     14  O1  UNL     1      18.421   7.394  37.917  0.00  0.00    -0.270 OA
ATOM     15  C1  UNL     1      19.222   8.341  37.686  0.00  0.00    +0.246 C 
ATOM     16  N1  UNL     1      18.828   9.689  37.989  0.00  0.00    -0.309 N 
ATOM     17  H1  UNL     1      19.540  10.451  37.947  0.00  0.00    +0.149 HD
BRANCH  15  18
ATOM     18  C12 UNL     1      20.561   8.039  37.126  0.00  0.00    +0.057 A 
ATOM     19  C13 UNL     1      21.003   8.619  35.922  0.00  0.00    +0.124 A 
ATOM     20  N5  UNL     1      22.233   8.318  35.428  0.00  0.00    -0.260 NA
ATOM     21  C14 UNL     1      23.072   7.460  36.065  0.00  0.00    +0.149 A 
ATOM     22  C15 UNL     1      22.675   6.850  37.254  0.00  0.00    +0.142 A 
ATOM     23  F1  UNL     1      23.504   5.988  37.892  0.00  0.00    -0.204 F 
ATOM     24  C16 UNL     1      21.415   7.137  37.783  0.00  0.00    +0.054 A 
ENDBRANCH  15  18
ENDBRANCH  13  16
ENDBRANCH   1  13
BRANCH   1  25
ATOM     25  C4  UNL     1      17.798  11.595  36.458  0.00  0.00    +0.179 C 
BRANCH  25  26
ATOM     26  O2  UNL     1      18.695  12.597  36.855  0.00  0.00    -0.393 OA
ATOM     27  H7  UNL     1      18.338  13.454  36.502  0.00  0.00    +0.209 HD
ENDBRANCH  25  26
ENDBRANCH   1  25
TORSDOF 6
ENDMDL
MODEL 5
REMARK VINA RESULT:    -5.658     13.498     15.461
REMARK INTER + INTRA:          -8.597
REMARK INTER:                  -7.858
REMARK INTRA:                  -0.740
REMARK UNBOUND:                -1.120
REMARK  Name = /home/qwerty/github/datacon2025hack/step_04_hit_selection/docking/ligands/lig_714.pdb
REMARK  6 active torsions:
REMARK  status: ('A' for Active; 'I' for Inactive)
REMARK    1  A    between atoms: C1_2  and  C12_18
REMARK    2  A    between atoms: N1_3  and  C2_4
REMARK    3  A    between atoms: C2_4  and  C3_5
REMARK    4  A    between atoms: C3_5  and  C4_6
REMARK    5  A    between atoms: C3_5  and  N2_8
REMARK    6  A    between atoms: C4_6  and  O2_7
REMARK                            x       y       z     vdW  Elec       q    Type
REMARK                         _______ _______ _______ _____ _____    ______ ____
ROOT
ATOM      1  C3  UNL     1      21.154   2.761  32.282  0.00  0.00    +0.114 C 
ENDROOT
BRANCH   1   2
ATOM      2  N2  UNL     1      22.178   3.779  32.560  0.00  0.00    -0.322 N 
ATOM      3  C5  UNL     1      22.204   5.105  31.997  0.00  0.00    +0.126 A 
ATOM      4  N3  UNL     1      21.298   5.487  31.052  0.00  0.00    -0.221 NA
ATOM      5  C6  UNL     1      21.313   6.741  30.514  0.00  0.00    +0.223 A 
ATOM      6  N4  UNL     1      22.245   7.648  30.915  0.00  0.00    -0.240 NA
ATOM      7  C7  UNL     1      23.157   7.290  31.854  0.00  0.00    +0.049 A 
ATOM      8  C8  UNL     1      23.162   6.041  32.405  0.00  0.00    +0.014 A 
ATOM      9  C9  UNL     1      24.243   5.886  33.408  0.00  0.00    +0.041 C 
ATOM     10  C10 UNL     1      24.943   7.262  33.419  0.00  0.00    +0.011 C 
ATOM     11  C11 UNL     1      24.223   8.160  32.393  0.00  0.00    +0.056 C 
ATOM     12  H8  UNL     1      22.925   3.515  33.241  0.00  0.00    +0.148 HD
ENDBRANCH   1   2
BRANCH   1  13
ATOM     13  C2  UNL     1      21.650   1.717  31.263  0.00  0.00    +0.129 C 
BRANCH  13  16
ATOM     14  O1  UNL     1      22.114   0.192  28.932  0.00  0.00    -0.270 OA
ATOM     15  C1  UNL     1      21.849   1.413  28.761  0.00  0.00    +0.246 C 
ATOM     16  N1  UNL     1      21.676   2.265  29.905  0.00  0.00    -0.309 N 
ATOM     17  H1  UNL     1      21.615   3.298  29.768  0.00  0.00    +0.149 HD
BRANCH  15  18
ATOM     18  C12 UNL     1      21.743   1.947  27.382  0.00  0.00    +0.057 A 
ATOM     19  C13 UNL     1      20.792   1.450  26.472  0.00  0.00    +0.124 A 
ATOM     20  N5  UNL     1      20.722   1.953  25.211  0.00  0.00    -0.260 NA
ATOM     21  C14 UNL     1      21.554   2.939  24.784  0.00  0.00    +0.149 A 
ATOM     22  C15 UNL     1      22.521   3.456  25.645  0.00  0.00    +0.142 A 
ATOM     23  F1  UNL     1      23.359   4.435  25.225  0.00  0.00    -0.204 F 
ATOM     24  C16 UNL     1      22.619   2.955  26.945  0.00  0.00    +0.054 A 
ENDBRANCH  15  18
ENDBRANCH  13  16
ENDBRANCH   1  13
BRANCH   1  25
ATOM     25  C4  UNL     1      20.657   2.096  33.578  0.00  0.00    +0.179 C 
BRANCH  25  26
ATOM     26  O2  UNL     1      20.499   0.715  33.396  0.00  0.00    -0.393 OA
ATOM     27  H7  UNL     1      20.527   0.552  32.417  0.00  0.00    +0.209 HD
ENDBRANCH  25  26
ENDBRANCH   1  25
TORSDOF 6
ENDMDL
MODEL 6
REMARK VINA RESULT:    -5.653      4.810      7.348
REMARK INTER + INTRA:          -8.590
REMARK INTER:                  -7.628
REMARK INTRA:                  -0.963
REMARK UNBOUND:                -1.120
REMARK  Name = /home/qwerty/github/datacon2025hack/step_04_hit_selection/docking/ligands/lig_714.pdb
REMARK  6 active torsions:
REMARK  status: ('A' for Active; 'I' for Inactive)
REMARK    1  A    between atoms: C1_2  and  C12_18
REMARK    2  A    between atoms: N1_3  and  C2_4
REMARK    3  A    between atoms: C2_4  and  C3_5
REMARK    4  A    between atoms: C3_5  and  C4_6
REMARK    5  A    between atoms: C3_5  and  N2_8
REMARK    6  A    between atoms: C4_6  and  O2_7
REMARK                            x       y       z     vdW  Elec       q    Type
REMARK                         _______ _______ _______ _____ _____    ______ ____
ROOT
ATOM      1  C3  UNL     1      13.932   2.711  20.785  0.00  0.00    +0.114 C 
ENDROOT
BRANCH   1   2
ATOM      2  N2  UNL     1      12.600   3.328  20.703  0.00  0.00    -0.322 N 
ATOM      3  C5  UNL     1      11.479   2.998  21.545  0.00  0.00    +0.126 A 
ATOM      4  N3  UNL     1      11.552   1.978  22.448  0.00  0.00    -0.221 NA
ATOM      5  C6  UNL     1      10.497   1.658  23.251  0.00  0.00    +0.223 A 
ATOM      6  N4  UNL     1       9.334   2.362  23.167  0.00  0.00    -0.240 NA
ATOM      7  C7  UNL     1       9.238   3.381  22.276  0.00  0.00    +0.049 A 
ATOM      8  C8  UNL     1      10.280   3.717  21.461  0.00  0.00    +0.014 A 
ATOM      9  C9  UNL     1       9.944   4.861  20.581  0.00  0.00    +0.041 C 
ATOM     10  C10 UNL     1       8.493   5.217  20.969  0.00  0.00    +0.011 C 
ATOM     11  C11 UNL     1       8.050   4.236  22.072  0.00  0.00    +0.056 C 
ATOM     12  H8  UNL     1      12.480   4.082  19.990  0.00  0.00    +0.148 HD
ENDBRANCH   1   2
BRANCH   1  13
ATOM     13  C2  UNL     1      13.939   1.289  20.191  0.00  0.00    +0.129 C 
BRANCH  13  16
ATOM     14  O1  UNL     1      16.522   0.350  20.841  0.00  0.00    -0.270 OA
ATOM     15  C1  UNL     1      15.570  -0.095  21.539  0.00  0.00    +0.246 C 
ATOM     16  N1  UNL     1      14.222   0.281  21.216  0.00  0.00    -0.309 N 
ATOM     17  H1  UNL     1      13.429  -0.206  21.689  0.00  0.00    +0.149 HD
BRANCH  15  18
ATOM     18  C12 UNL     1      15.864  -1.015  22.664  0.00  0.00    +0.057 A 
ATOM     19  C13 UNL     1      17.086  -1.706  22.750  0.00  0.00    +0.124 A 
ATOM     20  N5  UNL     1      17.327  -2.549  23.789  0.00  0.00    -0.260 NA
ATOM     21  C14 UNL     1      16.410  -2.755  24.772  0.00  0.00    +0.149 A 
ATOM     22  C15 UNL     1      15.179  -2.102  24.725  0.00  0.00    +0.142 A 
ATOM     23  F1  UNL     1      14.258  -2.308  25.698  0.00  0.00    -0.204 F 
ATOM     24  C16 UNL     1      14.904  -1.234  23.666  0.00  0.00    +0.054 A 
ENDBRANCH  15  18
ENDBRANCH  13  16
ENDBRANCH   1  13
BRANCH   1  25
ATOM     25  C4  UNL     1      15.006   3.601  20.136  0.00  0.00    +0.179 C 
BRANCH  25  26
ATOM     26  O2  UNL     1      15.789   2.860  19.240  0.00  0.00    -0.393 OA
ATOM     27  H7  UNL     1      16.672   3.310  19.194  0.00  0.00    +0.209 HD
ENDBRANCH  25  26
ENDBRANCH   1  25
TORSDOF 6
ENDMDL
MODEL 7
REMARK VINA RESULT:    -5.565     10.879     13.934
REMARK INTER + INTRA:          -8.474
REMARK INTER:                  -7.838
REMARK INTRA:                  -0.636
REMARK UNBOUND:                -1.120
REMARK  Name = /home/qwerty/github/datacon2025hack/step_04_hit_selection/docking/ligands/lig_714.pdb
REMARK  6 active torsions:
REMARK  status: ('A' for Active; 'I' for Inactive)
REMARK    1  A    between atoms: C1_2  and  C12_18
REMARK    2  A    between atoms: N1_3  and  C2_4
REMARK    3  A    between atoms: C2_4  and  C3_5
REMARK    4  A    between atoms: C3_5  and  C4_6
REMARK    5  A    between atoms: C3_5  and  N2_8
REMARK    6  A    between atoms: C4_6  and  O2_7
REMARK                            x       y       z     vdW  Elec       q    Type
REMARK                         _______ _______ _______ _____ _____    ______ ____
ROOT
ATOM      1  C3  UNL     1      19.971   1.650  25.462  0.00  0.00    +0.114 C 
ENDROOT
BRANCH   1   2
ATOM      2  N2  UNL     1      19.185   0.418  25.298  0.00  0.00    -0.322 N 
ATOM      3  C5  UNL     1      17.814   0.248  25.706  0.00  0.00    +0.126 A 
ATOM      4  N3  UNL     1      17.155   1.227  26.390  0.00  0.00    -0.221 NA
ATOM      5  C6  UNL     1      15.856   1.077  26.779  0.00  0.00    +0.223 A 
ATOM      6  N4  UNL     1      15.182  -0.070  26.487  0.00  0.00    -0.240 NA
ATOM      7  C7  UNL     1      15.816  -1.058  25.807  0.00  0.00    +0.049 A 
ATOM      8  C8  UNL     1      17.116  -0.930  25.410  0.00  0.00    +0.014 A 
ATOM      9  C9  UNL     1      17.589  -2.131  24.681  0.00  0.00    +0.041 C 
ATOM     10  C10 UNL     1      16.363  -3.068  24.669  0.00  0.00    +0.011 C 
ATOM     11  C11 UNL     1      15.220  -2.351  25.414  0.00  0.00    +0.056 C 
ATOM     12  H8  UNL     1      19.663  -0.380  24.822  0.00  0.00    +0.148 HD
ENDBRANCH   1   2
BRANCH   1  13
ATOM     13  C2  UNL     1      21.148   1.449  26.434  0.00  0.00    +0.129 C 
BRANCH  13  16
ATOM     14  O1  UNL     1      22.767   0.717  28.630  0.00  0.00    -0.270 OA
ATOM     15  C1  UNL     1      21.598   1.108  28.898  0.00  0.00    +0.246 C 
ATOM     16  N1  UNL     1      20.695   1.425  27.827  0.00  0.00    -0.309 N 
ATOM     17  H1  UNL     1      19.687   1.595  28.041  0.00  0.00    +0.149 HD
BRANCH  15  18
ATOM     18  C12 UNL     1      21.175   1.212  30.316  0.00  0.00    +0.057 A 
ATOM     19  C13 UNL     1      21.695   2.204  31.168  0.00  0.00    +0.124 A 
ATOM     20  N5  UNL     1      21.295   2.272  32.466  0.00  0.00    -0.260 NA
ATOM     21  C14 UNL     1      20.392   1.398  32.984  0.00  0.00    +0.149 A 
ATOM     22  C15 UNL     1      19.857   0.390  32.183  0.00  0.00    +0.142 A 
ATOM     23  F1  UNL     1      18.961  -0.489  32.696  0.00  0.00    -0.204 F 
ATOM     24  C16 UNL     1      20.253   0.294  30.847  0.00  0.00    +0.054 A 
ENDBRANCH  15  18
ENDBRANCH  13  16
ENDBRANCH   1  13
BRANCH   1  25
ATOM     25  C4  UNL     1      20.443   2.200  24.105  0.00  0.00    +0.179 C 
BRANCH  25  26
ATOM     26  O2  UNL     1      21.756   2.683  24.197  0.00  0.00    -0.393 OA
ATOM     27  H7  UNL     1      22.138   2.309  25.034  0.00  0.00    +0.209 HD
ENDBRANCH  25  26
ENDBRANCH   1  25
TORSDOF 6
ENDMDL
MODEL 8
REMARK VINA RESULT:    -5.401      9.355     12.620
REMARK INTER + INTRA:          -8.257
REMARK INTER:                  -7.332
REMARK INTRA:                  -0.924
REMARK UNBOUND:                -1.120
REMARK  Name = /home/qwerty/github/datacon2025hack/step_04_hit_selection/docking/ligands/lig_714.pdb
REMARK  6 active torsions:
REMARK  status: ('A' for Active; 'I' for Inactive)
REMARK    1  A    between atoms: C1_2  and  C12_18
REMARK    2  A    between atoms: N1_3  and  C2_4
REMARK    3  A    between atoms: C2_4  and  C3_5
REMARK    4  A    between atoms: C3_5  and  C4_6
REMARK    5  A    between atoms: C3_5  and  N2_8
REMARK    6  A    between atoms: C4_6  and  O2_7
REMARK                            x       y       z     vdW  Elec       q    Type
REMARK                         _______ _______ _______ _____ _____    ______ ____
ROOT
ATOM      1  C3  UNL     1      12.170  14.006  29.707  0.00  0.00    +0.114 C 
ENDROOT
BRANCH   1   2
ATOM      2  N2  UNL     1      11.591  14.103  31.055  0.00  0.00    -0.322 N 
ATOM      3  C5  UNL     1      11.830  13.174  32.129  0.00  0.00    +0.126 A 
ATOM      4  N3  UNL     1      12.561  12.040  31.931  0.00  0.00    -0.221 NA
ATOM      5  C6  UNL     1      12.795  11.155  32.943  0.00  0.00    +0.223 A 
ATOM      6  N4  UNL     1      12.296  11.390  34.188  0.00  0.00    -0.240 NA
ATOM      7  C7  UNL     1      11.566  12.512  34.409  0.00  0.00    +0.049 A 
ATOM      8  C8  UNL     1      11.318  13.410  33.411  0.00  0.00    +0.014 A 
ATOM      9  C9  UNL     1      10.507  14.555  33.891  0.00  0.00    +0.041 C 
ATOM     10  C10 UNL     1      10.272  14.247  35.385  0.00  0.00    +0.011 C 
ATOM     11  C11 UNL     1      10.965  12.906  35.700  0.00  0.00    +0.056 C 
ATOM     12  H8  UNL     1      10.981  14.931  31.241  0.00  0.00    +0.148 HD
ENDBRANCH   1   2
BRANCH   1  13
ATOM     13  C2  UNL     1      11.092  14.133  28.613  0.00  0.00    +0.129 C 
BRANCH  13  16
ATOM     14  O1  UNL     1       8.671  13.334  29.828  0.00  0.00    -0.270 OA
ATOM     15  C1  UNL     1       9.157  12.547  28.970  0.00  0.00    +0.246 C 
ATOM     16  N1  UNL     1      10.424  12.853  28.368  0.00  0.00    -0.309 N 
ATOM     17  H1  UNL     1      10.899  12.131  27.782  0.00  0.00    +0.149 HD
BRANCH  15  18
ATOM     18  C12 UNL     1       8.418  11.310  28.620  0.00  0.00    +0.057 A 
ATOM     19  C13 UNL     1       8.381  10.824  27.300  0.00  0.00    +0.124 A 
ATOM     20  N5  UNL     1       7.689   9.691  27.005  0.00  0.00    -0.260 NA
ATOM     21  C14 UNL     1       7.017   8.993  27.958  0.00  0.00    +0.149 A 
ATOM     22  C15 UNL     1       7.013   9.441  29.278  0.00  0.00    +0.142 A 
ATOM     23  F1  UNL     1       6.339   8.754  30.232  0.00  0.00    -0.204 F 
ATOM     24  C16 UNL     1       7.712  10.604  29.609  0.00  0.00    +0.054 A 
ENDBRANCH  15  18
ENDBRANCH  13  16
ENDBRANCH   1  13
BRANCH   1  25
ATOM     25  C4  UNL     1      13.303  15.027  29.507  0.00  0.00    +0.179 C 
BRANCH  25  26
ATOM     26  O2  UNL     1      13.243  16.030  30.484  0.00  0.00    -0.393 OA
ATOM     27  H7  UNL     1      13.601  16.857  30.066  0.00  0.00    +0.209 HD
ENDBRANCH  25  26
ENDBRANCH   1  25
TORSDOF 6
ENDMDL
MODEL 9
REMARK VINA RESULT:    -5.370      3.205      8.052
REMARK INTER + INTRA:          -8.217
REMARK INTER:                  -7.648
REMARK INTRA:                  -0.568
REMARK UNBOUND:                -1.120
REMARK  Name = /home/qwerty/github/datacon2025hack/step_04_hit_selection/docking/ligands/lig_714.pdb
REMARK  6 active torsions:
REMARK  status: ('A' for Active; 'I' for Inactive)
REMARK    1  A    between atoms: C1_2  and  C12_18
REMARK    2  A    between atoms: N1_3  and  C2_4
REMARK    3  A    between atoms: C2_4  and  C3_5
REMARK    4  A    between atoms: C3_5  and  C4_6
REMARK    5  A    between atoms: C3_5  and  N2_8
REMARK    6  A    between atoms: C4_6  and  O2_7
REMARK                            x       y       z     vdW  Elec       q    Type
REMARK                         _______ _______ _______ _____ _____    ______ ____
ROOT
ATOM      1  C3  UNL     1      12.777   2.762  20.324  0.00  0.00    +0.114 C 
ENDROOT
BRANCH   1   2
ATOM      2  N2  UNL     1      13.259   1.776  21.302  0.00  0.00    -0.322 N 
ATOM      3  C5  UNL     1      14.376   0.888  21.104  0.00  0.00    +0.126 A 
ATOM      4  N3  UNL     1      15.027   0.830  19.907  0.00  0.00    -0.221 NA
ATOM      5  C6  UNL     1      16.087  -0.006  19.710  0.00  0.00    +0.223 A 
ATOM      6  N4  UNL     1      16.522  -0.810  20.719  0.00  0.00    -0.240 NA
ATOM      7  C7  UNL     1      15.890  -0.770  21.919  0.00  0.00    +0.049 A 
ATOM      8  C8  UNL     1      14.827   0.057  22.138  0.00  0.00    +0.014 A 
ATOM      9  C9  UNL     1      14.308  -0.068  23.521  0.00  0.00    +0.041 C 
ATOM     10  C10 UNL     1      15.226  -1.125  24.170  0.00  0.00    +0.011 C 
ATOM     11  C11 UNL     1      16.247  -1.575  23.106  0.00  0.00    +0.056 C 
ATOM     12  H8  UNL     1      12.759   1.747  22.219  0.00  0.00    +0.148 HD
ENDBRANCH   1   2
BRANCH   1  13
ATOM     13  C2  UNL     1      11.365   3.268  20.674  0.00  0.00    +0.129 C 
BRANCH  13  16
ATOM     14  O1  UNL     1       8.941   4.717  20.647  0.00  0.00    -0.270 OA
ATOM     15  C1  UNL     1      10.003   5.397  20.609  0.00  0.00    +0.246 C 
ATOM     16  N1  UNL     1      11.270   4.724  20.544  0.00  0.00    -0.309 N 
ATOM     17  H1  UNL     1      12.134   5.279  20.354  0.00  0.00    +0.149 HD
BRANCH  15  18
ATOM     18  C12 UNL     1       9.918   6.877  20.609  0.00  0.00    +0.057 A 
ATOM     19  C13 UNL     1       8.767   7.548  21.066  0.00  0.00    +0.124 A 
ATOM     20  N5  UNL     1       8.713   8.906  21.049  0.00  0.00    -0.260 NA
ATOM     21  C14 UNL     1       9.750   9.659  20.598  0.00  0.00    +0.149 A 
ATOM     22  C15 UNL     1      10.906   9.042  20.124  0.00  0.00    +0.142 A 
ATOM     23  F1  UNL     1      11.942   9.787  19.666  0.00  0.00    -0.204 F 
ATOM     24  C16 UNL     1      10.988   7.647  20.125  0.00  0.00    +0.054 A 
ENDBRANCH  15  18
ENDBRANCH  13  16
ENDBRANCH   1  13
BRANCH   1  25
ATOM     25  C4  UNL     1      13.772   3.923  20.159  0.00  0.00    +0.179 C 
BRANCH  25  26
ATOM     26  O2  UNL     1      13.721   4.437  18.856  0.00  0.00    -0.393 OA
ATOM     27  H7  UNL     1      12.983   3.962  18.391  0.00  0.00    +0.209 HD
ENDBRANCH  25  26
ENDBRANCH   1  25
TORSDOF 6
ENDMDL
