MODEL 1
REMARK VINA RESULT:    -6.369      0.000      0.000
REMARK INTER + INTRA:          -8.489
REMARK INTER:                  -7.858
REMARK INTRA:                  -0.631
REMARK UNBOUND:                -0.631
REMARK  Name = /home/qwerty/github/datacon2025hack/step_04_hit_selection/docking/ligands/lig_183.pdb
REMARK  6 active torsions:
REMARK  status: ('A' for Active; 'I' for Inactive)
REMARK    1  A    between atoms: C1_1  and  C2_2
REMARK    2  A    between atoms: C4_5  and  C5_7
REMARK    3  A    between atoms: N2_9  and  C7_10
REMARK    4  A    between atoms: C10_14  and  N4_15
REMARK    5  A    between atoms: C11_16  and  C12_18
REMARK    6  A    between atoms: C14_20  and  C15_21
REMARK                            x       y       z     vdW  Elec       q    Type
REMARK                         _______ _______ _______ _____ _____    ______ ____
ROOT
ATOM      1  N4  UNL     1      18.710  10.889  36.151  0.00  0.00    -0.305 N 
ATOM      2  C11 UNL     1      19.000   9.979  37.226  0.00  0.00    +0.261 C 
ATOM      3  O2  UNL     1      18.360  10.066  38.309  0.00  0.00    -0.269 OA
ATOM      4  H15 UNL     1      19.152  10.730  35.220  0.00  0.00    +0.149 HD
ENDROOT
BRANCH   1  12
ATOM      5  C1  UNL     1      18.659  12.806  34.050  0.00  0.00    +0.011 C 
ATOM      6  C2  UNL     1      18.028  13.194  35.400  0.00  0.00    +0.025 C 
ATOM      7  C3  UNL     1      16.647  13.824  35.187  0.00  0.00    +0.113 C 
ATOM      8  N1  UNL     1      15.687  12.753  35.417  0.00  0.00    -0.294 N 
ATOM      9  C4  UNL     1      14.272  12.927  35.206  0.00  0.00    +0.266 C 
ATOM     10  O1  UNL     1      13.827  14.080  34.957  0.00  0.00    -0.268 OA
ATOM     11  C9  UNL     1      16.315  11.557  35.960  0.00  0.00    +0.130 C 
ATOM     12  C10 UNL     1      17.742  11.982  36.308  0.00  0.00    +0.095 C 
BRANCH   9  13
ATOM     13  C5  UNL     1      13.315  11.801  35.266  0.00  0.00    +0.143 A 
ATOM     14  C6  UNL     1      12.642  11.383  36.397  0.00  0.00    +0.119 A 
ATOM     15  N2  UNL     1      11.855  10.354  36.044  0.00  0.00    -0.339 N 
ATOM     16  C7  UNL     1      10.899   9.656  36.892  0.00  0.00    +0.150 C 
ATOM     17  C8  UNL     1      12.036  10.183  34.722  0.00  0.00    +0.199 A 
ATOM     18  N3  UNL     1      12.932  11.053  34.209  0.00  0.00    -0.231 NA
ENDBRANCH   9  13
ENDBRANCH   1  12
BRANCH   2  19
ATOM     19  C12 UNL     1      20.039   8.940  37.090  0.00  0.00    +0.102 A 
ATOM     20  C13 UNL     1      20.949   8.815  36.052  0.00  0.00    +0.044 A 
ATOM     21  C14 UNL     1      21.724   7.713  36.361  0.00  0.00    +0.041 A 
ATOM     22  C16 UNL     1      21.266   7.215  37.564  0.00  0.00    +0.095 A 
ATOM     23  N9  UNL     1      20.241   7.967  38.003  0.00  0.00    -0.356 N 
ATOM     24  H19 UNL     1      19.707   7.818  38.888  0.00  0.00    +0.165 HD
BRANCH  21  25
ATOM     25  C15 UNL     1      22.834   7.179  35.563  0.00  0.00    +0.206 A 
ATOM     26  N5  UNL     1      23.346   7.781  34.472  0.00  0.00    -0.108 NA
ATOM     27  N6  UNL     1      24.314   6.977  34.065  0.00  0.00    -0.049 NA
ATOM     28  N7  UNL     1      24.382   5.935  34.876  0.00  0.00    -0.176 N 
ATOM     29  N8  UNL     1      23.470   6.022  35.829  0.00  0.00    -0.133 NA
ATOM     30  H17 UNL     1      25.062   5.150  34.776  0.00  0.00    +0.214 HD
ENDBRANCH  21  25
ENDBRANCH   2  19
TORSDOF 4
ENDMDL
MODEL 2
REMARK VINA RESULT:    -6.349      5.738      8.761
REMARK INTER + INTRA:          -8.464
REMARK INTER:                  -7.813
REMARK INTRA:                  -0.652
REMARK UNBOUND:                -0.631
REMARK  Name = /home/qwerty/github/datacon2025hack/step_04_hit_selection/docking/ligands/lig_183.pdb
REMARK  6 active torsions:
REMARK  status: ('A' for Active; 'I' for Inactive)
REMARK    1  A    between atoms: C1_1  and  C2_2
REMARK    2  A    between atoms: C4_5  and  C5_7
REMARK    3  A    between atoms: N2_9  and  C7_10
REMARK    4  A    between atoms: C10_14  and  N4_15
REMARK    5  A    between atoms: C11_16  and  C12_18
REMARK    6  A    between atoms: C14_20  and  C15_21
REMARK                            x       y       z     vdW  Elec       q    Type
REMARK                         _______ _______ _______ _____ _____    ______ ____
ROOT
ATOM      1  N4  UNL     1      12.290  14.003  31.713  0.00  0.00    -0.305 N 
ATOM      2  C11 UNL     1      11.954  14.317  33.075  0.00  0.00    +0.261 C 
ATOM      3  O2  UNL     1      10.768  14.628  33.371  0.00  0.00    -0.269 OA
ATOM      4  H15 UNL     1      13.239  13.626  31.499  0.00  0.00    +0.149 HD
ENDROOT
BRANCH   1  12
ATOM      5  C1  UNL     1      13.341  13.919  29.071  0.00  0.00    +0.011 C 
ATOM      6  C2  UNL     1      11.925  14.491  29.269  0.00  0.00    +0.025 C 
ATOM      7  C3  UNL     1      10.953  13.887  28.249  0.00  0.00    +0.113 C 
ATOM      8  N1  UNL     1      10.264  12.813  28.951  0.00  0.00    -0.294 N 
ATOM      9  C4  UNL     1       9.338  11.929  28.289  0.00  0.00    +0.266 C 
ATOM     10  O1  UNL     1       8.995  12.178  27.102  0.00  0.00    -0.268 OA
ATOM     11  C9  UNL     1      10.554  12.811  30.377  0.00  0.00    +0.130 C 
ATOM     12  C10 UNL     1      11.305  14.119  30.631  0.00  0.00    +0.095 C 
BRANCH   9  13
ATOM     13  C5  UNL     1       8.773  10.731  28.949  0.00  0.00    +0.143 A 
ATOM     14  C6  UNL     1       9.357   9.481  28.971  0.00  0.00    +0.119 A 
ATOM     15  N2  UNL     1       8.556   8.671  29.681  0.00  0.00    -0.339 N 
ATOM     16  C7  UNL     1       8.816   7.284  30.041  0.00  0.00    +0.150 C 
ATOM     17  C8  UNL     1       7.530   9.435  30.098  0.00  0.00    +0.199 A 
ATOM     18  N3  UNL     1       7.626  10.708  29.662  0.00  0.00    -0.231 NA
ENDBRANCH   9  13
ENDBRANCH   1  12
BRANCH   2  19
ATOM     19  C12 UNL     1      12.973  14.284  34.142  0.00  0.00    +0.102 A 
ATOM     20  C13 UNL     1      14.190  13.622  34.100  0.00  0.00    +0.044 A 
ATOM     21  C14 UNL     1      14.806  13.888  35.308  0.00  0.00    +0.041 A 
ATOM     22  C16 UNL     1      13.953  14.696  36.033  0.00  0.00    +0.095 A 
ATOM     23  N9  UNL     1      12.840  14.935  35.317  0.00  0.00    -0.356 N 
ATOM     24  H19 UNL     1      12.029  15.517  35.623  0.00  0.00    +0.165 HD
BRANCH  21  25
ATOM     25  C15 UNL     1      16.125  13.408  35.737  0.00  0.00    +0.206 A 
ATOM     26  N5  UNL     1      17.153  13.164  34.903  0.00  0.00    -0.108 NA
ATOM     27  N6  UNL     1      18.136  12.755  35.688  0.00  0.00    -0.049 NA
ATOM     28  N7  UNL     1      17.717  12.753  36.942  0.00  0.00    -0.176 N 
ATOM     29  N8  UNL     1      16.460  13.156  37.017  0.00  0.00    -0.133 NA
ATOM     30  H17 UNL     1      18.299  12.471  37.760  0.00  0.00    +0.214 HD
ENDBRANCH  21  25
ENDBRANCH   2  19
TORSDOF 4
ENDMDL
MODEL 3
REMARK VINA RESULT:    -6.314     15.429     18.136
REMARK INTER + INTRA:          -8.421
REMARK INTER:                  -7.780
REMARK INTRA:                  -0.642
REMARK UNBOUND:                -0.631
REMARK  Name = /home/qwerty/github/datacon2025hack/step_04_hit_selection/docking/ligands/lig_183.pdb
REMARK  6 active torsions:
REMARK  status: ('A' for Active; 'I' for Inactive)
REMARK    1  A    between atoms: C1_1  and  C2_2
REMARK    2  A    between atoms: C4_5  and  C5_7
REMARK    3  A    between atoms: N2_9  and  C7_10
REMARK    4  A    between atoms: C10_14  and  N4_15
REMARK    5  A    between atoms: C11_16  and  C12_18
REMARK    6  A    between atoms: C14_20  and  C15_21
REMARK                            x       y       z     vdW  Elec       q    Type
REMARK                         _______ _______ _______ _____ _____    ______ ____
ROOT
ATOM      1  N4  UNL     1      13.455   3.238  20.697  0.00  0.00    -0.305 N 
ATOM      2  C11 UNL     1      12.066   3.611  20.723  0.00  0.00    +0.261 C 
ATOM      3  O2  UNL     1      11.180   2.717  20.803  0.00  0.00    -0.269 OA
ATOM      4  H15 UNL     1      14.181   3.984  20.758  0.00  0.00    +0.149 HD
ENDROOT
BRANCH   1  12
ATOM      5  C1  UNL     1      16.148   2.762  19.916  0.00  0.00    +0.011 C 
ATOM      6  C2  UNL     1      15.160   1.583  19.861  0.00  0.00    +0.025 C 
ATOM      7  C3  UNL     1      15.770   0.339  20.516  0.00  0.00    +0.113 C 
ATOM      8  N1  UNL     1      15.232   0.302  21.869  0.00  0.00    -0.294 N 
ATOM      9  C4  UNL     1      15.658  -0.672  22.842  0.00  0.00    +0.266 C 
ATOM     10  O1  UNL     1      16.408  -1.616  22.475  0.00  0.00    -0.268 OA
ATOM     11  C9  UNL     1      14.178   1.286  22.070  0.00  0.00    +0.130 C 
ATOM     12  C10 UNL     1      13.873   1.831  20.674  0.00  0.00    +0.095 C 
BRANCH   9  13
ATOM     13  C5  UNL     1      15.251  -0.606  24.263  0.00  0.00    +0.143 A 
ATOM     14  C6  UNL     1      14.336  -1.441  24.871  0.00  0.00    +0.119 A 
ATOM     15  N2  UNL     1      14.254  -1.081  26.162  0.00  0.00    -0.339 N 
ATOM     16  C7  UNL     1      13.480  -1.741  27.205  0.00  0.00    +0.150 C 
ATOM     17  C8  UNL     1      15.128  -0.070  26.323  0.00  0.00    +0.199 A 
ATOM     18  N3  UNL     1      15.757   0.253  25.174  0.00  0.00    -0.231 NA
ENDBRANCH   9  13
ENDBRANCH   1  12
BRANCH   2  19
ATOM     19  C12 UNL     1      11.652   5.026  20.655  0.00  0.00    +0.102 A 
ATOM     20  C13 UNL     1      12.428   6.128  20.978  0.00  0.00    +0.044 A 
ATOM     21  C14 UNL     1      11.630   7.233  20.747  0.00  0.00    +0.041 A 
ATOM     22  C16 UNL     1      10.411   6.768  20.293  0.00  0.00    +0.095 A 
ATOM     23  N9  UNL     1      10.433   5.424  20.237  0.00  0.00    -0.356 N 
ATOM     24  H19 UNL     1       9.645   4.812  19.927  0.00  0.00    +0.165 HD
BRANCH  21  25
ATOM     25  C15 UNL     1      12.009   8.637  20.940  0.00  0.00    +0.206 A 
ATOM     26  N5  UNL     1      11.665   9.639  20.107  0.00  0.00    -0.108 NA
ATOM     27  N6  UNL     1      12.202  10.722  20.642  0.00  0.00    -0.049 NA
ATOM     28  N7  UNL     1      12.842  10.387  21.750  0.00  0.00    -0.176 N 
ATOM     29  N8  UNL     1      12.747   9.088  21.972  0.00  0.00    -0.133 NA
ATOM     30  H17 UNL     1      13.354  11.058  22.364  0.00  0.00    +0.214 HD
ENDBRANCH  21  25
ENDBRANCH   2  19
TORSDOF 4
ENDMDL
MODEL 4
REMARK VINA RESULT:    -6.234      2.827      9.453
REMARK INTER + INTRA:          -8.323
REMARK INTER:                  -7.789
REMARK INTRA:                  -0.533
REMARK UNBOUND:                -0.631
REMARK  Name = /home/qwerty/github/datacon2025hack/step_04_hit_selection/docking/ligands/lig_183.pdb
REMARK  6 active torsions:
REMARK  status: ('A' for Active; 'I' for Inactive)
REMARK    1  A    between atoms: C1_1  and  C2_2
REMARK    2  A    between atoms: C4_5  and  C5_7
REMARK    3  A    between atoms: N2_9  and  C7_10
REMARK    4  A    between atoms: C10_14  and  N4_15
REMARK    5  A    between atoms: C11_16  and  C12_18
REMARK    6  A    between atoms: C14_20  and  C15_21
REMARK                            x       y       z     vdW  Elec       q    Type
REMARK                         _______ _______ _______ _____ _____    ______ ____
ROOT
ATOM      1  N4  UNL     1      19.401   9.583  36.834  0.00  0.00    -0.305 N 
ATOM      2  C11 UNL     1      19.130  10.978  36.621  0.00  0.00    +0.261 C 
ATOM      3  O2  UNL     1      20.081  11.770  36.375  0.00  0.00    -0.269 OA
ATOM      4  H15 UNL     1      18.602   8.917  36.910  0.00  0.00    +0.149 HD
ENDROOT
BRANCH   1  12
ATOM      5  C1  UNL     1      19.658   6.813  37.428  0.00  0.00    +0.011 C 
ATOM      6  C2  UNL     1      20.904   7.705  37.582  0.00  0.00    +0.025 C 
ATOM      7  C3  UNL     1      22.120   7.052  36.915  0.00  0.00    +0.113 C 
ATOM      8  N1  UNL     1      22.234   7.680  35.606  0.00  0.00    -0.294 N 
ATOM      9  C4  UNL     1      23.203   7.254  34.629  0.00  0.00    +0.266 C 
ATOM     10  O1  UNL     1      24.080   6.412  34.962  0.00  0.00    -0.268 OA
ATOM     11  C9  UNL     1      21.336   8.816  35.459  0.00  0.00    +0.130 C 
ATOM     12  C10 UNL     1      20.774   9.061  36.860  0.00  0.00    +0.095 C 
BRANCH   9  13
ATOM     13  C5  UNL     1      23.208   7.764  33.240  0.00  0.00    +0.143 A 
ATOM     14  C6  UNL     1      23.846   8.911  32.812  0.00  0.00    +0.119 A 
ATOM     15  N2  UNL     1      23.638   9.023  31.490  0.00  0.00    -0.339 N 
ATOM     16  C7  UNL     1      24.197  10.031  30.601  0.00  0.00    +0.150 C 
ATOM     17  C8  UNL     1      22.914   7.945  31.136  0.00  0.00    +0.199 A 
ATOM     18  N3  UNL     1      22.627   7.149  32.187  0.00  0.00    -0.231 NA
ENDBRANCH   9  13
ENDBRANCH   1  12
BRANCH   2  19
ATOM     19  C12 UNL     1      17.754  11.510  36.685  0.00  0.00    +0.102 A 
ATOM     20  C13 UNL     1      17.335  12.765  36.273  0.00  0.00    +0.044 A 
ATOM     21  C14 UNL     1      15.975  12.805  36.512  0.00  0.00    +0.041 A 
ATOM     22  C16 UNL     1      15.618  11.585  37.051  0.00  0.00    +0.095 A 
ATOM     23  N9  UNL     1      16.705  10.801  37.151  0.00  0.00    -0.356 N 
ATOM     24  H19 UNL     1      16.724   9.825  37.523  0.00  0.00    +0.165 HD
BRANCH  21  25
ATOM     25  C15 UNL     1      15.076  13.932  36.236  0.00  0.00    +0.206 A 
ATOM     26  N5  UNL     1      15.366  15.220  36.503  0.00  0.00    -0.108 NA
ATOM     27  N6  UNL     1      14.302  15.896  36.105  0.00  0.00    -0.049 NA
ATOM     28  N7  UNL     1      13.409  15.052  35.617  0.00  0.00    -0.176 N 
ATOM     29  N8  UNL     1      13.854  13.809  35.681  0.00  0.00    -0.133 NA
ATOM     30  H17 UNL     1      12.478  15.329  35.235  0.00  0.00    +0.214 HD
ENDBRANCH  21  25
ENDBRANCH   2  19
TORSDOF 4
ENDMDL
MODEL 5
REMARK VINA RESULT:    -6.222      2.616      9.265
REMARK INTER + INTRA:          -8.308
REMARK INTER:                  -7.652
REMARK INTRA:                  -0.656
REMARK UNBOUND:                -0.631
REMARK  Name = /home/qwerty/github/datacon2025hack/step_04_hit_selection/docking/ligands/lig_183.pdb
REMARK  6 active torsions:
REMARK  status: ('A' for Active; 'I' for Inactive)
REMARK    1  A    between atoms: C1_1  and  C2_2
REMARK    2  A    between atoms: C4_5  and  C5_7
REMARK    3  A    between atoms: N2_9  and  C7_10
REMARK    4  A    between atoms: C10_14  and  N4_15
REMARK    5  A    between atoms: C11_16  and  C12_18
REMARK    6  A    between atoms: C14_20  and  C15_21
REMARK                            x       y       z     vdW  Elec       q    Type
REMARK                         _______ _______ _______ _____ _____    ______ ____
ROOT
ATOM      1  N4  UNL     1      19.080   9.346  36.824  0.00  0.00    -0.305 N 
ATOM      2  C11 UNL     1      18.671  10.724  36.862  0.00  0.00    +0.261 C 
ATOM      3  O2  UNL     1      19.543  11.636  36.855  0.00  0.00    -0.269 OA
ATOM      4  H15 UNL     1      18.355   8.606  36.703  0.00  0.00    +0.149 HD
ENDROOT
BRANCH   1  12
ATOM      5  C1  UNL     1      19.604   6.619  37.440  0.00  0.00    +0.011 C 
ATOM      6  C2  UNL     1      20.754   7.630  37.598  0.00  0.00    +0.025 C 
ATOM      7  C3  UNL     1      22.033   7.097  36.945  0.00  0.00    +0.113 C 
ATOM      8  N1  UNL     1      22.097   7.725  35.633  0.00  0.00    -0.294 N 
ATOM      9  C4  UNL     1      23.112   7.390  34.666  0.00  0.00    +0.266 C 
ATOM     10  O1  UNL     1      24.064   6.641  35.012  0.00  0.00    -0.268 OA
ATOM     11  C9  UNL     1      21.092   8.765  35.470  0.00  0.00    +0.130 C 
ATOM     12  C10 UNL     1      20.496   8.962  36.865  0.00  0.00    +0.095 C 
BRANCH   9  13
ATOM     13  C5  UNL     1      23.079   7.889  33.274  0.00  0.00    +0.143 A 
ATOM     14  C6  UNL     1      23.724   9.020  32.815  0.00  0.00    +0.119 A 
ATOM     15  N2  UNL     1      23.472   9.127  31.501  0.00  0.00    -0.339 N 
ATOM     16  C7  UNL     1      24.020  10.117  30.584  0.00  0.00    +0.150 C 
ATOM     17  C8  UNL     1      22.715   8.061  31.180  0.00  0.00    +0.199 A 
ATOM     18  N3  UNL     1      22.449   7.279  32.247  0.00  0.00    -0.231 NA
ENDBRANCH   9  13
ENDBRANCH   1  12
BRANCH   2  19
ATOM     19  C12 UNL     1      17.244  11.098  36.911  0.00  0.00    +0.102 A 
ATOM     20  C13 UNL     1      16.167  10.282  36.606  0.00  0.00    +0.044 A 
ATOM     21  C14 UNL     1      15.038  11.054  36.809  0.00  0.00    +0.041 A 
ATOM     22  C16 UNL     1      15.465  12.298  37.229  0.00  0.00    +0.095 A 
ATOM     23  N9  UNL     1      16.809  12.317  37.291  0.00  0.00    -0.356 N 
ATOM     24  H19 UNL     1      17.396  13.131  37.581  0.00  0.00    +0.165 HD
BRANCH  21  25
ATOM     25  C15 UNL     1      13.647  10.628  36.621  0.00  0.00    +0.206 A 
ATOM     26  N5  UNL     1      13.265   9.604  35.834  0.00  0.00    -0.108 NA
ATOM     27  N6  UNL     1      11.948   9.562  35.949  0.00  0.00    -0.049 NA
ATOM     28  N7  UNL     1      11.554  10.519  36.771  0.00  0.00    -0.176 N 
ATOM     29  N8  UNL     1      12.589  11.212  37.215  0.00  0.00    -0.133 NA
ATOM     30  H17 UNL     1      10.561  10.704  37.034  0.00  0.00    +0.214 HD
ENDBRANCH  21  25
ENDBRANCH   2  19
TORSDOF 4
ENDMDL
MODEL 6
REMARK VINA RESULT:    -6.165     15.452     17.111
REMARK INTER + INTRA:          -8.237
REMARK INTER:                  -7.768
REMARK INTRA:                  -0.470
REMARK UNBOUND:                -0.631
REMARK  Name = /home/qwerty/github/datacon2025hack/step_04_hit_selection/docking/ligands/lig_183.pdb
REMARK  6 active torsions:
REMARK  status: ('A' for Active; 'I' for Inactive)
REMARK    1  A    between atoms: C1_1  and  C2_2
REMARK    2  A    between atoms: C4_5  and  C5_7
REMARK    3  A    between atoms: N2_9  and  C7_10
REMARK    4  A    between atoms: C10_14  and  N4_15
REMARK    5  A    between atoms: C11_16  and  C12_18
REMARK    6  A    between atoms: C14_20  and  C15_21
REMARK                            x       y       z     vdW  Elec       q    Type
REMARK                         _______ _______ _______ _____ _____    ______ ____
ROOT
ATOM      1  N4  UNL     1      11.890   3.442  20.867  0.00  0.00    -0.305 N 
ATOM      2  C11 UNL     1      13.030   3.393  19.993  0.00  0.00    +0.261 C 
ATOM      3  O2  UNL     1      13.077   4.148  18.983  0.00  0.00    -0.269 OA
ATOM      4  H15 UNL     1      11.915   2.909  21.764  0.00  0.00    +0.149 HD
ENDROOT
BRANCH   1  12
ATOM      5  C1  UNL     1       9.672   3.159  22.626  0.00  0.00    +0.011 C 
ATOM      6  C2  UNL     1       9.430   3.819  21.255  0.00  0.00    +0.025 C 
ATOM      7  C3  UNL     1       8.615   5.107  21.416  0.00  0.00    +0.113 C 
ATOM      8  N1  UNL     1       9.586   6.192  21.402  0.00  0.00    -0.294 N 
ATOM      9  C4  UNL     1       9.214   7.564  21.636  0.00  0.00    +0.266 C 
ATOM     10  O1  UNL     1       7.992   7.863  21.710  0.00  0.00    -0.268 OA
ATOM     11  C9  UNL     1      10.920   5.733  21.039  0.00  0.00    +0.130 C 
ATOM     12  C10 UNL     1      10.728   4.290  20.571  0.00  0.00    +0.095 C 
BRANCH   9  13
ATOM     13  C5  UNL     1      10.214   8.642  21.800  0.00  0.00    +0.143 A 
ATOM     14  C6  UNL     1      11.017   9.145  20.796  0.00  0.00    +0.119 A 
ATOM     15  N2  UNL     1      11.770  10.121  21.329  0.00  0.00    -0.339 N 
ATOM     16  C7  UNL     1      12.700  10.991  20.623  0.00  0.00    +0.150 C 
ATOM     17  C8  UNL     1      11.398  10.214  22.619  0.00  0.00    +0.199 A 
ATOM     18  N3  UNL     1      10.445   9.317  22.946  0.00  0.00    -0.231 NA
ENDBRANCH   9  13
ENDBRANCH   1  12
BRANCH   2  19
ATOM     19  C12 UNL     1      14.154   2.472  20.251  0.00  0.00    +0.102 A 
ATOM     20  C13 UNL     1      14.198   1.474  21.213  0.00  0.00    +0.044 A 
ATOM     21  C14 UNL     1      15.432   0.869  21.071  0.00  0.00    +0.041 A 
ATOM     22  C16 UNL     1      16.086   1.510  20.038  0.00  0.00    +0.095 A 
ATOM     23  N9  UNL     1      15.302   2.483  19.542  0.00  0.00    -0.356 N 
ATOM     24  H19 UNL     1      15.546   3.124  18.754  0.00  0.00    +0.165 HD
BRANCH  21  25
ATOM     25  C15 UNL     1      15.948  -0.252  21.866  0.00  0.00    +0.206 A 
ATOM     26  N5  UNL     1      15.298  -0.809  22.906  0.00  0.00    -0.108 NA
ATOM     27  N6  UNL     1      16.100  -1.771  23.330  0.00  0.00    -0.049 NA
ATOM     28  N7  UNL     1      17.186  -1.794  22.576  0.00  0.00    -0.176 N 
ATOM     29  N8  UNL     1      17.131  -0.857  21.645  0.00  0.00    -0.133 NA
ATOM     30  H17 UNL     1      17.980  -2.460  22.700  0.00  0.00    +0.214 HD
ENDBRANCH  21  25
ENDBRANCH   2  19
TORSDOF 4
ENDMDL
MODEL 7
REMARK VINA RESULT:    -6.156     11.443     15.206
REMARK INTER + INTRA:          -8.227
REMARK INTER:                  -7.564
REMARK INTRA:                  -0.662
REMARK UNBOUND:                -0.631
REMARK  Name = /home/qwerty/github/datacon2025hack/step_04_hit_selection/docking/ligands/lig_183.pdb
REMARK  6 active torsions:
REMARK  status: ('A' for Active; 'I' for Inactive)
REMARK    1  A    between atoms: C1_1  and  C2_2
REMARK    2  A    between atoms: C4_5  and  C5_7
REMARK    3  A    between atoms: N2_9  and  C7_10
REMARK    4  A    between atoms: C10_14  and  N4_15
REMARK    5  A    between atoms: C11_16  and  C12_18
REMARK    6  A    between atoms: C14_20  and  C15_21
REMARK                            x       y       z     vdW  Elec       q    Type
REMARK                         _______ _______ _______ _____ _____    ______ ____
ROOT
ATOM      1  N4  UNL     1       8.488   8.443  24.671  0.00  0.00    -0.305 N 
ATOM      2  C11 UNL     1       8.344   8.728  23.269  0.00  0.00    +0.261 C 
ATOM      3  O2  UNL     1       7.629   9.698  22.897  0.00  0.00    -0.269 OA
ATOM      4  H15 UNL     1       9.178   7.722  24.973  0.00  0.00    +0.149 HD
ENDROOT
BRANCH   1  12
ATOM      5  C1  UNL     1       8.152   7.143  27.178  0.00  0.00    +0.011 C 
ATOM      6  C2  UNL     1       7.230   8.333  26.850  0.00  0.00    +0.025 C 
ATOM      7  C3  UNL     1       7.165   9.305  28.033  0.00  0.00    +0.113 C 
ATOM      8  N1  UNL     1       8.108  10.369  27.720  0.00  0.00    -0.294 N 
ATOM      9  C4  UNL     1       8.412  11.429  28.649  0.00  0.00    +0.266 C 
ATOM     10  O1  UNL     1       7.736  11.527  29.708  0.00  0.00    -0.268 OA
ATOM     11  C9  UNL     1       8.612  10.276  26.357  0.00  0.00    +0.130 C 
ATOM     12  C10 UNL     1       7.752   9.203  25.689  0.00  0.00    +0.095 C 
BRANCH   9  13
ATOM     13  C5  UNL     1       9.495  12.408  28.410  0.00  0.00    +0.143 A 
ATOM     14  C6  UNL     1      10.828  12.215  28.712  0.00  0.00    +0.119 A 
ATOM     15  N2  UNL     1      11.495  13.315  28.329  0.00  0.00    -0.339 N 
ATOM     16  C7  UNL     1      12.936  13.522  28.372  0.00  0.00    +0.150 C 
ATOM     17  C8  UNL     1      10.577  14.135  27.783  0.00  0.00    +0.199 A 
ATOM     18  N3  UNL     1       9.334  13.612  27.819  0.00  0.00    -0.231 NA
ENDBRANCH   9  13
ENDBRANCH   1  12
BRANCH   2  19
ATOM     19  C12 UNL     1       9.018   7.902  22.247  0.00  0.00    +0.102 A 
ATOM     20  C13 UNL     1       9.541   6.631  22.428  0.00  0.00    +0.044 A 
ATOM     21  C14 UNL     1      10.053   6.256  21.200  0.00  0.00    +0.041 A 
ATOM     22  C16 UNL     1       9.823   7.299  20.325  0.00  0.00    +0.095 A 
ATOM     23  N9  UNL     1       9.191   8.297  20.969  0.00  0.00    -0.356 N 
ATOM     24  H19 UNL     1       8.893   9.205  20.547  0.00  0.00    +0.165 HD
BRANCH  21  25
ATOM     25  C15 UNL     1      10.711   4.983  20.884  0.00  0.00    +0.206 A 
ATOM     26  N5  UNL     1      11.971   4.874  20.418  0.00  0.00    -0.108 NA
ATOM     27  N6  UNL     1      12.164   3.574  20.270  0.00  0.00    -0.049 NA
ATOM     28  N7  UNL     1      11.069   2.928  20.632  0.00  0.00    -0.176 N 
ATOM     29  N8  UNL     1      10.132   3.775  21.023  0.00  0.00    -0.133 NA
ATOM     30  H17 UNL     1      10.958   1.891  20.610  0.00  0.00    +0.214 HD
ENDBRANCH  21  25
ENDBRANCH   2  19
TORSDOF 4
ENDMDL
MODEL 8
REMARK VINA RESULT:    -6.005      5.231      6.984
REMARK INTER + INTRA:          -8.040
REMARK INTER:                  -7.481
REMARK INTRA:                  -0.559
REMARK UNBOUND:                -0.631
REMARK  Name = /home/qwerty/github/datacon2025hack/step_04_hit_selection/docking/ligands/lig_183.pdb
REMARK  6 active torsions:
REMARK  status: ('A' for Active; 'I' for Inactive)
REMARK    1  A    between atoms: C1_1  and  C2_2
REMARK    2  A    between atoms: C4_5  and  C5_7
REMARK    3  A    between atoms: N2_9  and  C7_10
REMARK    4  A    between atoms: C10_14  and  N4_15
REMARK    5  A    between atoms: C11_16  and  C12_18
REMARK    6  A    between atoms: C14_20  and  C15_21
REMARK                            x       y       z     vdW  Elec       q    Type
REMARK                         _______ _______ _______ _____ _____    ______ ____
ROOT
ATOM      1  N4  UNL     1      19.932  12.944  33.364  0.00  0.00    -0.305 N 
ATOM      2  C11 UNL     1      19.809  12.894  31.932  0.00  0.00    +0.261 C 
ATOM      3  O2  UNL     1      18.951  12.136  31.403  0.00  0.00    -0.269 OA
ATOM      4  H15 UNL     1      20.552  13.663  33.795  0.00  0.00    +0.149 HD
ENDROOT
BRANCH   1  12
ATOM      5  C1  UNL     1      20.873  12.677  36.035  0.00  0.00    +0.011 C 
ATOM      6  C2  UNL     1      19.889  11.617  35.504  0.00  0.00    +0.025 C 
ATOM      7  C3  UNL     1      18.768  11.367  36.520  0.00  0.00    +0.113 C 
ATOM      8  N1  UNL     1      17.641  12.169  36.066  0.00  0.00    -0.294 N 
ATOM      9  C4  UNL     1      16.421  12.283  36.825  0.00  0.00    +0.266 C 
ATOM     10  O1  UNL     1      16.261  11.554  37.841  0.00  0.00    -0.268 OA
ATOM     11  C9  UNL     1      17.866  12.741  34.747  0.00  0.00    +0.130 C 
ATOM     12  C10 UNL     1      19.139  12.066  34.234  0.00  0.00    +0.095 C 
BRANCH   9  13
ATOM     13  C5  UNL     1      15.345  13.232  36.462  0.00  0.00    +0.143 A 
ATOM     14  C6  UNL     1      14.054  12.882  36.122  0.00  0.00    +0.119 A 
ATOM     15  N2  UNL     1      13.376  14.016  35.882  0.00  0.00    -0.339 N 
ATOM     16  C7  UNL     1      11.957  14.137  35.577  0.00  0.00    +0.150 C 
ATOM     17  C8  UNL     1      14.243  15.021  36.104  0.00  0.00    +0.199 A 
ATOM     18  N3  UNL     1      15.466  14.577  36.459  0.00  0.00    -0.231 NA
ENDBRANCH   9  13
ENDBRANCH   1  12
BRANCH   2  19
ATOM     19  C12 UNL     1      20.673  13.715  31.061  0.00  0.00    +0.102 A 
ATOM     20  C13 UNL     1      21.200  13.342  29.834  0.00  0.00    +0.044 A 
ATOM     21  C14 UNL     1      21.925  14.430  29.388  0.00  0.00    +0.041 A 
ATOM     22  C16 UNL     1      21.812  15.418  30.347  0.00  0.00    +0.095 A 
ATOM     23  N9  UNL     1      21.047  14.976  31.361  0.00  0.00    -0.356 N 
ATOM     24  H19 UNL     1      20.796  15.517  32.219  0.00  0.00    +0.165 HD
BRANCH  21  25
ATOM     25  C15 UNL     1      22.669  14.523  28.127  0.00  0.00    +0.206 A 
ATOM     26  N5  UNL     1      22.440  15.449  27.176  0.00  0.00    -0.108 NA
ATOM     27  N6  UNL     1      23.317  15.179  26.223  0.00  0.00    -0.049 NA
ATOM     28  N7  UNL     1      24.042  14.135  26.585  0.00  0.00    -0.176 N 
ATOM     29  N8  UNL     1      23.668  13.692  27.773  0.00  0.00    -0.133 NA
ATOM     30  H17 UNL     1      24.806  13.716  26.011  0.00  0.00    +0.214 HD
ENDBRANCH  21  25
ENDBRANCH   2  19
TORSDOF 4
ENDMDL
MODEL 9
REMARK VINA RESULT:    -6.000      6.124     10.438
REMARK INTER + INTRA:          -8.034
REMARK INTER:                  -7.467
REMARK INTRA:                  -0.567
REMARK UNBOUND:                -0.631
REMARK  Name = /home/qwerty/github/datacon2025hack/step_04_hit_selection/docking/ligands/lig_183.pdb
REMARK  6 active torsions:
REMARK  status: ('A' for Active; 'I' for Inactive)
REMARK    1  A    between atoms: C1_1  and  C2_2
REMARK    2  A    between atoms: C4_5  and  C5_7
REMARK    3  A    between atoms: N2_9  and  C7_10
REMARK    4  A    between atoms: C10_14  and  N4_15
REMARK    5  A    between atoms: C11_16  and  C12_18
REMARK    6  A    between atoms: C14_20  and  C15_21
REMARK                            x       y       z     vdW  Elec       q    Type
REMARK                         _______ _______ _______ _____ _____    ______ ____
ROOT
ATOM      1  N4  UNL     1      21.073   4.762  33.927  0.00  0.00    -0.305 N 
ATOM      2  C11 UNL     1      22.041   5.750  34.319  0.00  0.00    +0.261 C 
ATOM      3  O2  UNL     1      23.266   5.552  34.093  0.00  0.00    -0.269 OA
ATOM      4  H15 UNL     1      20.058   4.989  34.002  0.00  0.00    +0.149 HD
ENDROOT
BRANCH   1  12
ATOM      5  C1  UNL     1      19.173   2.655  34.130  0.00  0.00    +0.011 C 
ATOM      6  C2  UNL     1      20.637   2.283  33.831  0.00  0.00    +0.025 C 
ATOM      7  C3  UNL     1      20.712   1.285  32.671  0.00  0.00    +0.113 C 
ATOM      8  N1  UNL     1      21.014   2.078  31.488  0.00  0.00    -0.294 N 
ATOM      9  C4  UNL     1      21.060   1.506  30.166  0.00  0.00    +0.266 C 
ATOM     10  O1  UNL     1      20.983   0.255  30.038  0.00  0.00    -0.268 OA
ATOM     11  C9  UNL     1      21.344   3.457  31.818  0.00  0.00    +0.130 C 
ATOM     12  C10 UNL     1      21.480   3.478  33.342  0.00  0.00    +0.095 C 
BRANCH   9  13
ATOM     13  C5  UNL     1      21.189   2.333  28.946  0.00  0.00    +0.143 A 
ATOM     14  C6  UNL     1      22.184   2.207  27.997  0.00  0.00    +0.119 A 
ATOM     15  N2  UNL     1      21.947   3.115  27.037  0.00  0.00    -0.339 N 
ATOM     16  C7  UNL     1      22.687   3.285  25.795  0.00  0.00    +0.150 C 
ATOM     17  C8  UNL     1      20.814   3.748  27.396  0.00  0.00    +0.199 A 
ATOM     18  N3  UNL     1      20.322   3.297  28.568  0.00  0.00    -0.231 NA
ENDBRANCH   9  13
ENDBRANCH   1  12
BRANCH   2  19
ATOM     19  C12 UNL     1      21.630   7.000  34.989  0.00  0.00    +0.102 A 
ATOM     20  C13 UNL     1      20.457   7.208  35.698  0.00  0.00    +0.044 A 
ATOM     21  C14 UNL     1      20.517   8.513  36.150  0.00  0.00    +0.041 A 
ATOM     22  C16 UNL     1      21.712   9.045  35.707  0.00  0.00    +0.095 A 
ATOM     23  N9  UNL     1      22.385   8.118  35.003  0.00  0.00    -0.356 N 
ATOM     24  H19 UNL     1      23.318   8.251  34.553  0.00  0.00    +0.165 HD
BRANCH  21  25
ATOM     25  C15 UNL     1      19.503   9.202  36.958  0.00  0.00    +0.206 A 
ATOM     26  N5  UNL     1      18.760   8.609  37.913  0.00  0.00    -0.108 NA
ATOM     27  N6  UNL     1      17.987   9.571  38.385  0.00  0.00    -0.049 NA
ATOM     28  N7  UNL     1      18.252  10.696  37.743  0.00  0.00    -0.176 N 
ATOM     29  N8  UNL     1      19.198  10.508  36.838  0.00  0.00    -0.133 NA
ATOM     30  H17 UNL     1      17.779  11.608  37.924  0.00  0.00    +0.214 HD
ENDBRANCH  21  25
ENDBRANCH   2  19
TORSDOF 4
ENDMDL
