REMARK  Name = /home/qwerty/github/datacon2025hack/step_04_hit_selection/docking/ligands/lig_306.pdb
REMARK  5 active torsions:
REMARK  status: ('A' for Active; 'I' for Inactive)
REMARK    1  A    between atoms: C1_1  and  O1_2
REMARK    2  A    between atoms: O1_2  and  C2_3
REMARK    3  A    between atoms: C5_6  and  C6_7
REMARK    4  A    between atoms: C10_13  and  C11_14
REMARK    5  A    between atoms: C12_16  and  C13_17
REMARK                            x       y       z     vdW  Elec       q    Type
REMARK                         _______ _______ _______ _____ _____    ______ ____
ROOT
ATOM      1  C6  UNL     1       1.102   1.233   0.065  0.00  0.00    +0.247 C 
ATOM      2  O2  UNL     1       0.965   2.454  -0.224  0.00  0.00    -0.270 OA
ATOM      3  N1  UNL     1      -0.042   0.480   0.504  0.00  0.00    -0.297 N 
ATOM      4  C7  UNL     1       0.001  -0.209   1.801  0.00  0.00    +0.108 C 
ATOM      5  C8  UNL     1      -0.839  -1.489   1.752  0.00  0.00    +0.020 C 
ATOM      6  C9  UNL     1      -2.254  -1.193   1.242  0.00  0.00    +0.013 C 
ATOM      7  C10 UNL     1      -2.202  -0.514  -0.137  0.00  0.00    +0.062 C 
ATOM      8  C15 UNL     1      -1.358   0.769  -0.078  0.00  0.00    +0.118 C 
ENDROOT
BRANCH   1  12
ATOM      9  C2  UNL     1       4.966  -0.612  -0.362  0.00  0.00    +0.120 A 
ATOM     10  C3  UNL     1       4.857   0.779  -0.184  0.00  0.00    +0.046 A 
ATOM     11  C4  UNL     1       3.600   1.376  -0.046  0.00  0.00    +0.016 A 
ATOM     12  C5  UNL     1       2.432   0.595  -0.073  0.00  0.00    +0.037 A 
ATOM     13  C16 UNL     1       2.546  -0.792  -0.262  0.00  0.00    +0.016 A 
ATOM     14  C17 UNL     1       3.803  -1.388  -0.401  0.00  0.00    +0.046 A 
BRANCH   9  16
ATOM     15  C1  UNL     1       7.463  -0.596  -0.483  0.00  0.00    +0.277 C 
ATOM     16  O1  UNL     1       6.203  -1.258  -0.505  0.00  0.00    -0.495 OA
ENDBRANCH   9  16
ENDBRANCH   1  12
BRANCH   7  17
ATOM     17  C11 UNL     1      -3.589  -0.212  -0.627  0.00  0.00    +0.083 A 
ATOM     18  N2  UNL     1      -4.447   0.621   0.003  0.00  0.00    -0.240 NA
ATOM     19  C12 UNL     1      -5.638   0.715  -0.650  0.00  0.00    +0.151 A 
ATOM     20  C14 UNL     1      -5.742  -0.063  -1.801  0.00  0.00    +0.079 A 
ATOM     21  S1  UNL     1      -4.285  -0.875  -2.008  0.00  0.00    -0.080 S 
BRANCH  19  22
ATOM     22  C13 UNL     1      -6.766   1.550  -0.128  0.00  0.00    +0.435 C 
ATOM     23  F1  UNL     1      -7.747   0.726   0.391  0.00  0.00    -0.164 F 
ATOM     24  F2  UNL     1      -6.314   2.398   0.867  0.00  0.00    -0.164 F 
ATOM     25  F3  UNL     1      -7.302   2.309  -1.153  0.00  0.00    -0.164 F 
ENDBRANCH  19  22
ENDBRANCH   7  17
TORSDOF 4
