REMARK  Name = /home/qwerty/github/datacon2025hack/step_04_hit_selection/docking/ligands/lig_20.pdb
REMARK  5 active torsions:
REMARK  status: ('A' for Active; 'I' for Inactive)
REMARK    1  A    between atoms: C1_1  and  C2_2
REMARK    2  A    between atoms: C6_7  and  C7_8
REMARK    3  A    between atoms: C10_13  and  N3_14
REMARK    4  A    between atoms: C11_15  and  C12_17
REMARK    5  A    between atoms: C15_22  and  C16_23
REMARK                            x       y       z     vdW  Elec       q    Type
REMARK                         _______ _______ _______ _____ _____    ______ ____
ROOT
ATOM      1  C7  UNL     1      -1.063  -0.644   0.986  0.00  0.00    +0.247 C 
ATOM      2  O1  UNL     1      -0.777  -1.337   2.000  0.00  0.00    -0.270 OA
ATOM      3  N2  UNL     1      -0.004  -0.072   0.196  0.00  0.00    -0.293 N 
ATOM      4  C8  UNL     1      -0.070   0.022  -1.256  0.00  0.00    +0.110 C 
ATOM      5  C9  UNL     1       1.375   0.067  -1.732  0.00  0.00    +0.043 C 
ATOM      6  C10 UNL     1       2.184   0.531  -0.518  0.00  0.00    +0.095 C 
ATOM      7  C15 UNL     1       1.351   0.113   0.702  0.00  0.00    +0.093 C 
ATOM      8  C16 UNL     1       1.380   1.180   1.802  0.00  0.00    +0.030 C 
ENDROOT
BRANCH   1  15
ATOM      9  C1  UNL     1      -7.339   0.884  -0.770  0.00  0.00    +0.065 C 
ATOM     10  C2  UNL     1      -6.452  -0.187  -0.218  0.00  0.00    +0.040 A 
ATOM     11  C3  UNL     1      -6.835  -1.458   0.178  0.00  0.00    +0.134 A 
ATOM     12  N1  UNL     1      -5.756  -2.140   0.634  0.00  0.00    -0.236 NA
ATOM     13  C4  UNL     1      -4.744  -1.257   0.502  0.00  0.00    +0.138 A 
ATOM     14  C5  UNL     1      -3.413  -1.487   0.843  0.00  0.00    +0.059 A 
ATOM     15  C6  UNL     1      -2.484  -0.448   0.628  0.00  0.00    +0.042 A 
ATOM     16  C17 UNL     1      -2.930   0.789   0.107  0.00  0.00    +0.031 A 
ATOM     17  C18 UNL     1      -4.283   0.963  -0.217  0.00  0.00    +0.093 A 
ATOM     18  N6  UNL     1      -5.131  -0.076  -0.007  0.00  0.00    -0.304 N 
ENDBRANCH   1  15
BRANCH   6  19
ATOM     19  N3  UNL     1       3.513  -0.088  -0.491  0.00  0.00    -0.304 N 
ATOM     20  C11 UNL     1       4.678   0.612  -0.028  0.00  0.00    +0.280 C 
ATOM     21  O2  UNL     1       4.604   1.831   0.286  0.00  0.00    -0.267 OA
ATOM     22  H11 UNL     1       3.585  -1.116  -0.666  0.00  0.00    +0.149 HD
BRANCH  20  23
ATOM     23  C12 UNL     1       5.972  -0.083   0.083  0.00  0.00    +0.194 A 
ATOM     24  N4  UNL     1       6.149  -1.383  -0.237  0.00  0.00    -0.232 NA
ATOM     25  C13 UNL     1       7.456  -1.606   0.009  0.00  0.00    +0.130 A 
ATOM     26  C14 UNL     1       8.041  -0.449   0.471  0.00  0.00    +0.104 A 
ATOM     27  N5  UNL     1       7.103   0.509   0.516  0.00  0.00    -0.341 N 
ATOM     28  H14 UNL     1       7.231   1.499   0.823  0.00  0.00    +0.167 HD
ENDBRANCH  20  23
ENDBRANCH   6  19
TORSDOF 3
