REMARK  Name = /home/qwerty/github/datacon2025hack/step_04_hit_selection/docking/ligands/lig_571.pdb
REMARK  9 active torsions:
REMARK  status: ('A' for Active; 'I' for Inactive)
REMARK    1  A    between atoms: C1_1  and  C2_2
REMARK    2  A    between atoms: C2_2  and  C3_3
REMARK    3  A    between atoms: C2_2  and  N2_17
REMARK    4  A    between atoms: C3_3  and  N1_4
REMARK    5  A    between atoms: N1_4  and  C4_5
REMARK    6  A    between atoms: C5_6  and  C6_8
REMARK    7  A    between atoms: C14_18  and  C15_20
REMARK    8  A    between atoms: C15_20  and  C16_21
REMARK    9  A    between atoms: C16_21  and  C17_22
REMARK                            x       y       z     vdW  Elec       q    Type
REMARK                         _______ _______ _______ _____ _____    ______ ____
ROOT
ATOM      1  N1  UNL     1      -0.077   2.283   1.648  0.00  0.00    -0.296 N 
ATOM      2  C4  UNL     1       0.928   3.036   0.891  0.00  0.00    +0.132 C 
ATOM      3  C5  UNL     1       0.140   0.902   2.023  0.00  0.00    +0.282 C 
ATOM      4  O1  UNL     1      -0.526   0.405   2.972  0.00  0.00    -0.267 OA
ENDROOT
BRANCH   3   5
ATOM      5  C6  UNL     1       1.090   0.023   1.307  0.00  0.00    +0.190 A 
ATOM      6  C7  UNL     1       1.275  -1.329   1.566  0.00  0.00    +0.058 A 
ATOM      7  C8  UNL     1       2.221  -1.740   0.654  0.00  0.00    -0.006 A 
ATOM      8  C9  UNL     1       2.565  -0.634  -0.081  0.00  0.00    +0.109 A 
ATOM      9  O2  UNL     1       1.872   0.404   0.317  0.00  0.00    -0.455 OA
ATOM     10  C10 UNL     1       3.564  -0.652  -1.199  0.00  0.00    +0.075 C 
ATOM     11  C11 UNL     1       4.455  -1.907  -1.109  0.00  0.00    +0.008 C 
ATOM     12  C12 UNL     1       3.625  -3.178  -0.826  0.00  0.00    +0.005 C 
ATOM     13  C13 UNL     1       2.874  -3.082   0.517  0.00  0.00    +0.038 C 
ENDBRANCH   3   5
BRANCH   1  14
ATOM     14  C3  UNL     1      -1.370   2.922   1.939  0.00  0.00    +0.129 C 
BRANCH  14  16
ATOM     15  C1  UNL     1      -3.661   3.465   1.025  0.00  0.00    +0.029 C 
ATOM     16  C2  UNL     1      -2.306   2.824   0.721  0.00  0.00    +0.087 C 
BRANCH  16  17
ATOM     17  N2  UNL     1      -2.499   1.420   0.348  0.00  0.00    -0.311 N 
ATOM     18  C14 UNL     1      -1.805   0.806  -0.747  0.00  0.00    +0.219 C 
ATOM     19  O3  UNL     1      -1.275   1.515  -1.646  0.00  0.00    -0.276 OA
ATOM     20  H19 UNL     1      -3.019   0.803   1.012  0.00  0.00    +0.149 HD
BRANCH  18  21
ATOM     21  C15 UNL     1      -1.725  -0.689  -0.846  0.00  0.00    +0.170 C 
BRANCH  21  22
ATOM     22  C16 UNL     1      -2.990  -1.280  -1.481  0.00  0.00    +0.254 C 
ATOM     23  C17 UNL     1      -2.874  -2.799  -1.599  0.00  0.00    +0.085 C 
ATOM     24  F1  UNL     1      -3.170  -0.747  -2.747  0.00  0.00    -0.205 F 
ATOM     25  F2  UNL     1      -4.094  -0.974  -0.704  0.00  0.00    -0.205 F 
ENDBRANCH  21  22
ENDBRANCH  18  21
ENDBRANCH  16  17
ENDBRANCH  14  16
ENDBRANCH   1  14
TORSDOF 6
