MODEL 1
REMARK VINA RESULT:    -8.038      0.000      0.000
REMARK INTER + INTRA:         -12.287
REMARK INTER:                 -10.857
REMARK INTRA:                  -1.430
REMARK UNBOUND:                -1.430
REMARK  Name = /home/qwerty/github/datacon2025hack/step_04_hit_selection/docking/ligands/lig_788.pdb
REMARK  9 active torsions:
REMARK  status: ('A' for Active; 'I' for Inactive)
REMARK    1  A    between atoms: C1_1  and  C2_2
REMARK    2  A    between atoms: C2_2  and  C3_3
REMARK    3  A    between atoms: C2_2  and  C4_4
REMARK    4  A    between atoms: C7_7  and  C8_8
REMARK    5  A    between atoms: N1_10  and  C9_11
REMARK    6  A    between atoms: C11_13  and  C12_14
REMARK    7  A    between atoms: N3_21  and  C18_22
REMARK    8  A    between atoms: C21_25  and  N4_26
REMARK    9  A    between atoms: N5_29  and  C24_30
REMARK                            x       y       z     vdW  Elec       q    Type
REMARK                         _______ _______ _______ _____ _____    ______ ____
ROOT
ATOM      1  C9  UNL     1      21.259   2.680  33.316  0.00  0.00    +0.124 A 
ATOM      2  C10 UNL     1      21.717   3.901  33.759  0.00  0.00    +0.073 A 
ATOM      3  C11 UNL     1      22.417   4.410  32.675  0.00  0.00    +0.095 A 
ATOM      4  N2  UNL     1      22.340   3.544  31.643  0.00  0.00    -0.169 NA
ATOM      5  N3  UNL     1      21.649   2.485  32.038  0.00  0.00    -0.247 N 
ENDROOT
BRANCH   3   6
ATOM      6  C12 UNL     1      23.122   5.712  32.598  0.00  0.00    +0.002 A 
ATOM      7  C13 UNL     1      24.142   6.012  33.522  0.00  0.00    +0.010 A 
ATOM      8  C14 UNL     1      24.807   7.241  33.470  0.00  0.00    +0.001 A 
ATOM      9  C15 UNL     1      24.464   8.183  32.499  0.00  0.00    +0.000 A 
ATOM     10  C16 UNL     1      23.457   7.896  31.574  0.00  0.00    +0.001 A 
ATOM     11  C17 UNL     1      22.788   6.669  31.621  0.00  0.00    +0.010 A 
ENDBRANCH   3   6
BRANCH   5  12
ATOM     12  C18 UNL     1      21.190   1.435  31.115  0.00  0.00    +0.109 C 
ATOM     13  C19 UNL     1      22.250   1.160  30.019  0.00  0.00    +0.028 C 
ATOM     14  C20 UNL     1      21.934   1.925  28.729  0.00  0.00    +0.021 C 
ATOM     15  C21 UNL     1      20.604   1.427  28.089  0.00  0.00    +0.057 C 
ATOM     16  C27 UNL     1      19.541   1.116  29.198  0.00  0.00    +0.021 C 
ATOM     17  C28 UNL     1      19.818   1.833  30.525  0.00  0.00    +0.028 C 
BRANCH  15  18
ATOM     18  N4  UNL     1      20.034   2.373  27.080  0.00  0.00    -0.297 NA
ATOM     19  C22 UNL     1      18.543   2.383  27.097  0.00  0.00    +0.100 C 
ATOM     20  C23 UNL     1      17.906   1.501  26.003  0.00  0.00    +0.099 C 
ATOM     21  N5  UNL     1      18.812   0.395  25.657  0.00  0.00    -0.303 NA
ATOM     22  C24 UNL     1      18.142  -0.562  24.764  0.00  0.00    +0.105 C 
ATOM     23  C25 UNL     1      20.045   0.911  25.029  0.00  0.00    +0.099 C 
ATOM     24  C26 UNL     1      20.528   2.221  25.690  0.00  0.00    +0.100 C 
ENDBRANCH  15  18
ENDBRANCH   5  12
BRANCH   1  27
ATOM     25  C8  UNL     1      18.992   2.107  34.231  0.00  0.00    +0.249 C 
ATOM     26  O1  UNL     1      18.456   3.021  33.547  0.00  0.00    -0.270 OA
ATOM     27  N1  UNL     1      20.389   1.820  34.059  0.00  0.00    -0.267 N 
ATOM     28  H10 UNL     1      20.727   0.851  34.260  0.00  0.00    +0.157 HD
BRANCH  25  32
ATOM     29  C4  UNL     1      16.598  -0.167  37.001  0.00  0.00    -0.045 A 
ATOM     30  C5  UNL     1      16.538  -0.435  35.621  0.00  0.00    +0.004 A 
ATOM     31  C6  UNL     1      17.316   0.298  34.720  0.00  0.00    +0.013 A 
ATOM     32  C7  UNL     1      18.165   1.322  35.179  0.00  0.00    +0.037 A 
ATOM     33  C29 UNL     1      18.238   1.577  36.559  0.00  0.00    +0.013 A 
ATOM     34  C30 UNL     1      17.463   0.842  37.460  0.00  0.00    +0.004 A 
BRANCH  29  36
ATOM     35  C1  UNL     1      14.365  -1.257  37.380  0.00  0.00    +0.012 C 
ATOM     36  C2  UNL     1      15.753  -0.974  37.967  0.00  0.00    +0.013 C 
ATOM     37  C3  UNL     1      16.455  -2.278  38.365  0.00  0.00    +0.012 C 
ENDBRANCH  29  36
ENDBRANCH  25  32
ENDBRANCH   1  27
TORSDOF 6
ENDMDL
MODEL 2
REMARK VINA RESULT:    -8.017      4.036     11.968
REMARK INTER + INTRA:         -12.259
REMARK INTER:                 -10.817
REMARK INTRA:                  -1.442
REMARK UNBOUND:                -1.430
REMARK  Name = /home/qwerty/github/datacon2025hack/step_04_hit_selection/docking/ligands/lig_788.pdb
REMARK  9 active torsions:
REMARK  status: ('A' for Active; 'I' for Inactive)
REMARK    1  A    between atoms: C1_1  and  C2_2
REMARK    2  A    between atoms: C2_2  and  C3_3
REMARK    3  A    between atoms: C2_2  and  C4_4
REMARK    4  A    between atoms: C7_7  and  C8_8
REMARK    5  A    between atoms: N1_10  and  C9_11
REMARK    6  A    between atoms: C11_13  and  C12_14
REMARK    7  A    between atoms: N3_21  and  C18_22
REMARK    8  A    between atoms: C21_25  and  N4_26
REMARK    9  A    between atoms: N5_29  and  C24_30
REMARK                            x       y       z     vdW  Elec       q    Type
REMARK                         _______ _______ _______ _____ _____    ______ ____
ROOT
ATOM      1  C9  UNL     1      20.287   1.599  24.679  0.00  0.00    +0.124 A 
ATOM      2  C10 UNL     1      19.159   0.953  24.225  0.00  0.00    +0.073 A 
ATOM      3  C11 UNL     1      18.715   0.238  25.328  0.00  0.00    +0.095 A 
ATOM      4  N2  UNL     1      19.525   0.485  26.379  0.00  0.00    -0.169 NA
ATOM      5  N3  UNL     1      20.490   1.299  25.980  0.00  0.00    -0.247 N 
ENDROOT
BRANCH   3   6
ATOM      6  C12 UNL     1      17.523  -0.639  25.403  0.00  0.00    +0.002 A 
ATOM      7  C13 UNL     1      17.430  -1.770  24.569  0.00  0.00    +0.010 A 
ATOM      8  C14 UNL     1      16.307  -2.600  24.619  0.00  0.00    +0.001 A 
ATOM      9  C15 UNL     1      15.263  -2.313  25.500  0.00  0.00    +0.000 A 
ATOM     10  C16 UNL     1      15.344  -1.198  26.337  0.00  0.00    +0.001 A 
ATOM     11  C17 UNL     1      16.465  -0.364  26.291  0.00  0.00    +0.010 A 
ENDBRANCH   3   6
BRANCH   5  12
ATOM     12  C18 UNL     1      21.432   1.944  26.908  0.00  0.00    +0.109 C 
ATOM     13  C19 UNL     1      21.944   0.935  27.967  0.00  0.00    +0.028 C 
ATOM     14  C20 UNL     1      21.149   1.042  29.273  0.00  0.00    +0.021 C 
ATOM     15  C21 UNL     1      21.362   2.428  29.951  0.00  0.00    +0.057 C 
ATOM     16  C27 UNL     1      21.422   3.565  28.875  0.00  0.00    +0.021 C 
ATOM     17  C28 UNL     1      20.761   3.181  27.546  0.00  0.00    +0.028 C 
BRANCH  15  18
ATOM     18  N4  UNL     1      20.332   2.753  30.987  0.00  0.00    -0.297 NA
ATOM     19  C22 UNL     1      19.987   4.204  31.002  0.00  0.00    +0.100 C 
ATOM     20  C23 UNL     1      20.724   5.004  32.096  0.00  0.00    +0.099 C 
ATOM     21  N5  UNL     1      22.012   4.364  32.405  0.00  0.00    -0.303 NA
ATOM     22  C24 UNL     1      22.812   5.217  33.298  0.00  0.00    +0.105 C 
ATOM     23  C25 UNL     1      21.799   3.035  33.015  0.00  0.00    +0.099 C 
ATOM     24  C26 UNL     1      20.618   2.282  32.363  0.00  0.00    +0.100 C 
ENDBRANCH  15  18
ENDBRANCH   5  12
BRANCH   1  27
ATOM     25  C8  UNL     1      20.603   3.902  23.729  0.00  0.00    +0.249 C 
ATOM     26  O1  UNL     1      19.640   4.344  24.412  0.00  0.00    -0.270 OA
ATOM     27  N1  UNL     1      21.043   2.547  23.918  0.00  0.00    -0.267 N 
ATOM     28  H10 UNL     1      22.042   2.314  23.715  0.00  0.00    +0.157 HD
BRANCH  25  32
ATOM     29  C4  UNL     1      22.600   6.508  20.937  0.00  0.00    -0.045 A 
ATOM     30  C5  UNL     1      21.721   5.512  20.476  0.00  0.00    +0.004 A 
ATOM     31  C6  UNL     1      21.068   4.667  21.380  0.00  0.00    +0.013 A 
ATOM     32  C7  UNL     1      21.288   4.795  22.763  0.00  0.00    +0.037 A 
ATOM     33  C29 UNL     1      22.152   5.803  23.224  0.00  0.00    +0.013 A 
ATOM     34  C30 UNL     1      22.802   6.650  22.322  0.00  0.00    +0.004 A 
BRANCH  29  36
ATOM     35  C1  UNL     1      23.254   8.880  20.421  0.00  0.00    +0.012 C 
ATOM     36  C2  UNL     1      23.296   7.422  19.947  0.00  0.00    +0.013 C 
ATOM     37  C3  UNL     1      24.739   6.970  19.691  0.00  0.00    +0.012 C 
ENDBRANCH  29  36
ENDBRANCH  25  32
ENDBRANCH   1  27
TORSDOF 6
ENDMDL
MODEL 3
REMARK VINA RESULT:    -7.518      6.952     10.818
REMARK INTER + INTRA:         -11.585
REMARK INTER:                 -10.045
REMARK INTRA:                  -1.540
REMARK UNBOUND:                -1.430
REMARK  Name = /home/qwerty/github/datacon2025hack/step_04_hit_selection/docking/ligands/lig_788.pdb
REMARK  9 active torsions:
REMARK  status: ('A' for Active; 'I' for Inactive)
REMARK    1  A    between atoms: C1_1  and  C2_2
REMARK    2  A    between atoms: C2_2  and  C3_3
REMARK    3  A    between atoms: C2_2  and  C4_4
REMARK    4  A    between atoms: C7_7  and  C8_8
REMARK    5  A    between atoms: N1_10  and  C9_11
REMARK    6  A    between atoms: C11_13  and  C12_14
REMARK    7  A    between atoms: N3_21  and  C18_22
REMARK    8  A    between atoms: C21_25  and  N4_26
REMARK    9  A    between atoms: N5_29  and  C24_30
REMARK                            x       y       z     vdW  Elec       q    Type
REMARK                         _______ _______ _______ _____ _____    ______ ____
ROOT
ATOM      1  C9  UNL     1      20.132   4.046  22.390  0.00  0.00    +0.124 A 
ATOM      2  C10 UNL     1      20.907   5.040  21.835  0.00  0.00    +0.073 A 
ATOM      3  C11 UNL     1      20.057   5.668  20.937  0.00  0.00    +0.095 A 
ATOM      4  N2  UNL     1      18.838   5.090  20.993  0.00  0.00    -0.169 NA
ATOM      5  N3  UNL     1      18.888   4.094  21.864  0.00  0.00    -0.247 N 
ENDROOT
BRANCH   3   6
ATOM      6  C12 UNL     1      20.376   6.820  20.061  0.00  0.00    +0.002 A 
ATOM      7  C13 UNL     1      21.693   7.317  20.007  0.00  0.00    +0.010 A 
ATOM      8  C14 UNL     1      22.006   8.411  19.195  0.00  0.00    +0.001 A 
ATOM      9  C15 UNL     1      21.013   9.022  18.429  0.00  0.00    +0.000 A 
ATOM     10  C16 UNL     1      19.703   8.538  18.470  0.00  0.00    +0.001 A 
ATOM     11  C17 UNL     1      19.383   7.444  19.280  0.00  0.00    +0.010 A 
ENDBRANCH   3   6
BRANCH   5  12
ATOM     12  C18 UNL     1      17.693   3.377  22.334  0.00  0.00    +0.109 C 
ATOM     13  C19 UNL     1      17.011   2.616  21.169  0.00  0.00    +0.028 C 
ATOM     14  C20 UNL     1      15.849   3.423  20.577  0.00  0.00    +0.021 C 
ATOM     15  C21 UNL     1      14.704   3.608  21.616  0.00  0.00    +0.057 C 
ATOM     16  C27 UNL     1      15.293   3.855  23.047  0.00  0.00    +0.021 C 
ATOM     17  C28 UNL     1      16.736   4.371  23.031  0.00  0.00    +0.028 C 
BRANCH  15  18
ATOM     18  N4  UNL     1      13.743   4.698  21.260  0.00  0.00    -0.297 NA
ATOM     19  C22 UNL     1      12.985   5.191  22.446  0.00  0.00    +0.100 C 
ATOM     20  C23 UNL     1      11.577   4.574  22.581  0.00  0.00    +0.099 C 
ATOM     21  N5  UNL     1      11.553   3.237  21.967  0.00  0.00    -0.303 NA
ATOM     22  C24 UNL     1      10.281   2.558  22.258  0.00  0.00    +0.105 C 
ATOM     23  C25 UNL     1      11.765   3.332  20.508  0.00  0.00    +0.099 C 
ATOM     24  C26 UNL     1      12.811   4.409  20.143  0.00  0.00    +0.100 C 
ENDBRANCH  15  18
ENDBRANCH   5  12
BRANCH   1  27
ATOM     25  C8  UNL     1      20.411   3.561  24.838  0.00  0.00    +0.249 C 
ATOM     26  O1  UNL     1      19.719   4.570  25.144  0.00  0.00    -0.270 OA
ATOM     27  N1  UNL     1      20.549   3.189  23.457  0.00  0.00    -0.267 N 
ATOM     28  H10 UNL     1      20.722   2.184  23.226  0.00  0.00    +0.157 HD
BRANCH  25  32
ATOM     29  C4  UNL     1      22.241   1.209  27.951  0.00  0.00    -0.045 A 
ATOM     30  C5  UNL     1      22.760   2.472  27.614  0.00  0.00    +0.004 A 
ATOM     31  C6  UNL     1      22.166   3.239  26.607  0.00  0.00    +0.013 A 
ATOM     32  C7  UNL     1      21.045   2.756  25.909  0.00  0.00    +0.037 A 
ATOM     33  C29 UNL     1      20.515   1.501  26.258  0.00  0.00    +0.013 A 
ATOM     34  C30 UNL     1      21.106   0.736  27.267  0.00  0.00    +0.004 A 
BRANCH  29  36
ATOM     35  C1  UNL     1      22.747  -1.112  28.773  0.00  0.00    +0.012 C 
ATOM     36  C2  UNL     1      22.891   0.390  29.049  0.00  0.00    +0.013 C 
ATOM     37  C3  UNL     1      24.364   0.774  29.233  0.00  0.00    +0.012 C 
ENDBRANCH  29  36
ENDBRANCH  25  32
ENDBRANCH   1  27
TORSDOF 6
ENDMDL
MODEL 4
REMARK VINA RESULT:    -7.294      3.484      9.997
REMARK INTER + INTRA:         -11.283
REMARK INTER:                  -9.699
REMARK INTRA:                  -1.584
REMARK UNBOUND:                -1.430
REMARK  Name = /home/qwerty/github/datacon2025hack/step_04_hit_selection/docking/ligands/lig_788.pdb
REMARK  9 active torsions:
REMARK  status: ('A' for Active; 'I' for Inactive)
REMARK    1  A    between atoms: C1_1  and  C2_2
REMARK    2  A    between atoms: C2_2  and  C3_3
REMARK    3  A    between atoms: C2_2  and  C4_4
REMARK    4  A    between atoms: C7_7  and  C8_8
REMARK    5  A    between atoms: N1_10  and  C9_11
REMARK    6  A    between atoms: C11_13  and  C12_14
REMARK    7  A    between atoms: N3_21  and  C18_22
REMARK    8  A    between atoms: C21_25  and  N4_26
REMARK    9  A    between atoms: N5_29  and  C24_30
REMARK                            x       y       z     vdW  Elec       q    Type
REMARK                         _______ _______ _______ _____ _____    ______ ____
ROOT
ATOM      1  C9  UNL     1      18.952   2.249  32.914  0.00  0.00    +0.124 A 
ATOM      2  C10 UNL     1      18.507   1.122  33.570  0.00  0.00    +0.073 A 
ATOM      3  C11 UNL     1      18.071   1.597  34.798  0.00  0.00    +0.095 A 
ATOM      4  N2  UNL     1      18.223   2.938  34.840  0.00  0.00    -0.169 NA
ATOM      5  N3  UNL     1      18.773   3.332  33.701  0.00  0.00    -0.247 N 
ENDROOT
BRANCH   3   6
ATOM      6  C12 UNL     1      17.487   0.806  35.906  0.00  0.00    +0.002 A 
ATOM      7  C13 UNL     1      16.615  -0.263  35.621  0.00  0.00    +0.010 A 
ATOM      8  C14 UNL     1      16.046  -1.011  36.656  0.00  0.00    +0.001 A 
ATOM      9  C15 UNL     1      16.339  -0.703  37.986  0.00  0.00    +0.000 A 
ATOM     10  C16 UNL     1      17.206   0.352  38.283  0.00  0.00    +0.001 A 
ATOM     11  C17 UNL     1      17.778   1.104  37.252  0.00  0.00    +0.010 A 
ENDBRANCH   3   6
BRANCH   5  12
ATOM     12  C18 UNL     1      18.893   4.746  33.313  0.00  0.00    +0.109 C 
ATOM     13  C19 UNL     1      20.366   5.218  33.392  0.00  0.00    +0.028 C 
ATOM     14  C20 UNL     1      20.656   5.932  34.717  0.00  0.00    +0.021 C 
ATOM     15  C21 UNL     1      19.839   7.254  34.835  0.00  0.00    +0.057 C 
ATOM     16  C27 UNL     1      18.400   7.066  34.246  0.00  0.00    +0.021 C 
ATOM     17  C28 UNL     1      17.950   5.602  34.190  0.00  0.00    +0.028 C 
BRANCH  15  18
ATOM     18  N4  UNL     1      19.759   7.785  36.232  0.00  0.00    -0.297 NA
ATOM     19  C22 UNL     1      18.498   8.543  36.474  0.00  0.00    +0.100 C 
ATOM     20  C23 UNL     1      18.664  10.073  36.355  0.00  0.00    +0.099 C 
ATOM     21  N5  UNL     1      19.762  10.389  35.429  0.00  0.00    -0.303 NA
ATOM     22  C24 UNL     1      19.806  11.833  35.153  0.00  0.00    +0.105 C 
ATOM     23  C25 UNL     1      21.054   9.930  35.978  0.00  0.00    +0.099 C 
ATOM     24  C26 UNL     1      20.925   8.570  36.701  0.00  0.00    +0.100 C 
ENDBRANCH  15  18
ENDBRANCH   5  12
BRANCH   1  27
ATOM     25  C8  UNL     1      20.799   2.317  31.215  0.00  0.00    +0.249 C 
ATOM     26  O1  UNL     1      21.666   2.118  32.110  0.00  0.00    -0.270 OA
ATOM     27  N1  UNL     1      19.404   2.274  31.557  0.00  0.00    -0.267 N 
ATOM     28  H10 UNL     1      18.718   2.004  30.816  0.00  0.00    +0.157 HD
BRANCH  25  32
ATOM     29  C4  UNL     1      22.067   3.010  27.155  0.00  0.00    -0.045 A 
ATOM     30  C5  UNL     1      21.453   4.037  27.894  0.00  0.00    +0.004 A 
ATOM     31  C6  UNL     1      21.044   3.816  29.213  0.00  0.00    +0.013 A 
ATOM     32  C7  UNL     1      21.233   2.561  29.818  0.00  0.00    +0.037 A 
ATOM     33  C29 UNL     1      21.863   1.540  29.086  0.00  0.00    +0.013 A 
ATOM     34  C30 UNL     1      22.275   1.761  27.769  0.00  0.00    +0.004 A 
BRANCH  29  36
ATOM     35  C1  UNL     1      21.405   2.890  24.733  0.00  0.00    +0.012 C 
ATOM     36  C2  UNL     1      22.511   3.264  25.727  0.00  0.00    +0.013 C 
ATOM     37  C3  UNL     1      22.953   4.720  25.533  0.00  0.00    +0.012 C 
ENDBRANCH  29  36
ENDBRANCH  25  32
ENDBRANCH   1  27
TORSDOF 6
ENDMDL
MODEL 5
REMARK VINA RESULT:    -7.190      4.764      7.956
REMARK INTER + INTRA:         -11.143
REMARK INTER:                  -9.620
REMARK INTRA:                  -1.522
REMARK UNBOUND:                -1.430
REMARK  Name = /home/qwerty/github/datacon2025hack/step_04_hit_selection/docking/ligands/lig_788.pdb
REMARK  9 active torsions:
REMARK  status: ('A' for Active; 'I' for Inactive)
REMARK    1  A    between atoms: C1_1  and  C2_2
REMARK    2  A    between atoms: C2_2  and  C3_3
REMARK    3  A    between atoms: C2_2  and  C4_4
REMARK    4  A    between atoms: C7_7  and  C8_8
REMARK    5  A    between atoms: N1_10  and  C9_11
REMARK    6  A    between atoms: C11_13  and  C12_14
REMARK    7  A    between atoms: N3_21  and  C18_22
REMARK    8  A    between atoms: C21_25  and  N4_26
REMARK    9  A    between atoms: N5_29  and  C24_30
REMARK                            x       y       z     vdW  Elec       q    Type
REMARK                         _______ _______ _______ _____ _____    ______ ____
ROOT
ATOM      1  C9  UNL     1      21.471   4.006  26.194  0.00  0.00    +0.124 A 
ATOM      2  C10 UNL     1      22.014   4.897  25.296  0.00  0.00    +0.073 A 
ATOM      3  C11 UNL     1      21.394   4.583  24.095  0.00  0.00    +0.095 A 
ATOM      4  N2  UNL     1      20.509   3.583  24.294  0.00  0.00    -0.169 NA
ATOM      5  N3  UNL     1      20.567   3.222  25.567  0.00  0.00    -0.247 N 
ENDROOT
BRANCH   3   6
ATOM      6  C12 UNL     1      21.606   5.237  22.782  0.00  0.00    +0.002 A 
ATOM      7  C13 UNL     1      22.470   6.345  22.682  0.00  0.00    +0.010 A 
ATOM      8  C14 UNL     1      22.670   6.981  21.454  0.00  0.00    +0.001 A 
ATOM      9  C15 UNL     1      22.012   6.521  20.312  0.00  0.00    +0.000 A 
ATOM     10  C16 UNL     1      21.155   5.421  20.396  0.00  0.00    +0.001 A 
ATOM     11  C17 UNL     1      20.951   4.781  21.622  0.00  0.00    +0.010 A 
ENDBRANCH   3   6
BRANCH   5  12
ATOM     12  C18 UNL     1      19.597   2.306  26.187  0.00  0.00    +0.109 C 
ATOM     13  C19 UNL     1      20.089   0.839  26.101  0.00  0.00    +0.028 C 
ATOM     14  C20 UNL     1      19.467   0.109  24.906  0.00  0.00    +0.021 C 
ATOM     15  C21 UNL     1      17.924  -0.029  25.071  0.00  0.00    +0.057 C 
ATOM     16  C27 UNL     1      17.319   1.269  25.706  0.00  0.00    +0.021 C 
ATOM     17  C28 UNL     1      18.211   2.504  25.533  0.00  0.00    +0.028 C 
BRANCH  15  18
ATOM     18  N4  UNL     1      17.213  -0.358  23.796  0.00  0.00    -0.297 NA
ATOM     19  C22 UNL     1      15.794   0.101  23.808  0.00  0.00    +0.100 C 
ATOM     20  C23 UNL     1      14.787  -1.014  24.161  0.00  0.00    +0.099 C 
ATOM     21  N5  UNL     1      15.432  -2.024  25.014  0.00  0.00    -0.303 NA
ATOM     22  C24 UNL     1      14.439  -2.984  25.519  0.00  0.00    +0.105 C 
ATOM     23  C25 UNL     1      16.498  -2.726  24.271  0.00  0.00    +0.099 C 
ATOM     24  C26 UNL     1      17.289  -1.770  23.350  0.00  0.00    +0.100 C 
ENDBRANCH  15  18
ENDBRANCH   5  12
BRANCH   1  27
ATOM     25  C8  UNL     1      21.002   4.851  28.512  0.00  0.00    +0.249 C 
ATOM     26  O1  UNL     1      19.967   5.451  28.113  0.00  0.00    -0.270 OA
ATOM     27  N1  UNL     1      21.730   4.011  27.602  0.00  0.00    -0.267 N 
ATOM     28  H10 UNL     1      22.279   3.212  27.993  0.00  0.00    +0.157 HD
BRANCH  25  32
ATOM     29  C4  UNL     1      22.253   5.258  32.616  0.00  0.00    -0.045 A 
ATOM     30  C5  UNL     1      22.249   6.373  31.760  0.00  0.00    +0.004 A 
ATOM     31  C6  UNL     1      21.840   6.246  30.429  0.00  0.00    +0.013 A 
ATOM     32  C7  UNL     1      21.434   4.997  29.923  0.00  0.00    +0.037 A 
ATOM     33  C29 UNL     1      21.421   3.886  30.784  0.00  0.00    +0.013 A 
ATOM     34  C30 UNL     1      21.827   4.014  32.116  0.00  0.00    +0.004 A 
BRANCH  29  36
ATOM     35  C1  UNL     1      23.993   6.220  34.154  0.00  0.00    +0.012 C 
ATOM     36  C2  UNL     1      22.693   5.412  34.059  0.00  0.00    +0.013 C 
ATOM     37  C3  UNL     1      21.589   6.048  34.913  0.00  0.00    +0.012 C 
ENDBRANCH  29  36
ENDBRANCH  25  32
ENDBRANCH   1  27
TORSDOF 6
ENDMDL
MODEL 6
REMARK VINA RESULT:    -7.139      5.583      9.358
REMARK INTER + INTRA:         -11.073
REMARK INTER:                  -9.640
REMARK INTRA:                  -1.433
REMARK UNBOUND:                -1.430
REMARK  Name = /home/qwerty/github/datacon2025hack/step_04_hit_selection/docking/ligands/lig_788.pdb
REMARK  9 active torsions:
REMARK  status: ('A' for Active; 'I' for Inactive)
REMARK    1  A    between atoms: C1_1  and  C2_2
REMARK    2  A    between atoms: C2_2  and  C3_3
REMARK    3  A    between atoms: C2_2  and  C4_4
REMARK    4  A    between atoms: C7_7  and  C8_8
REMARK    5  A    between atoms: N1_10  and  C9_11
REMARK    6  A    between atoms: C11_13  and  C12_14
REMARK    7  A    between atoms: N3_21  and  C18_22
REMARK    8  A    between atoms: C21_25  and  N4_26
REMARK    9  A    between atoms: N5_29  and  C24_30
REMARK                            x       y       z     vdW  Elec       q    Type
REMARK                         _______ _______ _______ _____ _____    ______ ____
ROOT
ATOM      1  C9  UNL     1      21.628   5.335  24.331  0.00  0.00    +0.124 A 
ATOM      2  C10 UNL     1      22.672   5.969  23.694  0.00  0.00    +0.073 A 
ATOM      3  C11 UNL     1      22.172   6.251  22.430  0.00  0.00    +0.095 A 
ATOM      4  N2  UNL     1      20.891   5.833  22.351  0.00  0.00    -0.169 NA
ATOM      5  N3  UNL     1      20.565   5.262  23.500  0.00  0.00    -0.247 N 
ENDROOT
BRANCH   3   6
ATOM      6  C12 UNL     1      22.879   6.936  21.323  0.00  0.00    +0.002 A 
ATOM      7  C13 UNL     1      22.275   7.025  20.054  0.00  0.00    +0.010 A 
ATOM      8  C14 UNL     1      22.934   7.657  18.996  0.00  0.00    +0.001 A 
ATOM      9  C15 UNL     1      24.203   8.206  19.190  0.00  0.00    +0.000 A 
ATOM     10  C16 UNL     1      24.812   8.129  20.444  0.00  0.00    +0.001 A 
ATOM     11  C17 UNL     1      24.157   7.498  21.506  0.00  0.00    +0.010 A 
ENDBRANCH   3   6
BRANCH   5  12
ATOM     12  C18 UNL     1      19.187   4.878  23.845  0.00  0.00    +0.109 C 
ATOM     13  C19 UNL     1      18.853   3.468  23.299  0.00  0.00    +0.028 C 
ATOM     14  C20 UNL     1      18.110   3.547  21.960  0.00  0.00    +0.021 C 
ATOM     15  C21 UNL     1      16.714   4.218  22.129  0.00  0.00    +0.057 C 
ATOM     16  C27 UNL     1      16.791   5.402  23.151  0.00  0.00    +0.021 C 
ATOM     17  C28 UNL     1      18.208   5.959  23.332  0.00  0.00    +0.028 C 
BRANCH  15  18
ATOM     18  N4  UNL     1      16.115   4.687  20.841  0.00  0.00    -0.297 NA
ATOM     19  C22 UNL     1      14.845   5.440  21.052  0.00  0.00    +0.100 C 
ATOM     20  C23 UNL     1      13.578   4.586  20.838  0.00  0.00    +0.099 C 
ATOM     21  N5  UNL     1      13.867   3.174  21.132  0.00  0.00    -0.303 NA
ATOM     22  C24 UNL     1      12.628   2.381  21.124  0.00  0.00    +0.105 C 
ATOM     23  C25 UNL     1      14.834   2.629  20.158  0.00  0.00    +0.099 C 
ATOM     24  C26 UNL     1      15.930   3.656  19.792  0.00  0.00    +0.100 C 
ENDBRANCH  15  18
ENDBRANCH   5  12
BRANCH   1  27
ATOM     25  C8  UNL     1      22.214   3.702  26.147  0.00  0.00    +0.249 C 
ATOM     26  O1  UNL     1      22.922   3.029  25.349  0.00  0.00    -0.270 OA
ATOM     27  N1  UNL     1      21.634   4.941  25.707  0.00  0.00    -0.267 N 
ATOM     28  H10 UNL     1      21.440   5.681  26.420  0.00  0.00    +0.157 HD
BRANCH  25  32
ATOM     29  C4  UNL     1      21.645   2.287  30.177  0.00  0.00    -0.045 A 
ATOM     30  C5  UNL     1      21.223   3.577  29.810  0.00  0.00    +0.004 A 
ATOM     31  C6  UNL     1      21.403   4.038  28.502  0.00  0.00    +0.013 A 
ATOM     32  C7  UNL     1      22.016   3.221  27.535  0.00  0.00    +0.037 A 
ATOM     33  C29 UNL     1      22.421   1.925  27.898  0.00  0.00    +0.013 A 
ATOM     34  C30 UNL     1      22.238   1.462  29.204  0.00  0.00    +0.004 A 
BRANCH  29  36
ATOM     35  C1  UNL     1      20.995   2.944  32.515  0.00  0.00    +0.012 C 
ATOM     36  C2  UNL     1      21.438   1.797  31.598  0.00  0.00    +0.013 C 
ATOM     37  C3  UNL     1      20.435   0.638  31.646  0.00  0.00    +0.012 C 
ENDBRANCH  29  36
ENDBRANCH  25  32
ENDBRANCH   1  27
TORSDOF 6
ENDMDL
MODEL 7
REMARK VINA RESULT:    -7.055      4.491      8.633
REMARK INTER + INTRA:         -10.960
REMARK INTER:                  -9.448
REMARK INTRA:                  -1.512
REMARK UNBOUND:                -1.430
REMARK  Name = /home/qwerty/github/datacon2025hack/step_04_hit_selection/docking/ligands/lig_788.pdb
REMARK  9 active torsions:
REMARK  status: ('A' for Active; 'I' for Inactive)
REMARK    1  A    between atoms: C1_1  and  C2_2
REMARK    2  A    between atoms: C2_2  and  C3_3
REMARK    3  A    between atoms: C2_2  and  C4_4
REMARK    4  A    between atoms: C7_7  and  C8_8
REMARK    5  A    between atoms: N1_10  and  C9_11
REMARK    6  A    between atoms: C11_13  and  C12_14
REMARK    7  A    between atoms: N3_21  and  C18_22
REMARK    8  A    between atoms: C21_25  and  N4_26
REMARK    9  A    between atoms: N5_29  and  C24_30
REMARK                            x       y       z     vdW  Elec       q    Type
REMARK                         _______ _______ _______ _____ _____    ______ ____
ROOT
ATOM      1  C9  UNL     1      21.234   4.793  24.885  0.00  0.00    +0.124 A 
ATOM      2  C10 UNL     1      22.186   5.429  24.120  0.00  0.00    +0.073 A 
ATOM      3  C11 UNL     1      21.632   5.458  22.848  0.00  0.00    +0.095 A 
ATOM      4  N2  UNL     1      20.403   4.899  22.882  0.00  0.00    -0.169 NA
ATOM      5  N3  UNL     1      20.168   4.480  24.116  0.00  0.00    -0.247 N 
ENDROOT
BRANCH   3   6
ATOM      6  C12 UNL     1      22.234   6.036  21.624  0.00  0.00    +0.002 A 
ATOM      7  C13 UNL     1      21.809   5.592  20.357  0.00  0.00    +0.010 A 
ATOM      8  C14 UNL     1      22.377   6.118  19.193  0.00  0.00    +0.001 A 
ATOM      9  C15 UNL     1      23.374   7.092  19.279  0.00  0.00    +0.000 A 
ATOM     10  C16 UNL     1      23.801   7.544  20.529  0.00  0.00    +0.001 A 
ATOM     11  C17 UNL     1      23.237   7.022  21.697  0.00  0.00    +0.010 A 
ENDBRANCH   3   6
BRANCH   5  12
ATOM     12  C18 UNL     1      18.849   4.009  24.567  0.00  0.00    +0.109 C 
ATOM     13  C19 UNL     1      18.894   2.504  24.931  0.00  0.00    +0.028 C 
ATOM     14  C20 UNL     1      18.405   1.632  23.769  0.00  0.00    +0.021 C 
ATOM     15  C21 UNL     1      16.900   1.892  23.463  0.00  0.00    +0.057 C 
ATOM     16  C27 UNL     1      16.564   3.415  23.607  0.00  0.00    +0.021 C 
ATOM     17  C28 UNL     1      17.792   4.325  23.484  0.00  0.00    +0.028 C 
BRANCH  15  18
ATOM     18  N4  UNL     1      16.467   1.394  22.120  0.00  0.00    -0.297 NA
ATOM     19  C22 UNL     1      15.441   2.278  21.496  0.00  0.00    +0.100 C 
ATOM     20  C23 UNL     1      13.995   1.772  21.679  0.00  0.00    +0.099 C 
ATOM     21  N5  UNL     1      13.893   0.976  22.912  0.00  0.00    -0.303 NA
ATOM     22  C24 UNL     1      12.487   0.653  23.203  0.00  0.00    +0.105 C 
ATOM     23  C25 UNL     1      14.693  -0.260  22.799  0.00  0.00    +0.099 C 
ATOM     24  C26 UNL     1      16.028  -0.021  22.058  0.00  0.00    +0.100 C 
ENDBRANCH  15  18
ENDBRANCH   5  12
BRANCH   1  27
ATOM     25  C8  UNL     1      21.898   3.449  26.900  0.00  0.00    +0.249 C 
ATOM     26  O1  UNL     1      22.548   2.642  26.181  0.00  0.00    -0.270 OA
ATOM     27  N1  UNL     1      21.313   4.619  26.303  0.00  0.00    -0.267 N 
ATOM     28  H10 UNL     1      21.173   5.465  26.900  0.00  0.00    +0.157 HD
BRANCH  25  32
ATOM     29  C4  UNL     1      21.539   2.694  31.128  0.00  0.00    -0.045 A 
ATOM     30  C5  UNL     1      21.158   3.937  30.592  0.00  0.00    +0.004 A 
ATOM     31  C6  UNL     1      21.269   4.184  29.220  0.00  0.00    +0.013 A 
ATOM     32  C7  UNL     1      21.773   3.195  28.355  0.00  0.00    +0.037 A 
ATOM     33  C29 UNL     1      22.137   1.947  28.889  0.00  0.00    +0.013 A 
ATOM     34  C30 UNL     1      22.022   1.699  30.259  0.00  0.00    +0.004 A 
BRANCH  29  36
ATOM     35  C1  UNL     1      21.178   3.747  33.381  0.00  0.00    +0.012 C 
ATOM     36  C2  UNL     1      21.407   2.438  32.617  0.00  0.00    +0.013 C 
ATOM     37  C3  UNL     1      20.290   1.429  32.911  0.00  0.00    +0.012 C 
ENDBRANCH  29  36
ENDBRANCH  25  32
ENDBRANCH   1  27
TORSDOF 6
ENDMDL
MODEL 8
REMARK VINA RESULT:    -7.025     11.535     13.660
REMARK INTER + INTRA:         -10.920
REMARK INTER:                  -9.395
REMARK INTRA:                  -1.525
REMARK UNBOUND:                -1.430
REMARK  Name = /home/qwerty/github/datacon2025hack/step_04_hit_selection/docking/ligands/lig_788.pdb
REMARK  9 active torsions:
REMARK  status: ('A' for Active; 'I' for Inactive)
REMARK    1  A    between atoms: C1_1  and  C2_2
REMARK    2  A    between atoms: C2_2  and  C3_3
REMARK    3  A    between atoms: C2_2  and  C4_4
REMARK    4  A    between atoms: C7_7  and  C8_8
REMARK    5  A    between atoms: N1_10  and  C9_11
REMARK    6  A    between atoms: C11_13  and  C12_14
REMARK    7  A    between atoms: N3_21  and  C18_22
REMARK    8  A    between atoms: C21_25  and  N4_26
REMARK    9  A    between atoms: N5_29  and  C24_30
REMARK                            x       y       z     vdW  Elec       q    Type
REMARK                         _______ _______ _______ _____ _____    ______ ____
ROOT
ATOM      1  C9  UNL     1      10.517   1.268  23.605  0.00  0.00    +0.124 A 
ATOM      2  C10 UNL     1      11.670   0.547  23.387  0.00  0.00    +0.073 A 
ATOM      3  C11 UNL     1      12.316   1.245  22.376  0.00  0.00    +0.095 A 
ATOM      4  N2  UNL     1      11.590   2.335  22.049  0.00  0.00    -0.169 NA
ATOM      5  N3  UNL     1      10.489   2.341  22.785  0.00  0.00    -0.247 N 
ENDROOT
BRANCH   3   6
ATOM      6  C12 UNL     1      13.616   0.910  21.749  0.00  0.00    +0.002 A 
ATOM      7  C13 UNL     1      14.522   0.067  22.420  0.00  0.00    +0.010 A 
ATOM      8  C14 UNL     1      15.757  -0.248  21.848  0.00  0.00    +0.001 A 
ATOM      9  C15 UNL     1      16.104   0.272  20.600  0.00  0.00    +0.000 A 
ATOM     10  C16 UNL     1      15.212   1.106  19.920  0.00  0.00    +0.001 A 
ATOM     11  C17 UNL     1      13.975   1.425  20.488  0.00  0.00    +0.010 A 
ENDBRANCH   3   6
BRANCH   5  12
ATOM     12  C18 UNL     1       9.568   3.486  22.845  0.00  0.00    +0.109 C 
ATOM     13  C19 UNL     1       9.205   3.979  21.421  0.00  0.00    +0.028 C 
ATOM     14  C20 UNL     1      10.078   5.167  21.000  0.00  0.00    +0.021 C 
ATOM     15  C21 UNL     1       9.810   6.410  21.900  0.00  0.00    +0.057 C 
ATOM     16  C27 UNL     1       9.595   5.976  23.390  0.00  0.00    +0.021 C 
ATOM     17  C28 UNL     1      10.190   4.601  23.716  0.00  0.00    +0.028 C 
BRANCH  15  18
ATOM     18  N4  UNL     1      10.882   7.451  21.817  0.00  0.00    -0.297 NA
ATOM     19  C22 UNL     1      10.883   8.354  23.004  0.00  0.00    +0.100 C 
ATOM     20  C23 UNL     1      10.155   9.693  22.762  0.00  0.00    +0.099 C 
ATOM     21  N5  UNL     1       9.111   9.520  21.740  0.00  0.00    -0.303 NA
ATOM     22  C24 UNL     1       8.280  10.731  21.641  0.00  0.00    +0.105 C 
ATOM     23  C25 UNL     1       9.713   9.198  20.431  0.00  0.00    +0.099 C 
ATOM     24  C26 UNL     1      10.924   8.248  20.568  0.00  0.00    +0.100 C 
ENDBRANCH  15  18
ENDBRANCH   5  12
BRANCH   1  27
ATOM     25  C8  UNL     1       9.772   1.407  25.999  0.00  0.00    +0.249 C 
ATOM     26  O1  UNL     1      10.700   2.217  26.269  0.00  0.00    -0.270 OA
ATOM     27  N1  UNL     1       9.568   0.989  24.640  0.00  0.00    -0.267 N 
ATOM     28  H10 UNL     1       8.607   0.702  24.346  0.00  0.00    +0.157 HD
BRANCH  25  32
ATOM     29  C4  UNL     1       7.186   0.005  29.149  0.00  0.00    -0.045 A 
ATOM     30  C5  UNL     1       8.521  -0.431  29.077  0.00  0.00    +0.004 A 
ATOM     31  C6  UNL     1       9.364   0.024  28.059  0.00  0.00    +0.013 A 
ATOM     32  C7  UNL     1       8.887   0.921  27.085  0.00  0.00    +0.037 A 
ATOM     33  C29 UNL     1       7.558   1.371  27.168  0.00  0.00    +0.013 A 
ATOM     34  C30 UNL     1       6.717   0.918  28.188  0.00  0.00    +0.004 A 
BRANCH  29  36
ATOM     35  C1  UNL     1       7.110  -0.989  31.457  0.00  0.00    +0.012 C 
ATOM     36  C2  UNL     1       6.285  -0.492  30.263  0.00  0.00    +0.013 C 
ATOM     37  C3  UNL     1       5.289   0.590  30.698  0.00  0.00    +0.012 C 
ENDBRANCH  29  36
ENDBRANCH  25  32
ENDBRANCH   1  27
TORSDOF 6
ENDMDL
MODEL 9
REMARK VINA RESULT:    -7.024      2.223      8.231
REMARK INTER + INTRA:         -10.918
REMARK INTER:                  -9.362
REMARK INTRA:                  -1.556
REMARK UNBOUND:                -1.430
REMARK  Name = /home/qwerty/github/datacon2025hack/step_04_hit_selection/docking/ligands/lig_788.pdb
REMARK  9 active torsions:
REMARK  status: ('A' for Active; 'I' for Inactive)
REMARK    1  A    between atoms: C1_1  and  C2_2
REMARK    2  A    between atoms: C2_2  and  C3_3
REMARK    3  A    between atoms: C2_2  and  C4_4
REMARK    4  A    between atoms: C7_7  and  C8_8
REMARK    5  A    between atoms: N1_10  and  C9_11
REMARK    6  A    between atoms: C11_13  and  C12_14
REMARK    7  A    between atoms: N3_21  and  C18_22
REMARK    8  A    between atoms: C21_25  and  N4_26
REMARK    9  A    between atoms: N5_29  and  C24_30
REMARK                            x       y       z     vdW  Elec       q    Type
REMARK                         _______ _______ _______ _____ _____    ______ ____
ROOT
ATOM      1  C9  UNL     1      20.216   2.671  29.762  0.00  0.00    +0.124 A 
ATOM      2  C10 UNL     1      21.234   3.597  29.709  0.00  0.00    +0.073 A 
ATOM      3  C11 UNL     1      21.258   4.142  30.985  0.00  0.00    +0.095 A 
ATOM      4  N2  UNL     1      20.324   3.538  31.749  0.00  0.00    -0.169 NA
ATOM      5  N3  UNL     1      19.680   2.655  31.002  0.00  0.00    -0.247 N 
ENDROOT
BRANCH   3   6
ATOM      6  C12 UNL     1      22.171   5.195  31.489  0.00  0.00    +0.002 A 
ATOM      7  C13 UNL     1      22.227   6.444  30.842  0.00  0.00    +0.010 A 
ATOM      8  C14 UNL     1      23.092   7.443  31.297  0.00  0.00    +0.001 A 
ATOM      9  C15 UNL     1      23.912   7.208  32.403  0.00  0.00    +0.000 A 
ATOM     10  C16 UNL     1      23.864   5.974  33.057  0.00  0.00    +0.001 A 
ATOM     11  C17 UNL     1      23.000   4.972  32.606  0.00  0.00    +0.010 A 
ENDBRANCH   3   6
BRANCH   5  12
ATOM     12  C18 UNL     1      18.739   1.668  31.554  0.00  0.00    +0.109 C 
ATOM     13  C19 UNL     1      17.298   2.238  31.590  0.00  0.00    +0.028 C 
ATOM     14  C20 UNL     1      16.953   2.803  32.973  0.00  0.00    +0.021 C 
ATOM     15  C21 UNL     1      16.932   1.679  34.052  0.00  0.00    +0.057 C 
ATOM     16  C27 UNL     1      18.085   0.649  33.797  0.00  0.00    +0.021 C 
ATOM     17  C28 UNL     1      19.229   1.213  32.948  0.00  0.00    +0.028 C 
BRANCH  15  18
ATOM     18  N4  UNL     1      17.003   2.195  35.455  0.00  0.00    -0.297 NA
ATOM     19  C22 UNL     1      17.727   1.259  36.363  0.00  0.00    +0.100 C 
ATOM     20  C23 UNL     1      16.791   0.356  37.193  0.00  0.00    +0.099 C 
ATOM     21  N5  UNL     1      15.528   0.141  36.470  0.00  0.00    -0.303 NA
ATOM     22  C24 UNL     1      14.708  -0.872  37.154  0.00  0.00    +0.105 C 
ATOM     23  C25 UNL     1      14.781   1.408  36.341  0.00  0.00    +0.099 C 
ATOM     24  C26 UNL     1      15.716   2.607  36.065  0.00  0.00    +0.100 C 
ENDBRANCH  15  18
ENDBRANCH   5  12
BRANCH   1  27
ATOM     25  C8  UNL     1      18.709   1.956  27.884  0.00  0.00    +0.249 C 
ATOM     26  O1  UNL     1      18.067   3.039  27.952  0.00  0.00    -0.270 OA
ATOM     27  N1  UNL     1      19.878   1.773  28.700  0.00  0.00    -0.267 N 
ATOM     28  H10 UNL     1      20.626   1.126  28.360  0.00  0.00    +0.157 HD
BRANCH  25  32
ATOM     29  C4  UNL     1      17.411  -1.115  25.153  0.00  0.00    -0.045 A 
ATOM     30  C5  UNL     1      18.665  -0.500  24.989  0.00  0.00    +0.004 A 
ATOM     31  C6  UNL     1      19.091   0.494  25.876  0.00  0.00    +0.013 A 
ATOM     32  C7  UNL     1      18.268   0.901  26.941  0.00  0.00    +0.037 A 
ATOM     33  C29 UNL     1      17.022   0.274  27.115  0.00  0.00    +0.013 A 
ATOM     34  C30 UNL     1      16.597  -0.722  26.231  0.00  0.00    +0.004 A 
BRANCH  29  36
ATOM     35  C1  UNL     1      15.780  -2.986  24.758  0.00  0.00    +0.012 C 
ATOM     36  C2  UNL     1      16.964  -2.195  24.187  0.00  0.00    +0.013 C 
ATOM     37  C3  UNL     1      16.619  -1.607  22.814  0.00  0.00    +0.012 C 
ENDBRANCH  29  36
ENDBRANCH  25  32
ENDBRANCH   1  27
TORSDOF 6
ENDMDL
