MODEL 1
REMARK VINA RESULT:    -7.019      0.000      0.000
REMARK INTER + INTRA:          -8.675
REMARK INTER:                  -8.250
REMARK INTRA:                  -0.425
REMARK UNBOUND:                -0.425
REMARK  Name = /home/qwerty/github/datacon2025hack/step_04_hit_selection/docking/ligands/lig_133.pdb
REMARK  5 active torsions:
REMARK  status: ('A' for Active; 'I' for Inactive)
REMARK    1  A    between atoms: C1_1  and  C2_2
REMARK    2  A    between atoms: C4_4  and  N1_5
REMARK    3  A    between atoms: N2_8  and  C6_9
REMARK    4  A    between atoms: C6_9  and  C7_10
REMARK    5  A    between atoms: C6_9  and  C8_11
REMARK                            x       y       z     vdW  Elec       q    Type
REMARK                         _______ _______ _______ _____ _____    ______ ____
ROOT
ATOM      1  N1  UNL     1      10.038   4.895  20.486  0.00  0.00    -0.269 N 
ATOM      2  C5  UNL     1      10.449   4.029  21.553  0.00  0.00    +0.304 C 
ATOM      3  O1  UNL     1      10.679   4.497  22.702  0.00  0.00    -0.252 OA
ATOM      4  N2  UNL     1      10.643   2.631  21.297  0.00  0.00    -0.293 N 
ATOM      5  H5  UNL     1      10.128   4.536  19.508  0.00  0.00    +0.156 HD
ATOM      6  H6  UNL     1      10.435   2.271  20.337  0.00  0.00    +0.151 HD
ENDROOT
BRANCH   1  10
ATOM      7  C1  UNL     1      10.956   9.789  20.041  0.00  0.00    +0.045 C 
ATOM      8  C2  UNL     1      10.059   8.662  20.473  0.00  0.00    -0.035 A 
ATOM      9  C3  UNL     1      10.461   7.330  20.272  0.00  0.00    +0.027 A 
ATOM     10  C4  UNL     1       9.634   6.263  20.667  0.00  0.00    +0.035 A 
ATOM     11  C16 UNL     1       8.418   6.542  21.302  0.00  0.00    +0.024 A 
ATOM     12  C17 UNL     1       8.011   7.861  21.508  0.00  0.00    +0.017 A 
ATOM     13  C18 UNL     1       8.821   8.924  21.095  0.00  0.00    +0.021 A 
ATOM     14 BR1  UNL     1       8.205  10.713  21.409  0.00  0.00    -0.050 Br
ENDBRANCH   1  10
BRANCH   4  15
ATOM     15  C6  UNL     1      11.113   1.706  22.334  0.00  0.00    +0.102 C 
ATOM     16  C7  UNL     1      10.155   0.518  22.473  0.00  0.00    +0.033 C 
BRANCH  15  17
ATOM     17  C8  UNL     1      12.509   1.216  22.012  0.00  0.00    -0.025 A 
ATOM     18  C9  UNL     1      13.198   1.703  20.885  0.00  0.00    +0.009 A 
ATOM     19  C10 UNL     1      14.480   1.236  20.584  0.00  0.00    +0.048 A 
ATOM     20  C11 UNL     1      15.090   0.283  21.403  0.00  0.00    +0.142 A 
ATOM     21  C12 UNL     1      14.407  -0.223  22.519  0.00  0.00    +0.076 A 
ATOM     22  C13 UNL     1      13.118   0.240  22.819  0.00  0.00    +0.032 A 
ATOM     23  N3  UNL     1      15.021  -1.246  23.311  0.00  0.00    -0.280 N 
ATOM     24  C14 UNL     1      16.355  -1.670  23.019  0.00  0.00    +0.255 C 
ATOM     25  O2  UNL     1      16.855  -2.647  23.636  0.00  0.00    -0.272 OA
ATOM     26  C15 UNL     1      17.187  -0.898  22.034  0.00  0.00    +0.325 C 
ATOM     27  O3  UNL     1      16.372  -0.188  21.096  0.00  0.00    -0.481 OA
ATOM     28  H14 UNL     1      14.489  -1.706  24.084  0.00  0.00    +0.155 HD
ENDBRANCH  15  17
ENDBRANCH   4  15
TORSDOF 3
ENDMDL
MODEL 2
REMARK VINA RESULT:    -6.869     17.150     17.682
REMARK INTER + INTRA:          -8.499
REMARK INTER:                  -8.111
REMARK INTRA:                  -0.388
REMARK UNBOUND:                -0.425
REMARK  Name = /home/qwerty/github/datacon2025hack/step_04_hit_selection/docking/ligands/lig_133.pdb
REMARK  5 active torsions:
REMARK  status: ('A' for Active; 'I' for Inactive)
REMARK    1  A    between atoms: C1_1  and  C2_2
REMARK    2  A    between atoms: C4_4  and  N1_5
REMARK    3  A    between atoms: N2_8  and  C6_9
REMARK    4  A    between atoms: C6_9  and  C7_10
REMARK    5  A    between atoms: C6_9  and  C8_11
REMARK                            x       y       z     vdW  Elec       q    Type
REMARK                         _______ _______ _______ _____ _____    ______ ____
ROOT
ATOM      1  N1  UNL     1      16.156  12.034  37.280  0.00  0.00    -0.269 N 
ATOM      2  C5  UNL     1      17.206  11.923  36.307  0.00  0.00    +0.304 C 
ATOM      3  O1  UNL     1      16.939  11.948  35.074  0.00  0.00    -0.252 OA
ATOM      4  N2  UNL     1      18.559  11.737  36.744  0.00  0.00    -0.293 N 
ATOM      5  H5  UNL     1      16.368  11.733  38.258  0.00  0.00    +0.156 HD
ATOM      6  H6  UNL     1      18.751  11.730  37.772  0.00  0.00    +0.151 HD
ENDROOT
BRANCH   1  10
ATOM      7  C1  UNL     1      11.307  10.877  36.909  0.00  0.00    +0.045 C 
ATOM      8  C2  UNL     1      12.428  11.869  36.765  0.00  0.00    -0.035 A 
ATOM      9  C3  UNL     1      13.742  11.493  37.093  0.00  0.00    +0.027 A 
ATOM     10  C4  UNL     1      14.803  12.408  36.968  0.00  0.00    +0.035 A 
ATOM     11  C16 UNL     1      14.542  13.691  36.473  0.00  0.00    +0.024 A 
ATOM     12  C17 UNL     1      13.240  14.073  36.143  0.00  0.00    +0.017 A 
ATOM     13  C18 UNL     1      12.181  13.173  36.290  0.00  0.00    +0.021 A 
ATOM     14 BR1  UNL     1      10.417  13.759  35.817  0.00  0.00    -0.050 Br
ENDBRANCH   1  10
BRANCH   4  15
ATOM     15  C6  UNL     1      19.667  11.564  35.798  0.00  0.00    +0.102 C 
ATOM     16  C7  UNL     1      20.685  12.699  35.945  0.00  0.00    +0.033 C 
BRANCH  15  17
ATOM     17  C8  UNL     1      20.342  10.226  36.013  0.00  0.00    -0.025 A 
ATOM     18  C9  UNL     1      19.928   9.372  37.052  0.00  0.00    +0.009 A 
ATOM     19  C10 UNL     1      20.565   8.145  37.256  0.00  0.00    +0.048 A 
ATOM     20  C11 UNL     1      21.618   7.755  36.425  0.00  0.00    +0.142 A 
ATOM     21  C12 UNL     1      22.052   8.605  35.397  0.00  0.00    +0.076 A 
ATOM     22  C13 UNL     1      21.417   9.839  35.195  0.00  0.00    +0.032 A 
ATOM     23  N3  UNL     1      23.174   8.218  34.596  0.00  0.00    -0.280 N 
ATOM     24  C14 UNL     1      23.777   6.935  34.784  0.00  0.00    +0.255 C 
ATOM     25  O2  UNL     1      24.832   6.637  34.165  0.00  0.00    -0.272 OA
ATOM     26  C15 UNL     1      23.104   5.914  35.657  0.00  0.00    +0.325 C 
ATOM     27  O3  UNL     1      22.259   6.528  36.635  0.00  0.00    -0.481 OA
ATOM     28  H14 UNL     1      23.574   8.880  33.894  0.00  0.00    +0.155 HD
ENDBRANCH  15  17
ENDBRANCH   4  15
TORSDOF 3
ENDMDL
MODEL 3
REMARK VINA RESULT:    -6.865      5.850      6.883
REMARK INTER + INTRA:          -8.494
REMARK INTER:                  -8.004
REMARK INTRA:                  -0.490
REMARK UNBOUND:                -0.425
REMARK  Name = /home/qwerty/github/datacon2025hack/step_04_hit_selection/docking/ligands/lig_133.pdb
REMARK  5 active torsions:
REMARK  status: ('A' for Active; 'I' for Inactive)
REMARK    1  A    between atoms: C1_1  and  C2_2
REMARK    2  A    between atoms: C4_4  and  N1_5
REMARK    3  A    between atoms: N2_8  and  C6_9
REMARK    4  A    between atoms: C6_9  and  C7_10
REMARK    5  A    between atoms: C6_9  and  C8_11
REMARK                            x       y       z     vdW  Elec       q    Type
REMARK                         _______ _______ _______ _____ _____    ______ ____
ROOT
ATOM      1  N1  UNL     1      16.942   7.034  18.724  0.00  0.00    -0.269 N 
ATOM      2  C5  UNL     1      16.234   6.490  19.847  0.00  0.00    +0.304 C 
ATOM      3  O1  UNL     1      16.563   6.805  21.024  0.00  0.00    -0.252 OA
ATOM      4  N2  UNL     1      15.176   5.546  19.628  0.00  0.00    -0.293 N 
ATOM      5  H5  UNL     1      16.836   6.550  17.804  0.00  0.00    +0.156 HD
ATOM      6  H6  UNL     1      14.918   5.312  18.642  0.00  0.00    +0.151 HD
ENDROOT
BRANCH   1  10
ATOM      7  C1  UNL     1      17.946  11.851  19.605  0.00  0.00    +0.045 C 
ATOM      8  C2  UNL     1      18.403  10.470  19.225  0.00  0.00    -0.035 A 
ATOM      9  C3  UNL     1      17.474   9.418  19.162  0.00  0.00    +0.027 A 
ATOM     10  C4  UNL     1      17.883   8.118  18.812  0.00  0.00    +0.035 A 
ATOM     11  C16 UNL     1      19.225   7.891  18.485  0.00  0.00    +0.024 A 
ATOM     12  C17 UNL     1      20.155   8.930  18.543  0.00  0.00    +0.017 A 
ATOM     13  C18 UNL     1      19.755  10.218  18.914  0.00  0.00    +0.021 A 
ATOM     14 BR1  UNL     1      21.081  11.602  18.972  0.00  0.00    -0.050 Br
ENDBRANCH   1  10
BRANCH   4  15
ATOM     15  C6  UNL     1      14.451   4.916  20.737  0.00  0.00    +0.102 C 
ATOM     16  C7  UNL     1      12.972   4.730  20.381  0.00  0.00    +0.033 C 
BRANCH  15  17
ATOM     17  C8  UNL     1      15.076   3.581  21.085  0.00  0.00    -0.025 A 
ATOM     18  C9  UNL     1      15.466   3.295  22.407  0.00  0.00    +0.009 A 
ATOM     19  C10 UNL     1      16.056   2.068  22.721  0.00  0.00    +0.048 A 
ATOM     20  C11 UNL     1      16.261   1.112  21.722  0.00  0.00    +0.142 A 
ATOM     21  C12 UNL     1      15.893   1.393  20.397  0.00  0.00    +0.076 A 
ATOM     22  C13 UNL     1      15.306   2.626  20.080  0.00  0.00    +0.032 A 
ATOM     23  N3  UNL     1      16.169   0.429  19.376  0.00  0.00    -0.280 N 
ATOM     24  C14 UNL     1      16.723  -0.843  19.725  0.00  0.00    +0.255 C 
ATOM     25  O2  UNL     1      17.074  -1.647  18.822  0.00  0.00    -0.272 OA
ATOM     26  C15 UNL     1      16.808  -1.250  21.169  0.00  0.00    +0.325 C 
ATOM     27  O3  UNL     1      16.858  -0.114  22.037  0.00  0.00    -0.481 OA
ATOM     28  H14 UNL     1      15.995   0.659  18.372  0.00  0.00    +0.155 HD
ENDBRANCH  15  17
ENDBRANCH   4  15
TORSDOF 3
ENDMDL
MODEL 4
REMARK VINA RESULT:    -6.587     16.722     17.352
REMARK INTER + INTRA:          -8.168
REMARK INTER:                  -8.183
REMARK INTRA:                   0.015
REMARK UNBOUND:                -0.425
REMARK  Name = /home/qwerty/github/datacon2025hack/step_04_hit_selection/docking/ligands/lig_133.pdb
REMARK  5 active torsions:
REMARK  status: ('A' for Active; 'I' for Inactive)
REMARK    1  A    between atoms: C1_1  and  C2_2
REMARK    2  A    between atoms: C4_4  and  N1_5
REMARK    3  A    between atoms: N2_8  and  C6_9
REMARK    4  A    between atoms: C6_9  and  C7_10
REMARK    5  A    between atoms: C6_9  and  C8_11
REMARK                            x       y       z     vdW  Elec       q    Type
REMARK                         _______ _______ _______ _____ _____    ______ ____
ROOT
ATOM      1  N1  UNL     1      18.957  10.587  37.672  0.00  0.00    -0.269 N 
ATOM      2  C5  UNL     1      19.288   9.257  37.246  0.00  0.00    +0.304 C 
ATOM      3  O1  UNL     1      18.544   8.645  36.431  0.00  0.00    -0.252 OA
ATOM      4  N2  UNL     1      20.446   8.606  37.786  0.00  0.00    -0.293 N 
ATOM      5  H5  UNL     1      19.422  10.947  38.537  0.00  0.00    +0.156 HD
ATOM      6  H6  UNL     1      21.049   9.142  38.451  0.00  0.00    +0.151 HD
ENDROOT
BRANCH   1  10
ATOM      7  C1  UNL     1      17.598  14.121  34.409  0.00  0.00    +0.045 C 
ATOM      8  C2  UNL     1      17.246  13.133  35.486  0.00  0.00    -0.035 A 
ATOM      9  C3  UNL     1      18.250  12.332  36.057  0.00  0.00    +0.027 A 
ATOM     10  C4  UNL     1      17.940  11.400  37.064  0.00  0.00    +0.035 A 
ATOM     11  C16 UNL     1      16.620  11.306  37.523  0.00  0.00    +0.024 A 
ATOM     12  C17 UNL     1      15.617  12.099  36.963  0.00  0.00    +0.017 A 
ATOM     13  C18 UNL     1      15.919  13.009  35.945  0.00  0.00    +0.021 A 
ATOM     14 BR1  UNL     1      14.495  14.069  35.220  0.00  0.00    -0.050 Br
ENDBRANCH   1  10
BRANCH   4  15
ATOM     15  C6  UNL     1      20.805   7.229  37.429  0.00  0.00    +0.102 C 
ATOM     16  C7  UNL     1      19.600   6.297  37.593  0.00  0.00    +0.033 C 
BRANCH  15  17
ATOM     17  C8  UNL     1      21.323   7.169  36.008  0.00  0.00    -0.025 A 
ATOM     18  C9  UNL     1      20.770   6.266  35.080  0.00  0.00    +0.009 A 
ATOM     19  C10 UNL     1      21.262   6.204  33.774  0.00  0.00    +0.048 A 
ATOM     20  C11 UNL     1      22.307   7.042  33.377  0.00  0.00    +0.142 A 
ATOM     21  C12 UNL     1      22.878   7.933  34.297  0.00  0.00    +0.076 A 
ATOM     22  C13 UNL     1      22.390   7.993  35.610  0.00  0.00    +0.032 A 
ATOM     23  N3  UNL     1      23.991   8.738  33.893  0.00  0.00    -0.280 N 
ATOM     24  C14 UNL     1      24.444   8.700  32.537  0.00  0.00    +0.255 C 
ATOM     25  O2  UNL     1      25.491   9.316  32.204  0.00  0.00    -0.272 OA
ATOM     26  C15 UNL     1      23.625   7.993  31.494  0.00  0.00    +0.325 C 
ATOM     27  O3  UNL     1      22.803   6.973  32.070  0.00  0.00    -0.481 OA
ATOM     28  H14 UNL     1      24.493   9.334  34.589  0.00  0.00    +0.155 HD
ENDBRANCH  15  17
ENDBRANCH   4  15
TORSDOF 3
ENDMDL
MODEL 5
REMARK VINA RESULT:    -6.511      9.357     12.895
REMARK INTER + INTRA:          -8.078
REMARK INTER:                  -8.117
REMARK INTRA:                   0.039
REMARK UNBOUND:                -0.425
REMARK  Name = /home/qwerty/github/datacon2025hack/step_04_hit_selection/docking/ligands/lig_133.pdb
REMARK  5 active torsions:
REMARK  status: ('A' for Active; 'I' for Inactive)
REMARK    1  A    between atoms: C1_1  and  C2_2
REMARK    2  A    between atoms: C4_4  and  N1_5
REMARK    3  A    between atoms: N2_8  and  C6_9
REMARK    4  A    between atoms: C6_9  and  C7_10
REMARK    5  A    between atoms: C6_9  and  C8_11
REMARK                            x       y       z     vdW  Elec       q    Type
REMARK                         _______ _______ _______ _____ _____    ______ ____
ROOT
ATOM      1  N1  UNL     1      12.346  14.109  27.308  0.00  0.00    -0.269 N 
ATOM      2  C5  UNL     1      11.120  14.046  28.051  0.00  0.00    +0.304 C 
ATOM      3  O1  UNL     1      11.113  14.277  29.291  0.00  0.00    -0.252 OA
ATOM      4  N2  UNL     1       9.905  13.674  27.385  0.00  0.00    -0.293 N 
ATOM      5  H5  UNL     1      12.367  13.649  26.369  0.00  0.00    +0.156 HD
ATOM      6  H6  UNL     1       9.941  13.499  26.354  0.00  0.00    +0.151 HD
ENDROOT
BRANCH   1  10
ATOM      7  C1  UNL     1      16.626  16.594  26.611  0.00  0.00    +0.045 C 
ATOM      8  C2  UNL     1      15.681  15.849  27.511  0.00  0.00    -0.035 A 
ATOM      9  C3  UNL     1      14.474  15.345  26.996  0.00  0.00    +0.027 A 
ATOM     10  C4  UNL     1      13.576  14.648  27.823  0.00  0.00    +0.035 A 
ATOM     11  C16 UNL     1      13.915  14.424  29.163  0.00  0.00    +0.024 A 
ATOM     12  C17 UNL     1      15.112  14.919  29.683  0.00  0.00    +0.017 A 
ATOM     13  C18 UNL     1      15.996  15.633  28.868  0.00  0.00    +0.021 A 
ATOM     14 BR1  UNL     1      17.624  16.285  29.645  0.00  0.00    -0.050 Br
ENDBRANCH   1  10
BRANCH   4  15
ATOM     15  C6  UNL     1       8.632  13.541  28.100  0.00  0.00    +0.102 C 
ATOM     16  C7  UNL     1       7.515  14.283  27.359  0.00  0.00    +0.033 C 
BRANCH  15  17
ATOM     17  C8  UNL     1       8.269  12.081  28.267  0.00  0.00    -0.025 A 
ATOM     18  C9  UNL     1       7.783  11.598  29.496  0.00  0.00    +0.009 A 
ATOM     19  C10 UNL     1       7.464  10.246  29.649  0.00  0.00    +0.048 A 
ATOM     20  C11 UNL     1       7.622   9.363  28.578  0.00  0.00    +0.142 A 
ATOM     21  C12 UNL     1       8.122   9.829  27.353  0.00  0.00    +0.076 A 
ATOM     22  C13 UNL     1       8.448  11.183  27.200  0.00  0.00    +0.032 A 
ATOM     23  N3  UNL     1       8.339   8.898  26.287  0.00  0.00    -0.280 N 
ATOM     24  C14 UNL     1       7.955   7.529  26.445  0.00  0.00    +0.255 C 
ATOM     25  O2  UNL     1       8.248   6.686  25.557  0.00  0.00    -0.272 OA
ATOM     26  C15 UNL     1       7.129   7.117  27.631  0.00  0.00    +0.325 C 
ATOM     27  O3  UNL     1       7.308   8.008  28.736  0.00  0.00    -0.481 OA
ATOM     28  H14 UNL     1       8.803   9.206  25.404  0.00  0.00    +0.155 HD
ENDBRANCH  15  17
ENDBRANCH   4  15
TORSDOF 3
ENDMDL
MODEL 6
REMARK VINA RESULT:    -6.487      5.797      6.741
REMARK INTER + INTRA:          -8.050
REMARK INTER:                  -7.587
REMARK INTRA:                  -0.463
REMARK UNBOUND:                -0.425
REMARK  Name = /home/qwerty/github/datacon2025hack/step_04_hit_selection/docking/ligands/lig_133.pdb
REMARK  5 active torsions:
REMARK  status: ('A' for Active; 'I' for Inactive)
REMARK    1  A    between atoms: C1_1  and  C2_2
REMARK    2  A    between atoms: C4_4  and  N1_5
REMARK    3  A    between atoms: N2_8  and  C6_9
REMARK    4  A    between atoms: C6_9  and  C7_10
REMARK    5  A    between atoms: C6_9  and  C8_11
REMARK                            x       y       z     vdW  Elec       q    Type
REMARK                         _______ _______ _______ _____ _____    ______ ____
ROOT
ATOM      1  N1  UNL     1      16.890   7.835  19.140  0.00  0.00    -0.269 N 
ATOM      2  C5  UNL     1      16.456   7.162  20.331  0.00  0.00    +0.304 C 
ATOM      3  O1  UNL     1      16.882   7.527  21.461  0.00  0.00    -0.252 OA
ATOM      4  N2  UNL     1      15.569   6.039  20.228  0.00  0.00    -0.293 N 
ATOM      5  H5  UNL     1      16.748   7.345  18.227  0.00  0.00    +0.156 HD
ATOM      6  H6  UNL     1      15.225   5.767  19.278  0.00  0.00    +0.151 HD
ENDROOT
BRANCH   1  10
ATOM      7  C1  UNL     1      21.206  10.332  18.789  0.00  0.00    +0.045 C 
ATOM      8  C2  UNL     1      19.714  10.322  18.977  0.00  0.00    -0.035 A 
ATOM      9  C3  UNL     1      19.014   9.103  18.962  0.00  0.00    +0.027 A 
ATOM     10  C4  UNL     1      17.619   9.075  19.133  0.00  0.00    +0.035 A 
ATOM     11  C16 UNL     1      16.934  10.275  19.361  0.00  0.00    +0.024 A 
ATOM     12  C17 UNL     1      17.621  11.490  19.379  0.00  0.00    +0.017 A 
ATOM     13  C18 UNL     1      19.006  11.523  19.185  0.00  0.00    +0.021 A 
ATOM     14 BR1  UNL     1      19.889  13.225  19.224  0.00  0.00    -0.050 Br
ENDBRANCH   1  10
BRANCH   4  15
ATOM     15  C6  UNL     1      15.134   5.278  21.404  0.00  0.00    +0.102 C 
ATOM     16  C7  UNL     1      13.635   5.476  21.651  0.00  0.00    +0.033 C 
BRANCH  15  17
ATOM     17  C8  UNL     1      15.444   3.807  21.226  0.00  0.00    -0.025 A 
ATOM     18  C9  UNL     1      15.942   3.321  20.003  0.00  0.00    +0.009 A 
ATOM     19  C10 UNL     1      16.212   1.960  19.839  0.00  0.00    +0.048 A 
ATOM     20  C11 UNL     1      15.992   1.070  20.894  0.00  0.00    +0.142 A 
ATOM     21  C12 UNL     1      15.479   1.539  22.112  0.00  0.00    +0.076 A 
ATOM     22  C13 UNL     1      15.203   2.904  22.276  0.00  0.00    +0.032 A 
ATOM     23  N3  UNL     1      15.199   0.604  23.159  0.00  0.00    -0.280 N 
ATOM     24  C14 UNL     1      15.533  -0.776  22.993  0.00  0.00    +0.255 C 
ATOM     25  O2  UNL     1      15.185  -1.619  23.861  0.00  0.00    -0.272 OA
ATOM     26  C15 UNL     1      16.372  -1.206  21.822  0.00  0.00    +0.325 C 
ATOM     27  O3  UNL     1      16.257  -0.294  20.726  0.00  0.00    -0.481 OA
ATOM     28  H14 UNL     1      14.724   0.919  24.035  0.00  0.00    +0.155 HD
ENDBRANCH  15  17
ENDBRANCH   4  15
TORSDOF 3
ENDMDL
MODEL 7
REMARK VINA RESULT:    -6.454      4.128      9.854
REMARK INTER + INTRA:          -8.011
REMARK INTER:                  -7.574
REMARK INTRA:                  -0.436
REMARK UNBOUND:                -0.425
REMARK  Name = /home/qwerty/github/datacon2025hack/step_04_hit_selection/docking/ligands/lig_133.pdb
REMARK  5 active torsions:
REMARK  status: ('A' for Active; 'I' for Inactive)
REMARK    1  A    between atoms: C1_1  and  C2_2
REMARK    2  A    between atoms: C4_4  and  N1_5
REMARK    3  A    between atoms: N2_8  and  C6_9
REMARK    4  A    between atoms: C6_9  and  C7_10
REMARK    5  A    between atoms: C6_9  and  C8_11
REMARK                            x       y       z     vdW  Elec       q    Type
REMARK                         _______ _______ _______ _____ _____    ______ ____
ROOT
ATOM      1  N1  UNL     1      13.545   0.575  21.861  0.00  0.00    -0.269 N 
ATOM      2  C5  UNL     1      13.768   1.976  21.644  0.00  0.00    +0.304 C 
ATOM      3  O1  UNL     1      14.717   2.570  22.227  0.00  0.00    -0.252 OA
ATOM      4  N2  UNL     1      12.878   2.712  20.793  0.00  0.00    -0.293 N 
ATOM      5  H5  UNL     1      12.611   0.187  21.597  0.00  0.00    +0.156 HD
ATOM      6  H6  UNL     1      12.107   2.191  20.316  0.00  0.00    +0.151 HD
ENDROOT
BRANCH   1  10
ATOM      7  C1  UNL     1      14.909  -2.014  25.913  0.00  0.00    +0.045 C 
ATOM      8  C2  UNL     1      15.171  -1.561  24.503  0.00  0.00    -0.035 A 
ATOM      9  C3  UNL     1      14.246  -0.726  23.854  0.00  0.00    +0.027 A 
ATOM     10  C4  UNL     1      14.471  -0.295  22.534  0.00  0.00    +0.035 A 
ATOM     11  C16 UNL     1      15.652  -0.674  21.885  0.00  0.00    +0.024 A 
ATOM     12  C17 UNL     1      16.578  -1.502  22.523  0.00  0.00    +0.017 A 
ATOM     13  C18 UNL     1      16.344  -1.951  23.827  0.00  0.00    +0.021 A 
ATOM     14 BR1  UNL     1      17.656  -3.085  24.647  0.00  0.00    -0.050 Br
ENDBRANCH   1  10
BRANCH   4  15
ATOM     15  C6  UNL     1      13.023   4.156  20.575  0.00  0.00    +0.102 C 
ATOM     16  C7  UNL     1      13.550   4.439  19.164  0.00  0.00    +0.033 C 
BRANCH  15  17
ATOM     17  C8  UNL     1      11.700   4.859  20.789  0.00  0.00    -0.025 A 
ATOM     18  C9  UNL     1      10.526   4.121  21.030  0.00  0.00    +0.009 A 
ATOM     19  C10 UNL     1       9.304   4.774  21.212  0.00  0.00    +0.048 A 
ATOM     20  C11 UNL     1       9.240   6.168  21.159  0.00  0.00    +0.142 A 
ATOM     21  C12 UNL     1      10.400   6.914  20.902  0.00  0.00    +0.076 A 
ATOM     22  C13 UNL     1      11.625   6.260  20.714  0.00  0.00    +0.032 A 
ATOM     23  N3  UNL     1      10.304   8.339  20.786  0.00  0.00    -0.280 N 
ATOM     24  C14 UNL     1       9.056   8.992  21.030  0.00  0.00    +0.255 C 
ATOM     25  O2  UNL     1       8.939  10.228  20.818  0.00  0.00    -0.272 OA
ATOM     26  C15 UNL     1       7.909   8.219  21.618  0.00  0.00    +0.325 C 
ATOM     27  O3  UNL     1       8.014   6.821  21.335  0.00  0.00    -0.481 OA
ATOM     28  H14 UNL     1      11.135   8.902  20.497  0.00  0.00    +0.155 HD
ENDBRANCH  15  17
ENDBRANCH   4  15
TORSDOF 3
ENDMDL
MODEL 8
REMARK VINA RESULT:    -6.305     12.950     15.209
REMARK INTER + INTRA:          -7.836
REMARK INTER:                  -7.353
REMARK INTRA:                  -0.483
REMARK UNBOUND:                -0.425
REMARK  Name = /home/qwerty/github/datacon2025hack/step_04_hit_selection/docking/ligands/lig_133.pdb
REMARK  5 active torsions:
REMARK  status: ('A' for Active; 'I' for Inactive)
REMARK    1  A    between atoms: C1_1  and  C2_2
REMARK    2  A    between atoms: C4_4  and  N1_5
REMARK    3  A    between atoms: N2_8  and  C6_9
REMARK    4  A    between atoms: C6_9  and  C7_10
REMARK    5  A    between atoms: C6_9  and  C8_11
REMARK                            x       y       z     vdW  Elec       q    Type
REMARK                         _______ _______ _______ _____ _____    ______ ____
ROOT
ATOM      1  N1  UNL     1      12.820  15.115  28.794  0.00  0.00    -0.269 N 
ATOM      2  C5  UNL     1      14.056  14.891  28.098  0.00  0.00    +0.304 C 
ATOM      3  O1  UNL     1      14.336  13.746  27.648  0.00  0.00    -0.252 OA
ATOM      4  N2  UNL     1      14.994  15.967  27.956  0.00  0.00    -0.293 N 
ATOM      5  H5  UNL     1      12.746  15.975  29.385  0.00  0.00    +0.156 HD
ATOM      6  H6  UNL     1      14.729  16.907  28.330  0.00  0.00    +0.151 HD
ENDROOT
BRANCH   1  10
ATOM      7  C1  UNL     1      10.537  11.205  30.911  0.00  0.00    +0.045 C 
ATOM      8  C2  UNL     1      10.600  12.257  29.838  0.00  0.00    -0.035 A 
ATOM      9  C3  UNL     1      11.659  13.181  29.826  0.00  0.00    +0.027 A 
ATOM     10  C4  UNL     1      11.734  14.174  28.832  0.00  0.00    +0.035 A 
ATOM     11  C16 UNL     1      10.760  14.208  27.827  0.00  0.00    +0.024 A 
ATOM     12  C17 UNL     1       9.706  13.292  27.830  0.00  0.00    +0.017 A 
ATOM     13  C18 UNL     1       9.617  12.319  28.831  0.00  0.00    +0.021 A 
ATOM     14 BR1  UNL     1       8.145  11.091  28.776  0.00  0.00    -0.050 Br
ENDBRANCH   1  10
BRANCH   4  15
ATOM     15  C6  UNL     1      16.295  15.786  27.303  0.00  0.00    +0.102 C 
ATOM     16  C7  UNL     1      16.452  16.762  26.132  0.00  0.00    +0.033 C 
BRANCH  15  17
ATOM     17  C8  UNL     1      17.418  15.978  28.299  0.00  0.00    -0.025 A 
ATOM     18  C9  UNL     1      17.340  16.981  29.284  0.00  0.00    +0.009 A 
ATOM     19  C10 UNL     1      18.387  17.165  30.191  0.00  0.00    +0.048 A 
ATOM     20  C11 UNL     1      19.520  16.350  30.128  0.00  0.00    +0.142 A 
ATOM     21  C12 UNL     1      19.618  15.360  29.140  0.00  0.00    +0.076 A 
ATOM     22  C13 UNL     1      18.571  15.178  28.226  0.00  0.00    +0.032 A 
ATOM     23  N3  UNL     1      20.814  14.578  29.049  0.00  0.00    -0.280 N 
ATOM     24  C14 UNL     1      21.850  14.743  30.021  0.00  0.00    +0.255 C 
ATOM     25  O2  UNL     1      22.949  14.143  29.880  0.00  0.00    -0.272 OA
ATOM     26  C15 UNL     1      21.597  15.568  31.251  0.00  0.00    +0.325 C 
ATOM     27  O3  UNL     1      20.571  16.541  31.034  0.00  0.00    -0.481 OA
ATOM     28  H14 UNL     1      20.947  13.906  28.261  0.00  0.00    +0.155 HD
ENDBRANCH  15  17
ENDBRANCH   4  15
TORSDOF 3
ENDMDL
MODEL 9
REMARK VINA RESULT:    -6.304     11.118     14.346
REMARK INTER + INTRA:          -7.835
REMARK INTER:                  -8.049
REMARK INTRA:                   0.214
REMARK UNBOUND:                -0.425
REMARK  Name = /home/qwerty/github/datacon2025hack/step_04_hit_selection/docking/ligands/lig_133.pdb
REMARK  5 active torsions:
REMARK  status: ('A' for Active; 'I' for Inactive)
REMARK    1  A    between atoms: C1_1  and  C2_2
REMARK    2  A    between atoms: C4_4  and  N1_5
REMARK    3  A    between atoms: N2_8  and  C6_9
REMARK    4  A    between atoms: C6_9  and  C7_10
REMARK    5  A    between atoms: C6_9  and  C8_11
REMARK                            x       y       z     vdW  Elec       q    Type
REMARK                         _______ _______ _______ _____ _____    ______ ____
ROOT
ATOM      1  N1  UNL     1      12.405  15.152  31.331  0.00  0.00    -0.269 N 
ATOM      2  C5  UNL     1      12.293  14.498  30.059  0.00  0.00    +0.304 C 
ATOM      3  O1  UNL     1      12.416  13.245  29.972  0.00  0.00    -0.252 OA
ATOM      4  N2  UNL     1      12.085  15.281  28.875  0.00  0.00    -0.293 N 
ATOM      5  H5  UNL     1      12.578  16.183  31.332  0.00  0.00    +0.156 HD
ATOM      6  H6  UNL     1      11.977  16.316  28.980  0.00  0.00    +0.151 HD
ENDROOT
BRANCH   1  10
ATOM      7  C1  UNL     1      10.165  13.875  35.613  0.00  0.00    +0.045 C 
ATOM      8  C2  UNL     1      11.359  13.832  34.701  0.00  0.00    -0.035 A 
ATOM      9  C3  UNL     1      11.318  14.495  33.462  0.00  0.00    +0.027 A 
ATOM     10  C4  UNL     1      12.424  14.464  32.594  0.00  0.00    +0.035 A 
ATOM     11  C16 UNL     1      13.587  13.796  32.995  0.00  0.00    +0.024 A 
ATOM     12  C17 UNL     1      13.638  13.137  34.224  0.00  0.00    +0.017 A 
ATOM     13  C18 UNL     1      12.532  13.147  35.079  0.00  0.00    +0.021 A 
ATOM     14 BR1  UNL     1      12.668  12.223  36.754  0.00  0.00    -0.050 Br
ENDBRANCH   1  10
BRANCH   4  15
ATOM     15  C6  UNL     1      12.016  14.675  27.541  0.00  0.00    +0.102 C 
ATOM     16  C7  UNL     1      13.362  14.049  27.161  0.00  0.00    +0.033 C 
BRANCH  15  17
ATOM     17  C8  UNL     1      10.921  13.631  27.491  0.00  0.00    -0.025 A 
ATOM     18  C9  UNL     1       9.606  13.950  27.880  0.00  0.00    +0.009 A 
ATOM     19  C10 UNL     1       8.603  12.979  27.847  0.00  0.00    +0.048 A 
ATOM     20  C11 UNL     1       8.897  11.680  27.423  0.00  0.00    +0.142 A 
ATOM     21  C12 UNL     1      10.208  11.345  27.050  0.00  0.00    +0.076 A 
ATOM     22  C13 UNL     1      11.217  12.317  27.088  0.00  0.00    +0.032 A 
ATOM     23  N3  UNL     1      10.506   9.994  26.681  0.00  0.00    -0.280 N 
ATOM     24  C14 UNL     1       9.454   9.028  26.600  0.00  0.00    +0.255 C 
ATOM     25  O2  UNL     1       9.726   7.816  26.389  0.00  0.00    -0.272 OA
ATOM     26  C15 UNL     1       8.021   9.473  26.684  0.00  0.00    +0.325 C 
ATOM     27  O3  UNL     1       7.892  10.707  27.396  0.00  0.00    -0.481 OA
ATOM     28  H14 UNL     1      11.492   9.702  26.498  0.00  0.00    +0.155 HD
ENDBRANCH  15  17
ENDBRANCH   4  15
TORSDOF 3
ENDMDL
