REMARK  Name = /home/qwerty/github/datacon2025hack/step_04_hit_selection/docking/ligands/lig_48.pdb
REMARK  8 active torsions:
REMARK  status: ('A' for Active; 'I' for Inactive)
REMARK    1  A    between atoms: C1_1  and  O1_2
REMARK    2  A    between atoms: O1_2  and  C2_3
REMARK    3  A    between atoms: C7_8  and  O2_9
REMARK    4  A    between atoms: O2_9  and  C8_10
REMARK    5  A    between atoms: N1_12  and  C10_13
REMARK    6  A    between atoms: C14_17  and  C15_18
REMARK    7  A    between atoms: C16_19  and  C17_20
REMARK    8  A    between atoms: C23_28  and  C24_29
REMARK                            x       y       z     vdW  Elec       q    Type
REMARK                         _______ _______ _______ _____ _____    ______ ____
ROOT
ATOM      1  C10 UNL     1       0.501  -0.115   0.577  0.00  0.00    +0.124 A 
ATOM      2  C11 UNL     1      -0.161  -0.431   1.772  0.00  0.00    +0.044 A 
ATOM      3  C12 UNL     1      -1.552  -0.344   1.836  0.00  0.00    +0.015 A 
ATOM      4  C13 UNL     1      -2.294   0.058   0.708  0.00  0.00    +0.023 A 
ATOM      5  C14 UNL     1      -3.709   0.158   0.709  0.00  0.00    -0.030 A 
ATOM      6  C15 UNL     1      -4.495  -0.203   1.954  0.00  0.00    +0.045 C 
ATOM      7  C16 UNL     1      -4.365   0.600  -0.471  0.00  0.00    +0.007 A 
ATOM      8  C23 UNL     1      -3.597   0.906  -1.617  0.00  0.00    +0.049 A 
ATOM      9  C24 UNL     1      -4.234   1.375  -2.893  0.00  0.00    +0.066 C 
ATOM     10  N2  UNL     1      -2.246   0.778  -1.579  0.00  0.00    -0.232 NA
ATOM     11  C25 UNL     1      -1.584   0.373  -0.470  0.00  0.00    +0.162 A 
ATOM     12  N3  UNL     1      -0.229   0.278  -0.502  0.00  0.00    -0.213 NA
ENDROOT
BRANCH   1  20
ATOM     13  C2  UNL     1       6.581  -0.642   0.735  0.00  0.00    +0.162 A 
ATOM     14  C3  UNL     1       5.410  -0.791   1.513  0.00  0.00    +0.055 A 
ATOM     15  C4  UNL     1       4.175  -0.512   0.929  0.00  0.00    -0.022 A 
ATOM     16  C5  UNL     1       4.080  -0.100  -0.376  0.00  0.00    -0.022 A 
ATOM     17  C6  UNL     1       5.214   0.057  -1.170  0.00  0.00    +0.055 A 
ATOM     18  C7  UNL     1       6.483  -0.217  -0.610  0.00  0.00    +0.162 A 
ATOM     19  C9  UNL     1       2.665   0.129  -0.756  0.00  0.00    +0.142 C 
ATOM     20  N1  UNL     1       1.935  -0.194   0.472  0.00  0.00    -0.306 N 
ATOM     21  C26 UNL     1       2.834  -0.601   1.555  0.00  0.00    +0.142 C 
BRANCH  13  23
ATOM     22  C1  UNL     1       8.107  -1.337   2.592  0.00  0.00    +0.277 C 
ATOM     23  O1  UNL     1       7.857  -0.904   1.258  0.00  0.00    -0.491 OA
ENDBRANCH  13  23
BRANCH  18  24
ATOM     24  O2  UNL     1       7.666  -0.080  -1.353  0.00  0.00    -0.491 OA
ATOM     25  C8  UNL     1       7.719   0.337  -2.713  0.00  0.00    +0.277 C 
ENDBRANCH  18  24
ENDBRANCH   1  20
BRANCH   7  26
ATOM     26  C17 UNL     1      -5.835   0.760  -0.516  0.00  0.00    -0.013 A 
ATOM     27  C18 UNL     1      -6.436   1.904   0.031  0.00  0.00    +0.011 A 
ATOM     28  C19 UNL     1      -7.825   2.055  -0.012  0.00  0.00    +0.042 A 
ATOM     29  C20 UNL     1      -8.620   1.067  -0.600  0.00  0.00    +0.158 A 
ATOM     30  F1  UNL     1      -9.967   1.217  -0.640  0.00  0.00    -0.202 F 
ATOM     31  C21 UNL     1      -8.025  -0.076  -1.147  0.00  0.00    +0.159 A 
ATOM     32  F2  UNL     1      -8.795  -1.036  -1.718  0.00  0.00    -0.202 F 
ATOM     33  C22 UNL     1      -6.636  -0.230  -1.105  0.00  0.00    +0.050 A 
ENDBRANCH   7  26
TORSDOF 4
