REMARK  Name = /home/qwerty/github/datacon2025hack/step_04_hit_selection/docking/ligands/lig_451.pdb
REMARK  7 active torsions:
REMARK  status: ('A' for Active; 'I' for Inactive)
REMARK    1  A    between atoms: C1_1  and  O1_2
REMARK    2  A    between atoms: O1_2  and  C2_3
REMARK    3  A    between atoms: C5_6  and  C6_7
REMARK    4  A    between atoms: C9_12  and  C10_14
REMARK    5  A    between atoms: C13_17  and  N2_18
REMARK    6  A    between atoms: N2_18  and  C14_19
REMARK    7  A    between atoms: N2_18  and  C15_20
REMARK                            x       y       z     vdW  Elec       q    Type
REMARK                         _______ _______ _______ _____ _____    ______ ____
ROOT
ATOM      1  C6  UNL     1       3.053  -1.740  -0.631  0.00  0.00    +0.080 A 
ATOM      2  C7  UNL     1       3.026  -3.085  -1.017  0.00  0.00    +0.076 A 
ATOM      3  S1  UNL     1       1.435  -3.626  -0.936  0.00  0.00    -0.060 S 
ATOM      4  C8  UNL     1       0.849  -2.144  -0.412  0.00  0.00    +0.165 A 
ATOM      5  N1  UNL     1      -0.533  -1.877  -0.143  0.00  0.00    -0.261 N 
ATOM      6  C9  UNL     1      -1.010  -0.628   0.389  0.00  0.00    +0.250 C 
ATOM      7  O2  UNL     1      -0.194   0.196   0.885  0.00  0.00    -0.270 OA
ATOM      8  N3  UNL     1       1.835  -1.229  -0.297  0.00  0.00    -0.225 NA
ATOM      9  H7  UNL     1      -1.212  -2.653  -0.309  0.00  0.00    +0.157 HD
ENDROOT
BRANCH   1  13
ATOM     10  C2  UNL     1       6.600   0.707  -0.429  0.00  0.00    +0.120 A 
ATOM     11  C3  UNL     1       6.636  -0.530  -1.079  0.00  0.00    +0.046 A 
ATOM     12  C4  UNL     1       5.493  -1.331  -1.151  0.00  0.00    +0.013 A 
ATOM     13  C5  UNL     1       4.284  -0.908  -0.566  0.00  0.00    +0.001 A 
ATOM     14  C18 UNL     1       4.250   0.340   0.082  0.00  0.00    +0.013 A 
ATOM     15  C19 UNL     1       5.395   1.140   0.153  0.00  0.00    +0.046 A 
BRANCH  10  17
ATOM     16  C1  UNL     1       7.882   2.746   0.242  0.00  0.00    +0.277 C 
ATOM     17  O1  UNL     1       7.775   1.472  -0.385  0.00  0.00    -0.495 OA
ENDBRANCH  10  17
ENDBRANCH   1  13
BRANCH   6  18
ATOM     18  C10 UNL     1      -2.458  -0.305   0.392  0.00  0.00    +0.037 A 
ATOM     19  C11 UNL     1      -3.336  -0.897  -0.530  0.00  0.00    +0.015 A 
ATOM     20  C12 UNL     1      -4.697  -0.579  -0.522  0.00  0.00    +0.024 A 
ATOM     21  C13 UNL     1      -5.219   0.346   0.405  0.00  0.00    +0.029 A 
ATOM     22  C16 UNL     1      -4.330   0.945   1.319  0.00  0.00    +0.024 A 
ATOM     23  C17 UNL     1      -2.969   0.627   1.309  0.00  0.00    +0.015 A 
BRANCH  21  24
ATOM     24  N2  UNL     1      -6.633   0.675   0.415  0.00  0.00    -0.336 N 
ATOM     25  C14 UNL     1      -7.615  -0.232  -0.193  0.00  0.00    +0.129 C 
ATOM     26  C15 UNL     1      -7.106   1.920   1.033  0.00  0.00    +0.129 C 
ENDBRANCH  21  24
ENDBRANCH   6  18
TORSDOF 4
