MODEL 1
REMARK VINA RESULT:    -6.377      0.000      0.000
REMARK INTER + INTRA:          -9.397
REMARK INTER:                  -8.613
REMARK INTRA:                  -0.784
REMARK UNBOUND:                -0.784
REMARK  Name = /home/qwerty/github/datacon2025hack/step_04_hit_selection/docking/ligands/lig_744.pdb
REMARK  7 active torsions:
REMARK  status: ('A' for Active; 'I' for Inactive)
REMARK    1  A    between atoms: C1_1  and  C2_2
REMARK    2  A    between atoms: C2_2  and  C3_3
REMARK    3  A    between atoms: C3_3  and  C4_4
REMARK    4  A    between atoms: C3_3  and  C13_20
REMARK    5  A    between atoms: C4_4  and  N1_5
REMARK    6  A    between atoms: C5_6  and  C6_8
REMARK    7  A    between atoms: N2_10  and  C7_11
REMARK                            x       y       z     vdW  Elec       q    Type
REMARK                         _______ _______ _______ _____ _____    ______ ____
ROOT
ATOM      1  N1  UNL     1      10.242  13.775  30.000  0.00  0.00    -0.307 N 
ATOM      2  C5  UNL     1      11.550  14.242  30.361  0.00  0.00    +0.299 C 
ATOM      3  O1  UNL     1      12.342  14.648  29.467  0.00  0.00    -0.265 OA
ATOM      4  H9  UNL     1       9.549  13.553  30.751  0.00  0.00    +0.149 HD
ENDROOT
BRANCH   2   5
ATOM      5  C6  UNL     1      11.977  14.256  31.773  0.00  0.00    +0.303 C 
ATOM      6  O2  UNL     1      12.132  15.359  32.362  0.00  0.00    -0.265 OA
ATOM      7  N2  UNL     1      12.174  13.022  32.485  0.00  0.00    -0.275 N 
ATOM      8  H10 UNL     1      11.761  12.150  32.083  0.00  0.00    +0.155 HD
BRANCH   7   9
ATOM      9  C7  UNL     1      12.805  12.935  33.776  0.00  0.00    +0.072 A 
ATOM     10  C8  UNL     1      14.196  13.099  33.919  0.00  0.00    +0.029 A 
ATOM     11  C9  UNL     1      14.794  12.986  35.177  0.00  0.00    +0.043 A 
ATOM     12  C10 UNL     1      14.015  12.699  36.301  0.00  0.00    +0.161 A 
ATOM     13  F1  UNL     1      14.601  12.589  37.519  0.00  0.00    -0.202 F 
ATOM     14  C11 UNL     1      12.636  12.515  36.167  0.00  0.00    +0.195 A 
ATOM     15  F2  UNL     1      11.882  12.228  37.257  0.00  0.00    -0.199 F 
ATOM     16  C12 UNL     1      12.032  12.625  34.908  0.00  0.00    +0.182 A 
ATOM     17  F3  UNL     1      10.692  12.447  34.795  0.00  0.00    -0.200 F 
ENDBRANCH   7   9
ENDBRANCH   2   5
BRANCH   1  18
ATOM     18  C4  UNL     1       9.820  13.609  28.608  0.00  0.00    +0.112 C 
BRANCH  18  19
ATOM     19  C3  UNL     1       8.307  13.303  28.519  0.00  0.00    +0.036 C 
BRANCH  19  20
ATOM     20  C13 UNL     1       8.068  11.815  28.323  0.00  0.00    -0.043 A 
ATOM     21  C14 UNL     1       7.615  11.026  29.397  0.00  0.00    +0.004 A 
ATOM     22  C15 UNL     1       7.371   9.661  29.219  0.00  0.00    +0.000 A 
ATOM     23  C16 UNL     1       7.572   9.070  27.971  0.00  0.00    +0.000 A 
ATOM     24  C17 UNL     1       8.016   9.842  26.895  0.00  0.00    +0.000 A 
ATOM     25  C18 UNL     1       8.261  11.208  27.066  0.00  0.00    +0.004 A 
ENDBRANCH  19  20
BRANCH  19  27
ATOM     26  C1  UNL     1       6.463  14.839  29.415  0.00  0.00    +0.004 C 
ATOM     27  C2  UNL     1       7.539  13.810  29.761  0.00  0.00    +0.006 C 
ENDBRANCH  19  27
ENDBRANCH  18  19
ENDBRANCH   1  18
TORSDOF 6
ENDMDL
MODEL 2
REMARK VINA RESULT:    -6.313     15.112     17.580
REMARK INTER + INTRA:          -9.311
REMARK INTER:                  -8.422
REMARK INTRA:                  -0.889
REMARK UNBOUND:                -0.784
REMARK  Name = /home/qwerty/github/datacon2025hack/step_04_hit_selection/docking/ligands/lig_744.pdb
REMARK  7 active torsions:
REMARK  status: ('A' for Active; 'I' for Inactive)
REMARK    1  A    between atoms: C1_1  and  C2_2
REMARK    2  A    between atoms: C2_2  and  C3_3
REMARK    3  A    between atoms: C3_3  and  C4_4
REMARK    4  A    between atoms: C3_3  and  C13_20
REMARK    5  A    between atoms: C4_4  and  N1_5
REMARK    6  A    between atoms: C5_6  and  C6_8
REMARK    7  A    between atoms: N2_10  and  C7_11
REMARK                            x       y       z     vdW  Elec       q    Type
REMARK                         _______ _______ _______ _____ _____    ______ ____
ROOT
ATOM      1  N1  UNL     1      21.392   1.408  27.274  0.00  0.00    -0.307 N 
ATOM      2  C5  UNL     1      21.088   1.929  25.971  0.00  0.00    +0.299 C 
ATOM      3  O1  UNL     1      21.915   2.683  25.387  0.00  0.00    -0.265 OA
ATOM      4  H9  UNL     1      20.761   0.692  27.702  0.00  0.00    +0.149 HD
ENDROOT
BRANCH   2   5
ATOM      5  C6  UNL     1      19.818   1.587  25.305  0.00  0.00    +0.303 C 
ATOM      6  O2  UNL     1      19.105   2.507  24.821  0.00  0.00    -0.265 OA
ATOM      7  N2  UNL     1      19.415   0.213  25.170  0.00  0.00    -0.275 N 
ATOM      8  H10 UNL     1      20.139  -0.528  25.303  0.00  0.00    +0.155 HD
BRANCH   7   9
ATOM      9  C7  UNL     1      18.102  -0.197  24.748  0.00  0.00    +0.072 A 
ATOM     10  C8  UNL     1      17.809  -0.417  23.388  0.00  0.00    +0.029 A 
ATOM     11  C9  UNL     1      16.521  -0.790  22.995  0.00  0.00    +0.043 A 
ATOM     12  C10 UNL     1      15.511  -0.936  23.949  0.00  0.00    +0.161 A 
ATOM     13  F1  UNL     1      14.262  -1.297  23.561  0.00  0.00    -0.202 F 
ATOM     14  C11 UNL     1      15.786  -0.701  25.299  0.00  0.00    +0.195 A 
ATOM     15  F2  UNL     1      14.803  -0.835  26.224  0.00  0.00    -0.199 F 
ATOM     16  C12 UNL     1      17.074  -0.325  25.698  0.00  0.00    +0.182 A 
ATOM     17  F3  UNL     1      17.326  -0.103  27.013  0.00  0.00    -0.200 F 
ENDBRANCH   7   9
ENDBRANCH   2   5
BRANCH   1  18
ATOM     18  C4  UNL     1      22.570   1.826  28.036  0.00  0.00    +0.112 C 
BRANCH  18  19
ATOM     19  C3  UNL     1      22.856   0.847  29.197  0.00  0.00    +0.036 C 
BRANCH  19  20
ATOM     20  C13 UNL     1      21.976   1.156  30.396  0.00  0.00    -0.043 A 
ATOM     21  C14 UNL     1      22.230   2.295  31.183  0.00  0.00    +0.004 A 
ATOM     22  C15 UNL     1      21.411   2.599  32.274  0.00  0.00    +0.000 A 
ATOM     23  C16 UNL     1      20.330   1.775  32.590  0.00  0.00    +0.000 A 
ATOM     24  C17 UNL     1      20.062   0.645  31.813  0.00  0.00    +0.000 A 
ATOM     25  C18 UNL     1      20.877   0.336  30.720  0.00  0.00    +0.004 A 
ENDBRANCH  19  20
BRANCH  19  27
ATOM     26  C1  UNL     1      23.949  -1.459  28.955  0.00  0.00    +0.004 C 
ATOM     27  C2  UNL     1      22.679  -0.629  28.768  0.00  0.00    +0.006 C 
ENDBRANCH  19  27
ENDBRANCH  18  19
ENDBRANCH   1  18
TORSDOF 6
ENDMDL
MODEL 3
REMARK VINA RESULT:    -6.256      6.174     10.105
REMARK INTER + INTRA:          -9.234
REMARK INTER:                  -8.394
REMARK INTRA:                  -0.841
REMARK UNBOUND:                -0.784
REMARK  Name = /home/qwerty/github/datacon2025hack/step_04_hit_selection/docking/ligands/lig_744.pdb
REMARK  7 active torsions:
REMARK  status: ('A' for Active; 'I' for Inactive)
REMARK    1  A    between atoms: C1_1  and  C2_2
REMARK    2  A    between atoms: C2_2  and  C3_3
REMARK    3  A    between atoms: C3_3  and  C4_4
REMARK    4  A    between atoms: C3_3  and  C13_20
REMARK    5  A    between atoms: C4_4  and  N1_5
REMARK    6  A    between atoms: C5_6  and  C6_8
REMARK    7  A    between atoms: N2_10  and  C7_11
REMARK                            x       y       z     vdW  Elec       q    Type
REMARK                         _______ _______ _______ _____ _____    ______ ____
ROOT
ATOM      1  N1  UNL     1       8.696  11.195  27.286  0.00  0.00    -0.307 N 
ATOM      2  C5  UNL     1       8.228   9.955  26.736  0.00  0.00    +0.299 C 
ATOM      3  O1  UNL     1       7.333   9.299  27.334  0.00  0.00    -0.265 OA
ATOM      4  H9  UNL     1       9.349  11.792  26.728  0.00  0.00    +0.149 HD
ENDROOT
BRANCH   2   5
ATOM      5  C6  UNL     1       8.784   9.440  25.470  0.00  0.00    +0.303 C 
ATOM      6  O2  UNL     1       9.490   8.396  25.482  0.00  0.00    -0.265 OA
ATOM      7  N2  UNL     1       8.487  10.098  24.225  0.00  0.00    -0.275 N 
ATOM      8  H10 UNL     1       7.680  10.760  24.199  0.00  0.00    +0.155 HD
BRANCH   7   9
ATOM      9  C7  UNL     1       9.162   9.809  22.988  0.00  0.00    +0.072 A 
ATOM     10  C8  UNL     1       8.540   9.050  21.978  0.00  0.00    +0.029 A 
ATOM     11  C9  UNL     1       9.221   8.758  20.794  0.00  0.00    +0.043 A 
ATOM     12  C10 UNL     1      10.531   9.208  20.608  0.00  0.00    +0.161 A 
ATOM     13  F1  UNL     1      11.188   8.921  19.457  0.00  0.00    -0.202 F 
ATOM     14  C11 UNL     1      11.165   9.945  21.612  0.00  0.00    +0.195 A 
ATOM     15  F2  UNL     1      12.439  10.374  21.435  0.00  0.00    -0.199 F 
ATOM     16  C12 UNL     1      10.487  10.239  22.801  0.00  0.00    +0.182 A 
ATOM     17  F3  UNL     1      11.116  10.958  23.766  0.00  0.00    -0.200 F 
ENDBRANCH   7   9
ENDBRANCH   2   5
BRANCH   1  18
ATOM     18  C4  UNL     1       8.282  11.680  28.603  0.00  0.00    +0.112 C 
BRANCH  18  19
ATOM     19  C3  UNL     1       8.364  13.221  28.680  0.00  0.00    +0.036 C 
BRANCH  19  20
ATOM     20  C13 UNL     1       9.798  13.677  28.888  0.00  0.00    -0.043 A 
ATOM     21  C14 UNL     1      10.533  14.205  27.810  0.00  0.00    +0.004 A 
ATOM     22  C15 UNL     1      11.846  14.647  27.998  0.00  0.00    +0.000 A 
ATOM     23  C16 UNL     1      12.438  14.570  29.260  0.00  0.00    +0.000 A 
ATOM     24  C17 UNL     1      11.718  14.053  30.339  0.00  0.00    +0.000 A 
ATOM     25  C18 UNL     1      10.404  13.611  30.158  0.00  0.00    +0.004 A 
ENDBRANCH  19  20
BRANCH  19  27
ATOM     26  C1  UNL     1       6.674  14.915  27.761  0.00  0.00    +0.004 C 
ATOM     27  C2  UNL     1       7.764  13.897  27.424  0.00  0.00    +0.006 C 
ENDBRANCH  19  27
ENDBRANCH  18  19
ENDBRANCH   1  18
TORSDOF 6
ENDMDL
MODEL 4
REMARK VINA RESULT:    -6.254     13.697     15.446
REMARK INTER + INTRA:          -9.232
REMARK INTER:                  -8.508
REMARK INTRA:                  -0.724
REMARK UNBOUND:                -0.784
REMARK  Name = /home/qwerty/github/datacon2025hack/step_04_hit_selection/docking/ligands/lig_744.pdb
REMARK  7 active torsions:
REMARK  status: ('A' for Active; 'I' for Inactive)
REMARK    1  A    between atoms: C1_1  and  C2_2
REMARK    2  A    between atoms: C2_2  and  C3_3
REMARK    3  A    between atoms: C3_3  and  C4_4
REMARK    4  A    between atoms: C3_3  and  C13_20
REMARK    5  A    between atoms: C4_4  and  N1_5
REMARK    6  A    between atoms: C5_6  and  C6_8
REMARK    7  A    between atoms: N2_10  and  C7_11
REMARK                            x       y       z     vdW  Elec       q    Type
REMARK                         _______ _______ _______ _____ _____    ______ ____
ROOT
ATOM      1  N1  UNL     1      21.599   1.646  30.731  0.00  0.00    -0.307 N 
ATOM      2  C5  UNL     1      21.146   1.635  32.093  0.00  0.00    +0.299 C 
ATOM      3  O1  UNL     1      20.438   0.680  32.513  0.00  0.00    -0.265 OA
ATOM      4  H9  UNL     1      22.282   2.375  30.421  0.00  0.00    +0.149 HD
ENDROOT
BRANCH   2   5
ATOM      5  C6  UNL     1      21.506   2.733  33.010  0.00  0.00    +0.303 C 
ATOM      6  O2  UNL     1      21.463   2.539  34.255  0.00  0.00    -0.265 OA
ATOM      7  N2  UNL     1      21.946   4.000  32.491  0.00  0.00    -0.275 N 
ATOM      8  H10 UNL     1      22.257   4.043  31.494  0.00  0.00    +0.155 HD
BRANCH   7   9
ATOM      9  C7  UNL     1      22.094   5.185  33.293  0.00  0.00    +0.072 A 
ATOM     10  C8  UNL     1      20.990   5.761  33.951  0.00  0.00    +0.029 A 
ATOM     11  C9  UNL     1      21.148   6.927  34.706  0.00  0.00    +0.043 A 
ATOM     12  C10 UNL     1      22.402   7.536  34.802  0.00  0.00    +0.161 A 
ATOM     13  F1  UNL     1      22.549   8.668  35.535  0.00  0.00    -0.202 F 
ATOM     14  C11 UNL     1      23.500   6.983  34.137  0.00  0.00    +0.195 A 
ATOM     15  F2  UNL     1      24.715   7.580  34.224  0.00  0.00    -0.199 F 
ATOM     16  C12 UNL     1      23.347   5.817  33.378  0.00  0.00    +0.182 A 
ATOM     17  F3  UNL     1      24.423   5.291  32.740  0.00  0.00    -0.200 F 
ENDBRANCH   7   9
ENDBRANCH   2   5
BRANCH   1  18
ATOM     18  C4  UNL     1      21.156   0.658  29.745  0.00  0.00    +0.112 C 
BRANCH  18  19
ATOM     19  C3  UNL     1      22.201   0.491  28.618  0.00  0.00    +0.036 C 
BRANCH  19  20
ATOM     20  C13 UNL     1      21.833   1.336  27.410  0.00  0.00    -0.043 A 
ATOM     21  C14 UNL     1      22.594   2.476  27.089  0.00  0.00    +0.004 A 
ATOM     22  C15 UNL     1      22.277   3.247  25.967  0.00  0.00    +0.000 A 
ATOM     23  C16 UNL     1      21.201   2.888  25.152  0.00  0.00    +0.000 A 
ATOM     24  C17 UNL     1      20.441   1.756  25.456  0.00  0.00    +0.000 A 
ATOM     25  C18 UNL     1      20.755   0.981  26.577  0.00  0.00    +0.004 A 
ENDBRANCH  19  20
BRANCH  19  27
ATOM     26  C1  UNL     1      24.540  -0.391  29.184  0.00  0.00    +0.004 C 
ATOM     27  C2  UNL     1      23.631   0.835  29.097  0.00  0.00    +0.006 C 
ENDBRANCH  19  27
ENDBRANCH  18  19
ENDBRANCH   1  18
TORSDOF 6
ENDMDL
MODEL 5
REMARK VINA RESULT:    -6.244     14.298     16.514
REMARK INTER + INTRA:          -9.218
REMARK INTER:                  -8.438
REMARK INTRA:                  -0.780
REMARK UNBOUND:                -0.784
REMARK  Name = /home/qwerty/github/datacon2025hack/step_04_hit_selection/docking/ligands/lig_744.pdb
REMARK  7 active torsions:
REMARK  status: ('A' for Active; 'I' for Inactive)
REMARK    1  A    between atoms: C1_1  and  C2_2
REMARK    2  A    between atoms: C2_2  and  C3_3
REMARK    3  A    between atoms: C3_3  and  C4_4
REMARK    4  A    between atoms: C3_3  and  C13_20
REMARK    5  A    between atoms: C4_4  and  N1_5
REMARK    6  A    between atoms: C5_6  and  C6_8
REMARK    7  A    between atoms: N2_10  and  C7_11
REMARK                            x       y       z     vdW  Elec       q    Type
REMARK                         _______ _______ _______ _____ _____    ______ ____
ROOT
ATOM      1  N1  UNL     1      21.815   4.929  31.834  0.00  0.00    -0.307 N 
ATOM      2  C5  UNL     1      21.870   3.496  31.907  0.00  0.00    +0.299 C 
ATOM      3  O1  UNL     1      22.148   2.932  33.000  0.00  0.00    -0.265 OA
ATOM      4  H9  UNL     1      21.470   5.387  30.960  0.00  0.00    +0.149 HD
ENDROOT
BRANCH   2   5
ATOM      5  C6  UNL     1      21.599   2.674  30.712  0.00  0.00    +0.303 C 
ATOM      6  O2  UNL     1      22.118   1.529  30.618  0.00  0.00    -0.265 OA
ATOM      7  N2  UNL     1      20.717   3.156  29.684  0.00  0.00    -0.275 N 
ATOM      8  H10 UNL     1      20.079   3.951  29.914  0.00  0.00    +0.155 HD
BRANCH   7   9
ATOM      9  C7  UNL     1      20.578   2.534  28.394  0.00  0.00    +0.072 A 
ATOM     10  C8  UNL     1      19.577   1.574  28.152  0.00  0.00    +0.029 A 
ATOM     11  C9  UNL     1      19.473   0.962  26.900  0.00  0.00    +0.043 A 
ATOM     12  C10 UNL     1      20.372   1.290  25.883  0.00  0.00    +0.161 A 
ATOM     13  F1  UNL     1      20.268   0.691  24.669  0.00  0.00    -0.202 F 
ATOM     14  C11 UNL     1      21.383   2.227  26.118  0.00  0.00    +0.195 A 
ATOM     15  F2  UNL     1      22.260   2.538  25.132  0.00  0.00    -0.199 F 
ATOM     16  C12 UNL     1      21.491   2.842  27.371  0.00  0.00    +0.182 A 
ATOM     17  F3  UNL     1      22.476   3.751  27.583  0.00  0.00    -0.200 F 
ENDBRANCH   7   9
ENDBRANCH   2   5
BRANCH   1  18
ATOM     18  C4  UNL     1      22.211   5.791  32.949  0.00  0.00    +0.112 C 
BRANCH  18  19
ATOM     19  C3  UNL     1      23.724   6.103  32.901  0.00  0.00    +0.036 C 
BRANCH  19  20
ATOM     20  C13 UNL     1      23.973   7.486  32.323  0.00  0.00    -0.043 A 
ATOM     21  C14 UNL     1      23.141   7.983  31.302  0.00  0.00    +0.004 A 
ATOM     22  C15 UNL     1      23.349   9.263  30.780  0.00  0.00    +0.000 A 
ATOM     23  C16 UNL     1      24.384  10.061  31.272  0.00  0.00    +0.000 A 
ATOM     24  C17 UNL     1      25.212   9.582  32.289  0.00  0.00    +0.000 A 
ATOM     25  C18 UNL     1      25.009   8.303  32.815  0.00  0.00    +0.004 A 
ENDBRANCH  19  20
BRANCH  19  27
ATOM     26  C1  UNL     1      23.422   6.277  35.439  0.00  0.00    +0.004 C 
ATOM     27  C2  UNL     1      24.387   5.977  34.292  0.00  0.00    +0.006 C 
ENDBRANCH  19  27
ENDBRANCH  18  19
ENDBRANCH   1  18
TORSDOF 6
ENDMDL
MODEL 6
REMARK VINA RESULT:    -6.117      6.281     10.242
REMARK INTER + INTRA:          -9.046
REMARK INTER:                  -8.120
REMARK INTRA:                  -0.926
REMARK UNBOUND:                -0.784
REMARK  Name = /home/qwerty/github/datacon2025hack/step_04_hit_selection/docking/ligands/lig_744.pdb
REMARK  7 active torsions:
REMARK  status: ('A' for Active; 'I' for Inactive)
REMARK    1  A    between atoms: C1_1  and  C2_2
REMARK    2  A    between atoms: C2_2  and  C3_3
REMARK    3  A    between atoms: C3_3  and  C4_4
REMARK    4  A    between atoms: C3_3  and  C13_20
REMARK    5  A    between atoms: C4_4  and  N1_5
REMARK    6  A    between atoms: C5_6  and  C6_8
REMARK    7  A    between atoms: N2_10  and  C7_11
REMARK                            x       y       z     vdW  Elec       q    Type
REMARK                         _______ _______ _______ _____ _____    ______ ____
ROOT
ATOM      1  N1  UNL     1       8.004  11.204  27.681  0.00  0.00    -0.307 N 
ATOM      2  C5  UNL     1       9.010  10.494  26.944  0.00  0.00    +0.299 C 
ATOM      3  O1  UNL     1      10.130  10.259  27.474  0.00  0.00    -0.265 OA
ATOM      4  H9  UNL     1       7.040  11.292  27.284  0.00  0.00    +0.149 HD
ENDROOT
BRANCH   2   5
ATOM      5  C6  UNL     1       8.744  10.029  25.569  0.00  0.00    +0.303 C 
ATOM      6  O2  UNL     1       7.594  10.181  25.076  0.00  0.00    -0.265 OA
ATOM      7  N2  UNL     1       9.798   9.448  24.782  0.00  0.00    -0.275 N 
ATOM      8  H10 UNL     1      10.784   9.602  25.088  0.00  0.00    +0.155 HD
BRANCH   7   9
ATOM      9  C7  UNL     1       9.579   8.764  23.534  0.00  0.00    +0.072 A 
ATOM     10  C8  UNL     1       9.131   7.430  23.503  0.00  0.00    +0.029 A 
ATOM     11  C9  UNL     1       8.948   6.775  22.282  0.00  0.00    +0.043 A 
ATOM     12  C10 UNL     1       9.222   7.437  21.083  0.00  0.00    +0.161 A 
ATOM     13  F1  UNL     1       9.044   6.796  19.901  0.00  0.00    -0.202 F 
ATOM     14  C11 UNL     1       9.686   8.756  21.103  0.00  0.00    +0.195 A 
ATOM     15  F2  UNL     1       9.958   9.395  19.939  0.00  0.00    -0.199 F 
ATOM     16  C12 UNL     1       9.872   9.416  22.323  0.00  0.00    +0.182 A 
ATOM     17  F3  UNL     1      10.321  10.697  22.326  0.00  0.00    -0.200 F 
ENDBRANCH   7   9
ENDBRANCH   2   5
BRANCH   1  18
ATOM     18  C4  UNL     1       8.263  11.807  28.990  0.00  0.00    +0.112 C 
BRANCH  18  19
ATOM     19  C3  UNL     1       8.437  13.338  28.871  0.00  0.00    +0.036 C 
BRANCH  19  20
ATOM     20  C13 UNL     1       9.899  13.728  29.010  0.00  0.00    -0.043 A 
ATOM     21  C14 UNL     1      10.627  14.149  27.881  0.00  0.00    +0.004 A 
ATOM     22  C15 UNL     1      11.966  14.531  28.004  0.00  0.00    +0.000 A 
ATOM     23  C16 UNL     1      12.592  14.501  29.251  0.00  0.00    +0.000 A 
ATOM     24  C17 UNL     1      11.880  14.090  30.381  0.00  0.00    +0.000 A 
ATOM     25  C18 UNL     1      10.540  13.708  30.264  0.00  0.00    +0.004 A 
ENDBRANCH  19  20
BRANCH  19  27
ATOM     26  C1  UNL     1       6.720  14.882  27.761  0.00  0.00    +0.004 C 
ATOM     27  C2  UNL     1       7.860  13.887  27.546  0.00  0.00    +0.006 C 
ENDBRANCH  19  27
ENDBRANCH  18  19
ENDBRANCH   1  18
TORSDOF 6
ENDMDL
MODEL 7
REMARK VINA RESULT:    -6.113      6.796     10.659
REMARK INTER + INTRA:          -9.041
REMARK INTER:                  -8.212
REMARK INTRA:                  -0.829
REMARK UNBOUND:                -0.784
REMARK  Name = /home/qwerty/github/datacon2025hack/step_04_hit_selection/docking/ligands/lig_744.pdb
REMARK  7 active torsions:
REMARK  status: ('A' for Active; 'I' for Inactive)
REMARK    1  A    between atoms: C1_1  and  C2_2
REMARK    2  A    between atoms: C2_2  and  C3_3
REMARK    3  A    between atoms: C3_3  and  C4_4
REMARK    4  A    between atoms: C3_3  and  C13_20
REMARK    5  A    between atoms: C4_4  and  N1_5
REMARK    6  A    between atoms: C5_6  and  C6_8
REMARK    7  A    between atoms: N2_10  and  C7_11
REMARK                            x       y       z     vdW  Elec       q    Type
REMARK                         _______ _______ _______ _____ _____    ______ ____
ROOT
ATOM      1  N1  UNL     1       8.503  10.332  27.159  0.00  0.00    -0.307 N 
ATOM      2  C5  UNL     1       9.303   9.526  26.280  0.00  0.00    +0.299 C 
ATOM      3  O1  UNL     1      10.525   9.343  26.533  0.00  0.00    -0.265 OA
ATOM      4  H9  UNL     1       7.469  10.383  27.012  0.00  0.00    +0.149 HD
ENDROOT
BRANCH   2   5
ATOM      5  C6  UNL     1       8.706   8.904  25.084  0.00  0.00    +0.303 C 
ATOM      6  O2  UNL     1       7.546   9.241  24.723  0.00  0.00    -0.265 OA
ATOM      7  N2  UNL     1       9.457   7.952  24.308  0.00  0.00    -0.275 N 
ATOM      8  H10 UNL     1      10.491   7.914  24.444  0.00  0.00    +0.155 HD
BRANCH   7   9
ATOM      9  C7  UNL     1       8.881   7.132  23.275  0.00  0.00    +0.072 A 
ATOM     10  C8  UNL     1       8.901   7.539  21.927  0.00  0.00    +0.029 A 
ATOM     11  C9  UNL     1       8.314   6.741  20.941  0.00  0.00    +0.043 A 
ATOM     12  C10 UNL     1       7.694   5.539  21.289  0.00  0.00    +0.161 A 
ATOM     13  F1  UNL     1       7.125   4.769  20.327  0.00  0.00    -0.202 F 
ATOM     14  C11 UNL     1       7.652   5.135  22.626  0.00  0.00    +0.195 A 
ATOM     15  F2  UNL     1       7.042   3.972  22.963  0.00  0.00    -0.199 F 
ATOM     16  C12 UNL     1       8.236   5.932  23.618  0.00  0.00    +0.182 A 
ATOM     17  F3  UNL     1       8.189   5.525  24.912  0.00  0.00    -0.200 F 
ENDBRANCH   7   9
ENDBRANCH   2   5
BRANCH   1  18
ATOM     18  C4  UNL     1       9.073  11.084  28.278  0.00  0.00    +0.112 C 
BRANCH  18  19
ATOM     19  C3  UNL     1       9.383  12.541  27.867  0.00  0.00    +0.036 C 
BRANCH  19  20
ATOM     20  C13 UNL     1       8.244  13.467  28.261  0.00  0.00    -0.043 A 
ATOM     21  C14 UNL     1       7.860  13.577  29.610  0.00  0.00    +0.004 A 
ATOM     22  C15 UNL     1       6.828  14.443  29.984  0.00  0.00    +0.000 A 
ATOM     23  C16 UNL     1       6.172  15.210  29.019  0.00  0.00    +0.000 A 
ATOM     24  C17 UNL     1       6.547  15.114  27.677  0.00  0.00    +0.000 A 
ATOM     25  C18 UNL     1       7.579  14.251  27.297  0.00  0.00    +0.004 A 
ENDBRANCH  19  20
BRANCH  19  27
ATOM     26  C1  UNL     1      11.164  14.383  27.889  0.00  0.00    +0.004 C 
ATOM     27  C2  UNL     1      10.715  13.044  28.472  0.00  0.00    +0.006 C 
ENDBRANCH  19  27
ENDBRANCH  18  19
ENDBRANCH   1  18
TORSDOF 6
ENDMDL
MODEL 8
REMARK VINA RESULT:    -6.077      6.679      9.901
REMARK INTER + INTRA:          -8.992
REMARK INTER:                  -8.225
REMARK INTRA:                  -0.767
REMARK UNBOUND:                -0.784
REMARK  Name = /home/qwerty/github/datacon2025hack/step_04_hit_selection/docking/ligands/lig_744.pdb
REMARK  7 active torsions:
REMARK  status: ('A' for Active; 'I' for Inactive)
REMARK    1  A    between atoms: C1_1  and  C2_2
REMARK    2  A    between atoms: C2_2  and  C3_3
REMARK    3  A    between atoms: C3_3  and  C4_4
REMARK    4  A    between atoms: C3_3  and  C13_20
REMARK    5  A    between atoms: C4_4  and  N1_5
REMARK    6  A    between atoms: C5_6  and  C6_8
REMARK    7  A    between atoms: N2_10  and  C7_11
REMARK                            x       y       z     vdW  Elec       q    Type
REMARK                         _______ _______ _______ _____ _____    ______ ____
ROOT
ATOM      1  N1  UNL     1       7.883   7.821  22.088  0.00  0.00    -0.307 N 
ATOM      2  C5  UNL     1       8.443   9.043  22.591  0.00  0.00    +0.299 C 
ATOM      3  O1  UNL     1       9.344   9.638  21.938  0.00  0.00    -0.265 OA
ATOM      4  H9  UNL     1       7.058   7.396  22.569  0.00  0.00    +0.149 HD
ENDROOT
BRANCH   2   5
ATOM      5  C6  UNL     1       7.971   9.614  23.866  0.00  0.00    +0.303 C 
ATOM      6  O2  UNL     1       7.026  10.448  23.859  0.00  0.00    -0.265 OA
ATOM      7  N2  UNL     1       8.554   9.191  25.112  0.00  0.00    -0.275 N 
ATOM      8  H10 UNL     1       9.108   8.306  25.121  0.00  0.00    +0.155 HD
BRANCH   7   9
ATOM      9  C7  UNL     1       8.321   9.854  26.368  0.00  0.00    +0.072 A 
ATOM     10  C8  UNL     1       8.970  11.062  26.685  0.00  0.00    +0.029 A 
ATOM     11  C9  UNL     1       8.751  11.678  27.920  0.00  0.00    +0.043 A 
ATOM     12  C10 UNL     1       7.895  11.090  28.855  0.00  0.00    +0.161 A 
ATOM     13  F1  UNL     1       7.688  11.692  30.053  0.00  0.00    -0.202 F 
ATOM     14  C11 UNL     1       7.261   9.880  28.558  0.00  0.00    +0.195 A 
ATOM     15  F2  UNL     1       6.437   9.307  29.469  0.00  0.00    -0.199 F 
ATOM     16  C12 UNL     1       7.479   9.259  27.323  0.00  0.00    +0.182 A 
ATOM     17  F3  UNL     1       6.854   8.085  27.048  0.00  0.00    -0.200 F 
ENDBRANCH   7   9
ENDBRANCH   2   5
BRANCH   1  18
ATOM     18  C4  UNL     1       8.411   7.140  20.904  0.00  0.00    +0.112 C 
BRANCH  18  19
ATOM     19  C3  UNL     1       7.676   5.802  20.659  0.00  0.00    +0.036 C 
BRANCH  19  20
ATOM     20  C13 UNL     1       8.125   4.748  21.657  0.00  0.00    -0.043 A 
ATOM     21  C14 UNL     1       7.334   4.464  22.785  0.00  0.00    +0.004 A 
ATOM     22  C15 UNL     1       7.728   3.480  23.697  0.00  0.00    +0.000 A 
ATOM     23  C16 UNL     1       8.911   2.768  23.491  0.00  0.00    +0.000 A 
ATOM     24  C17 UNL     1       9.703   3.036  22.372  0.00  0.00    +0.000 A 
ATOM     25  C18 UNL     1       9.313   4.018  21.457  0.00  0.00    +0.004 A 
ENDBRANCH  19  20
BRANCH  19  27
ATOM     26  C1  UNL     1       5.458   5.591  19.393  0.00  0.00    +0.004 C 
ATOM     27  C2  UNL     1       6.139   5.967  20.708  0.00  0.00    +0.006 C 
ENDBRANCH  19  27
ENDBRANCH  18  19
ENDBRANCH   1  18
TORSDOF 6
ENDMDL
MODEL 9
REMARK VINA RESULT:    -5.901      7.869     12.095
REMARK INTER + INTRA:          -8.754
REMARK INTER:                  -7.958
REMARK INTRA:                  -0.796
REMARK UNBOUND:                -0.784
REMARK  Name = /home/qwerty/github/datacon2025hack/step_04_hit_selection/docking/ligands/lig_744.pdb
REMARK  7 active torsions:
REMARK  status: ('A' for Active; 'I' for Inactive)
REMARK    1  A    between atoms: C1_1  and  C2_2
REMARK    2  A    between atoms: C2_2  and  C3_3
REMARK    3  A    between atoms: C3_3  and  C4_4
REMARK    4  A    between atoms: C3_3  and  C13_20
REMARK    5  A    between atoms: C4_4  and  N1_5
REMARK    6  A    between atoms: C5_6  and  C6_8
REMARK    7  A    between atoms: N2_10  and  C7_11
REMARK                            x       y       z     vdW  Elec       q    Type
REMARK                         _______ _______ _______ _____ _____    ______ ____
ROOT
ATOM      1  N1  UNL     1      20.366   9.064  35.857  0.00  0.00    -0.307 N 
ATOM      2  C5  UNL     1      19.979  10.442  35.759  0.00  0.00    +0.299 C 
ATOM      3  O1  UNL     1      20.861  11.343  35.722  0.00  0.00    -0.265 OA
ATOM      4  H9  UNL     1      19.640   8.317  35.768  0.00  0.00    +0.149 HD
ENDROOT
BRANCH   2   5
ATOM      5  C6  UNL     1      18.553  10.817  35.697  0.00  0.00    +0.303 C 
ATOM      6  O2  UNL     1      17.881  10.526  34.671  0.00  0.00    -0.265 OA
ATOM      7  N2  UNL     1      17.924  11.470  36.813  0.00  0.00    -0.275 N 
ATOM      8  H10 UNL     1      18.403  11.431  37.741  0.00  0.00    +0.155 HD
BRANCH   7   9
ATOM      9  C7  UNL     1      16.618  12.072  36.755  0.00  0.00    +0.072 A 
ATOM     10  C8  UNL     1      16.456  13.426  36.403  0.00  0.00    +0.029 A 
ATOM     11  C9  UNL     1      15.182  14.000  36.376  0.00  0.00    +0.043 A 
ATOM     12  C10 UNL     1      14.061  13.236  36.710  0.00  0.00    +0.161 A 
ATOM     13  F1  UNL     1      12.827  13.799  36.683  0.00  0.00    -0.202 F 
ATOM     14  C11 UNL     1      14.213  11.897  37.079  0.00  0.00    +0.195 A 
ATOM     15  F2  UNL     1      13.125  11.158  37.410  0.00  0.00    -0.199 F 
ATOM     16  C12 UNL     1      15.487  11.317  37.109  0.00  0.00    +0.182 A 
ATOM     17  F3  UNL     1      15.618  10.015  37.467  0.00  0.00    -0.200 F 
ENDBRANCH   7   9
ENDBRANCH   2   5
BRANCH   1  18
ATOM     18  C4  UNL     1      21.755   8.648  36.063  0.00  0.00    +0.112 C 
BRANCH  18  19
ATOM     19  C3  UNL     1      22.169   7.569  35.036  0.00  0.00    +0.036 C 
BRANCH  19  20
ATOM     20  C13 UNL     1      23.086   8.156  33.976  0.00  0.00    -0.043 A 
ATOM     21  C14 UNL     1      24.363   7.604  33.764  0.00  0.00    +0.004 A 
ATOM     22  C15 UNL     1      25.204   8.123  32.776  0.00  0.00    +0.000 A 
ATOM     23  C16 UNL     1      24.779   9.194  31.986  0.00  0.00    +0.000 A 
ATOM     24  C17 UNL     1      23.511   9.747  32.181  0.00  0.00    +0.000 A 
ATOM     25  C18 UNL     1      22.666   9.231  33.168  0.00  0.00    +0.004 A 
ENDBRANCH  19  20
BRANCH  19  27
ATOM     26  C1  UNL     1      23.227   6.621  37.169  0.00  0.00    +0.004 C 
ATOM     27  C2  UNL     1      22.843   6.353  35.714  0.00  0.00    +0.006 C 
ENDBRANCH  19  27
ENDBRANCH  18  19
ENDBRANCH   1  18
TORSDOF 6
ENDMDL
