MODEL 1
REMARK VINA RESULT:    -6.670      0.000      0.000
REMARK INTER + INTRA:          -9.465
REMARK INTER:                  -8.620
REMARK INTRA:                  -0.845
REMARK UNBOUND:                -0.845
REMARK  Name = /home/qwerty/github/datacon2025hack/step_04_hit_selection/docking/ligands/lig_671.pdb
REMARK  7 active torsions:
REMARK  status: ('A' for Active; 'I' for Inactive)
REMARK    1  A    between atoms: C1_1  and  C2_2
REMARK    2  A    between atoms: C4_4  and  C5_5
REMARK    3  A    between atoms: C7_7  and  C8_8
REMARK    4  A    between atoms: C8_8  and  C9_9
REMARK    5  A    between atoms: N1_11  and  C10_12
REMARK    6  A    between atoms: C16_19  and  C17_21
REMARK    7  A    between atoms: C19_24  and  C20_25
REMARK                            x       y       z     vdW  Elec       q    Type
REMARK                         _______ _______ _______ _____ _____    ______ ____
ROOT
ATOM      1  C10 UNL     1      12.007  13.106  29.463  0.00  0.00    +0.095 C 
ATOM      2  C11 UNL     1      12.837  12.042  30.218  0.00  0.00    +0.046 C 
ATOM      3  C12 UNL     1      13.530  12.898  31.287  0.00  0.00    +0.079 C 
ATOM      4  C13 UNL     1      14.636  13.729  30.617  0.00  0.00    +0.024 C 
ATOM      5  C14 UNL     1      13.815  14.788  29.869  0.00  0.00    +0.026 C 
ATOM      6  C15 UNL     1      12.379  14.382  30.243  0.00  0.00    +0.097 C 
ATOM      7  N2  UNL     1      12.519  13.889  31.599  0.00  0.00    -0.290 N 
ATOM      8  C16 UNL     1      12.536  14.718  32.772  0.00  0.00    +0.249 C 
ATOM      9  O2  UNL     1      12.505  15.973  32.654  0.00  0.00    -0.270 OA
ENDROOT
BRANCH   8  10
ATOM     10  C17 UNL     1      12.564  14.120  34.117  0.00  0.00    +0.055 A 
ATOM     11  C18 UNL     1      13.445  14.440  35.135  0.00  0.00    +0.096 A 
ATOM     12  N3  UNL     1      13.155  13.715  36.232  0.00  0.00    -0.352 N 
ATOM     13  C19 UNL     1      12.097  12.947  35.920  0.00  0.00    +0.118 A 
ATOM     14  C21 UNL     1      11.694  13.168  34.619  0.00  0.00    +0.051 A 
ATOM     15  H22 UNL     1      13.656  13.753  37.148  0.00  0.00    +0.166 HD
BRANCH  13  16
ATOM     16  C20 UNL     1      11.471  12.032  36.838  0.00  0.00    +0.117 C 
ATOM     17  N4  UNL     1      10.969  11.295  37.575  0.00  0.00    -0.189 NA
ENDBRANCH  13  16
ENDBRANCH   8  10
BRANCH   1  20
ATOM     18  C9  UNL     1       9.638  13.411  28.616  0.00  0.00    +0.218 C 
ATOM     19  O1  UNL     1      10.047  14.153  27.681  0.00  0.00    -0.275 OA
ATOM     20  N1  UNL     1      10.565  12.849  29.555  0.00  0.00    -0.310 N 
ATOM     21  H11 UNL     1      10.189  12.223  30.301  0.00  0.00    +0.149 HD
BRANCH  18  22
ATOM     22  C8  UNL     1       8.181  13.076  28.706  0.00  0.00    +0.130 C 
BRANCH  22  29
ATOM     23  C1  UNL     1       8.107   9.014  25.727  0.00  0.00    +0.044 C 
ATOM     24  C2  UNL     1       7.903   9.640  27.075  0.00  0.00    -0.050 A 
ATOM     25  C3  UNL     1       7.551   8.846  28.177  0.00  0.00    +0.006 A 
ATOM     26  C4  UNL     1       7.376   9.423  29.443  0.00  0.00    -0.050 A 
ATOM     27  C5  UNL     1       7.021   8.565  30.621  0.00  0.00    +0.044 C 
ATOM     28  C6  UNL     1       7.601  10.798  29.614  0.00  0.00    +0.007 A 
ATOM     29  C7  UNL     1       7.983  11.596  28.525  0.00  0.00    -0.038 A 
ATOM     30  C22 UNL     1       8.128  11.013  27.256  0.00  0.00    +0.007 A 
ENDBRANCH  22  29
ENDBRANCH  18  22
ENDBRANCH   1  20
TORSDOF 5
ENDMDL
MODEL 2
REMARK VINA RESULT:    -6.592      0.089      1.631
REMARK INTER + INTRA:          -9.365
REMARK INTER:                  -8.526
REMARK INTRA:                  -0.838
REMARK UNBOUND:                -0.845
REMARK  Name = /home/qwerty/github/datacon2025hack/step_04_hit_selection/docking/ligands/lig_671.pdb
REMARK  7 active torsions:
REMARK  status: ('A' for Active; 'I' for Inactive)
REMARK    1  A    between atoms: C1_1  and  C2_2
REMARK    2  A    between atoms: C4_4  and  C5_5
REMARK    3  A    between atoms: C7_7  and  C8_8
REMARK    4  A    between atoms: C8_8  and  C9_9
REMARK    5  A    between atoms: N1_11  and  C10_12
REMARK    6  A    between atoms: C16_19  and  C17_21
REMARK    7  A    between atoms: C19_24  and  C20_25
REMARK                            x       y       z     vdW  Elec       q    Type
REMARK                         _______ _______ _______ _____ _____    ______ ____
ROOT
ATOM      1  C10 UNL     1      11.943  13.042  29.463  0.00  0.00    +0.095 C 
ATOM      2  C11 UNL     1      12.777  11.986  30.224  0.00  0.00    +0.046 C 
ATOM      3  C12 UNL     1      13.471  12.852  31.285  0.00  0.00    +0.079 C 
ATOM      4  C13 UNL     1      14.573  13.681  30.606  0.00  0.00    +0.024 C 
ATOM      5  C14 UNL     1      13.746  14.732  29.851  0.00  0.00    +0.026 C 
ATOM      6  C15 UNL     1      12.313  14.325  30.232  0.00  0.00    +0.097 C 
ATOM      7  N2  UNL     1      12.457  13.843  31.592  0.00  0.00    -0.290 N 
ATOM      8  C16 UNL     1      12.475  14.681  32.758  0.00  0.00    +0.249 C 
ATOM      9  O2  UNL     1      12.440  15.935  32.630  0.00  0.00    -0.270 OA
ENDROOT
BRANCH   8  10
ATOM     10  C17 UNL     1      12.508  14.093  34.108  0.00  0.00    +0.055 A 
ATOM     11  C18 UNL     1      13.391  14.422  35.121  0.00  0.00    +0.096 A 
ATOM     12  N3  UNL     1      13.106  13.705  36.224  0.00  0.00    -0.352 N 
ATOM     13  C19 UNL     1      12.047  12.934  35.921  0.00  0.00    +0.118 A 
ATOM     14  C21 UNL     1      11.640  13.144  34.620  0.00  0.00    +0.051 A 
ATOM     15  H22 UNL     1      13.609  13.750  37.138  0.00  0.00    +0.166 HD
BRANCH  13  16
ATOM     16  C20 UNL     1      11.425  12.025  36.848  0.00  0.00    +0.117 C 
ATOM     17  N4  UNL     1      10.926  11.294  37.593  0.00  0.00    -0.189 NA
ENDBRANCH  13  16
ENDBRANCH   8  10
BRANCH   1  20
ATOM     18  C9  UNL     1       9.567  13.366  28.642  0.00  0.00    +0.218 C 
ATOM     19  O1  UNL     1       9.967  14.131  27.723  0.00  0.00    -0.275 OA
ATOM     20  N1  UNL     1      10.502  12.782  29.560  0.00  0.00    -0.310 N 
ATOM     21  H11 UNL     1      10.131  12.138  30.294  0.00  0.00    +0.149 HD
BRANCH  18  22
ATOM     22  C8  UNL     1       8.111  13.028  28.736  0.00  0.00    +0.130 C 
BRANCH  22  29
ATOM     23  C1  UNL     1       7.058   8.515  30.712  0.00  0.00    +0.044 C 
ATOM     24  C2  UNL     1       7.453   9.357  29.535  0.00  0.00    -0.050 A 
ATOM     25  C3  UNL     1       7.619   8.771  28.272  0.00  0.00    +0.006 A 
ATOM     26  C4  UNL     1       7.971   9.557  27.164  0.00  0.00    -0.050 A 
ATOM     27  C5  UNL     1       8.126   8.928  25.811  0.00  0.00    +0.044 C 
ATOM     28  C6  UNL     1       8.111  10.945  27.317  0.00  0.00    +0.007 A 
ATOM     29  C7  UNL     1       7.917  11.546  28.570  0.00  0.00    -0.038 A 
ATOM     30  C22 UNL     1       7.593  10.746  29.678  0.00  0.00    +0.007 A 
ENDBRANCH  22  29
ENDBRANCH  18  22
ENDBRANCH   1  20
TORSDOF 5
ENDMDL
MODEL 3
REMARK VINA RESULT:    -6.539      4.071     10.076
REMARK INTER + INTRA:          -9.296
REMARK INTER:                  -8.791
REMARK INTRA:                  -0.505
REMARK UNBOUND:                -0.845
REMARK  Name = /home/qwerty/github/datacon2025hack/step_04_hit_selection/docking/ligands/lig_671.pdb
REMARK  7 active torsions:
REMARK  status: ('A' for Active; 'I' for Inactive)
REMARK    1  A    between atoms: C1_1  and  C2_2
REMARK    2  A    between atoms: C4_4  and  C5_5
REMARK    3  A    between atoms: C7_7  and  C8_8
REMARK    4  A    between atoms: C8_8  and  C9_9
REMARK    5  A    between atoms: N1_11  and  C10_12
REMARK    6  A    between atoms: C16_19  and  C17_21
REMARK    7  A    between atoms: C19_24  and  C20_25
REMARK                            x       y       z     vdW  Elec       q    Type
REMARK                         _______ _______ _______ _____ _____    ______ ____
ROOT
ATOM      1  C10 UNL     1       9.173   9.905  27.362  0.00  0.00    +0.095 C 
ATOM      2  C11 UNL     1      10.316   9.394  26.456  0.00  0.00    +0.046 C 
ATOM      3  C12 UNL     1       9.531   8.837  25.260  0.00  0.00    +0.079 C 
ATOM      4  C13 UNL     1       8.859   7.519  25.677  0.00  0.00    +0.024 C 
ATOM      5  C14 UNL     1       7.722   8.025  26.576  0.00  0.00    +0.026 C 
ATOM      6  C15 UNL     1       7.937   9.547  26.515  0.00  0.00    +0.097 C 
ATOM      7  N2  UNL     1       8.415   9.758  25.162  0.00  0.00    -0.290 N 
ATOM      8  C16 UNL     1       7.570   9.882  24.007  0.00  0.00    +0.249 C 
ATOM      9  O2  UNL     1       6.324   9.729  24.122  0.00  0.00    -0.270 OA
ENDROOT
BRANCH   8  10
ATOM     10  C17 UNL     1       8.139  10.212  22.690  0.00  0.00    +0.055 A 
ATOM     11  C18 UNL     1       7.664  11.170  21.812  0.00  0.00    +0.096 A 
ATOM     12  N3  UNL     1       8.450  11.217  20.720  0.00  0.00    -0.352 N 
ATOM     13  C19 UNL     1       9.423  10.307  20.904  0.00  0.00    +0.118 A 
ATOM     14  C21 UNL     1       9.272   9.662  22.114  0.00  0.00    +0.051 A 
ATOM     15  H22 UNL     1       8.328  11.848  19.897  0.00  0.00    +0.166 HD
BRANCH  13  16
ATOM     16  C20 UNL     1      10.479  10.060  19.959  0.00  0.00    +0.117 C 
ATOM     17  N4  UNL     1      11.330   9.862  19.200  0.00  0.00    -0.189 NA
ENDBRANCH  13  16
ENDBRANCH   8  10
BRANCH   1  20
ATOM     18  C9  UNL     1       8.565  11.990  28.670  0.00  0.00    +0.218 C 
ATOM     19  O1  UNL     1       7.875  11.308  29.476  0.00  0.00    -0.275 OA
ATOM     20  N1  UNL     1       9.246  11.355  27.578  0.00  0.00    -0.310 N 
ATOM     21  H11 UNL     1       9.823  11.952  26.946  0.00  0.00    +0.149 HD
BRANCH  18  22
ATOM     22  C8  UNL     1       8.714  13.464  28.892  0.00  0.00    +0.130 C 
BRANCH  22  29
ATOM     23  C1  UNL     1      12.990  14.152  31.465  0.00  0.00    +0.044 C 
ATOM     24  C2  UNL     1      12.227  14.210  30.175  0.00  0.00    -0.050 A 
ATOM     25  C3  UNL     1      12.874  14.585  28.988  0.00  0.00    +0.006 A 
ATOM     26  C4  UNL     1      12.169  14.624  27.776  0.00  0.00    -0.050 A 
ATOM     27  C5  UNL     1      12.872  15.005  26.506  0.00  0.00    +0.044 C 
ATOM     28  C6  UNL     1      10.820  14.239  27.747  0.00  0.00    +0.007 A 
ATOM     29  C7  UNL     1      10.171  13.833  28.923  0.00  0.00    -0.038 A 
ATOM     30  C22 UNL     1      10.878  13.825  30.136  0.00  0.00    +0.007 A 
ENDBRANCH  22  29
ENDBRANCH  18  22
ENDBRANCH   1  20
TORSDOF 5
ENDMDL
MODEL 4
REMARK VINA RESULT:    -6.436     13.888     15.248
REMARK INTER + INTRA:          -9.163
REMARK INTER:                  -8.655
REMARK INTRA:                  -0.508
REMARK UNBOUND:                -0.845
REMARK  Name = /home/qwerty/github/datacon2025hack/step_04_hit_selection/docking/ligands/lig_671.pdb
REMARK  7 active torsions:
REMARK  status: ('A' for Active; 'I' for Inactive)
REMARK    1  A    between atoms: C1_1  and  C2_2
REMARK    2  A    between atoms: C4_4  and  C5_5
REMARK    3  A    between atoms: C7_7  and  C8_8
REMARK    4  A    between atoms: C8_8  and  C9_9
REMARK    5  A    between atoms: N1_11  and  C10_12
REMARK    6  A    between atoms: C16_19  and  C17_21
REMARK    7  A    between atoms: C19_24  and  C20_25
REMARK                            x       y       z     vdW  Elec       q    Type
REMARK                         _______ _______ _______ _____ _____    ______ ____
ROOT
ATOM      1  C10 UNL     1      22.218   1.970  27.279  0.00  0.00    +0.095 C 
ATOM      2  C11 UNL     1      21.283   0.741  27.311  0.00  0.00    +0.046 C 
ATOM      3  C12 UNL     1      21.359   0.337  28.790  0.00  0.00    +0.079 C 
ATOM      4  C13 UNL     1      22.727  -0.311  29.058  0.00  0.00    +0.024 C 
ATOM      5  C14 UNL     1      23.657   0.909  29.028  0.00  0.00    +0.026 C 
ATOM      6  C15 UNL     1      22.661   2.048  28.753  0.00  0.00    +0.097 C 
ATOM      7  N2  UNL     1      21.469   1.620  29.458  0.00  0.00    -0.290 N 
ATOM      8  C16 UNL     1      21.233   1.822  30.861  0.00  0.00    +0.249 C 
ATOM      9  O2  UNL     1      22.132   2.337  31.580  0.00  0.00    -0.270 OA
ENDROOT
BRANCH   8  10
ATOM     10  C17 UNL     1      19.942   1.458  31.468  0.00  0.00    +0.055 A 
ATOM     11  C18 UNL     1      18.734   1.334  30.805  0.00  0.00    +0.096 A 
ATOM     12  N3  UNL     1      17.775   0.959  31.671  0.00  0.00    -0.352 N 
ATOM     13  C19 UNL     1      18.366   0.835  32.873  0.00  0.00    +0.118 A 
ATOM     14  C21 UNL     1      19.711   1.131  32.793  0.00  0.00    +0.051 A 
ATOM     15  H22 UNL     1      16.769   0.790  31.446  0.00  0.00    +0.166 HD
BRANCH  13  16
ATOM     16  C20 UNL     1      17.675   0.434  34.069  0.00  0.00    +0.117 C 
ATOM     17  N4  UNL     1      17.119   0.110  35.031  0.00  0.00    -0.189 NA
ENDBRANCH  13  16
ENDBRANCH   8  10
BRANCH   1  20
ATOM     18  C9  UNL     1      22.107   4.172  26.027  0.00  0.00    +0.218 C 
ATOM     19  O1  UNL     1      23.275   4.001  25.583  0.00  0.00    -0.275 OA
ATOM     20  N1  UNL     1      21.508   3.194  26.890  0.00  0.00    -0.310 N 
ATOM     21  H11 UNL     1      20.531   3.363  27.220  0.00  0.00    +0.149 HD
BRANCH  18  22
ATOM     22  C8  UNL     1      21.327   5.379  25.604  0.00  0.00    +0.130 C 
BRANCH  22  29
ATOM     23  C1  UNL     1      18.333   3.954  21.811  0.00  0.00    +0.044 C 
ATOM     24  C2  UNL     1      19.608   4.579  22.295  0.00  0.00    -0.050 A 
ATOM     25  C3  UNL     1      20.520   5.123  21.378  0.00  0.00    +0.006 A 
ATOM     26  C4  UNL     1      21.706   5.724  21.826  0.00  0.00    -0.050 A 
ATOM     27  C5  UNL     1      22.667   6.322  20.842  0.00  0.00    +0.044 C 
ATOM     28  C6  UNL     1      21.954   5.822  23.204  0.00  0.00    +0.007 A 
ATOM     29  C7  UNL     1      21.034   5.309  24.131  0.00  0.00    -0.038 A 
ATOM     30  C22 UNL     1      19.864   4.684  23.670  0.00  0.00    +0.007 A 
ENDBRANCH  22  29
ENDBRANCH  18  22
ENDBRANCH   1  20
TORSDOF 5
ENDMDL
MODEL 5
REMARK VINA RESULT:    -6.435     11.862     14.289
REMARK INTER + INTRA:          -9.162
REMARK INTER:                  -8.001
REMARK INTRA:                  -1.160
REMARK UNBOUND:                -0.845
REMARK  Name = /home/qwerty/github/datacon2025hack/step_04_hit_selection/docking/ligands/lig_671.pdb
REMARK  7 active torsions:
REMARK  status: ('A' for Active; 'I' for Inactive)
REMARK    1  A    between atoms: C1_1  and  C2_2
REMARK    2  A    between atoms: C4_4  and  C5_5
REMARK    3  A    between atoms: C7_7  and  C8_8
REMARK    4  A    between atoms: C8_8  and  C9_9
REMARK    5  A    between atoms: N1_11  and  C10_12
REMARK    6  A    between atoms: C16_19  and  C17_21
REMARK    7  A    between atoms: C19_24  and  C20_25
REMARK                            x       y       z     vdW  Elec       q    Type
REMARK                         _______ _______ _______ _____ _____    ______ ____
ROOT
ATOM      1  C10 UNL     1      23.232  15.389  22.040  0.00  0.00    +0.095 C 
ATOM      2  C11 UNL     1      23.896  14.091  22.553  0.00  0.00    +0.046 C 
ATOM      3  C12 UNL     1      23.357  14.019  23.988  0.00  0.00    +0.079 C 
ATOM      4  C13 UNL     1      24.069  15.084  24.839  0.00  0.00    +0.024 C 
ATOM      5  C14 UNL     1      23.409  16.374  24.332  0.00  0.00    +0.026 C 
ATOM      6  C15 UNL     1      22.430  15.825  23.281  0.00  0.00    +0.097 C 
ATOM      7  N2  UNL     1      22.017  14.555  23.846  0.00  0.00    -0.290 N 
ATOM      8  C16 UNL     1      20.977  14.396  24.824  0.00  0.00    +0.249 C 
ATOM      9  O2  UNL     1      20.408  15.413  25.306  0.00  0.00    -0.270 OA
ENDROOT
BRANCH   8  10
ATOM     10  C17 UNL     1      20.546  13.055  25.254  0.00  0.00    +0.055 A 
ATOM     11  C18 UNL     1      20.351  12.640  26.559  0.00  0.00    +0.096 A 
ATOM     12  N3  UNL     1      19.929  11.361  26.572  0.00  0.00    -0.352 N 
ATOM     13  C19 UNL     1      19.847  10.968  25.289  0.00  0.00    +0.118 A 
ATOM     14  C21 UNL     1      20.217  11.988  24.436  0.00  0.00    +0.051 A 
ATOM     15  H22 UNL     1      19.703  10.793  27.418  0.00  0.00    +0.166 HD
BRANCH  13  16
ATOM     16  C20 UNL     1      19.416   9.658  24.877  0.00  0.00    +0.117 C 
ATOM     17  N4  UNL     1      19.069   8.605  24.546  0.00  0.00    -0.189 NA
ENDBRANCH  13  16
ENDBRANCH   8  10
BRANCH   1  20
ATOM     18  C9  UNL     1      22.794  15.199  19.550  0.00  0.00    +0.218 C 
ATOM     19  O1  UNL     1      23.997  15.477  19.297  0.00  0.00    -0.275 OA
ATOM     20  N1  UNL     1      22.333  15.138  20.907  0.00  0.00    -0.310 N 
ATOM     21  H11 UNL     1      21.333  14.884  21.075  0.00  0.00    +0.149 HD
BRANCH  18  22
ATOM     22  C8  UNL     1      21.860  14.877  18.424  0.00  0.00    +0.130 C 
BRANCH  22  29
ATOM     23  C1  UNL     1      17.951  11.881  19.488  0.00  0.00    +0.044 C 
ATOM     24  C2  UNL     1      19.408  12.053  19.170  0.00  0.00    -0.050 A 
ATOM     25  C3  UNL     1      20.235  10.930  19.023  0.00  0.00    +0.006 A 
ATOM     26  C4  UNL     1      21.594  11.084  18.709  0.00  0.00    -0.050 A 
ATOM     27  C5  UNL     1      22.469   9.879  18.531  0.00  0.00    +0.044 C 
ATOM     28  C6  UNL     1      22.113  12.371  18.496  0.00  0.00    +0.007 A 
ATOM     29  C7  UNL     1      21.287  13.499  18.611  0.00  0.00    -0.038 A 
ATOM     30  C22 UNL     1      19.935  13.335  18.954  0.00  0.00    +0.007 A 
ENDBRANCH  22  29
ENDBRANCH  18  22
ENDBRANCH   1  20
TORSDOF 5
ENDMDL
MODEL 6
REMARK VINA RESULT:    -6.399     13.542     15.866
REMARK INTER + INTRA:          -9.115
REMARK INTER:                  -8.511
REMARK INTRA:                  -0.603
REMARK UNBOUND:                -0.845
REMARK  Name = /home/qwerty/github/datacon2025hack/step_04_hit_selection/docking/ligands/lig_671.pdb
REMARK  7 active torsions:
REMARK  status: ('A' for Active; 'I' for Inactive)
REMARK    1  A    between atoms: C1_1  and  C2_2
REMARK    2  A    between atoms: C4_4  and  C5_5
REMARK    3  A    between atoms: C7_7  and  C8_8
REMARK    4  A    between atoms: C8_8  and  C9_9
REMARK    5  A    between atoms: N1_11  and  C10_12
REMARK    6  A    between atoms: C16_19  and  C17_21
REMARK    7  A    between atoms: C19_24  and  C20_25
REMARK                            x       y       z     vdW  Elec       q    Type
REMARK                         _______ _______ _______ _____ _____    ______ ____
ROOT
ATOM      1  C10 UNL     1      21.163   0.901  30.779  0.00  0.00    +0.095 C 
ATOM      2  C11 UNL     1      22.252   1.997  30.734  0.00  0.00    +0.046 C 
ATOM      3  C12 UNL     1      22.658   1.964  29.255  0.00  0.00    +0.079 C 
ATOM      4  C13 UNL     1      23.489   0.696  28.996  0.00  0.00    +0.024 C 
ATOM      5  C14 UNL     1      22.409  -0.394  29.038  0.00  0.00    +0.026 C 
ATOM      6  C15 UNL     1      21.144   0.439  29.310  0.00  0.00    +0.097 C 
ATOM      7  N2  UNL     1      21.402   1.672  28.592  0.00  0.00    -0.290 N 
ATOM      8  C16 UNL     1      21.166   1.864  27.188  0.00  0.00    +0.249 C 
ATOM      9  O2  UNL     1      20.779   0.897  26.479  0.00  0.00    -0.270 OA
ENDROOT
BRANCH   8  10
ATOM     10  C17 UNL     1      21.347   3.188  26.569  0.00  0.00    +0.055 A 
ATOM     11  C18 UNL     1      21.186   4.411  27.195  0.00  0.00    +0.096 A 
ATOM     12  N3  UNL     1      21.462   5.405  26.330  0.00  0.00    -0.352 N 
ATOM     13  C19 UNL     1      21.805   4.823  25.168  0.00  0.00    +0.118 A 
ATOM     14  C21 UNL     1      21.751   3.448  25.271  0.00  0.00    +0.051 A 
ATOM     15  H22 UNL     1      21.424   6.430  26.532  0.00  0.00    +0.166 HD
BRANCH  13  16
ATOM     16  C20 UNL     1      22.187   5.552  23.988  0.00  0.00    +0.117 C 
ATOM     17  N4  UNL     1      22.496   6.138  23.039  0.00  0.00    -0.189 NA
ENDBRANCH  13  16
ENDBRANCH   8  10
BRANCH   1  20
ATOM     18  C9  UNL     1      18.963   0.711  32.024  0.00  0.00    +0.218 C 
ATOM     19  O1  UNL     1      19.289  -0.424  32.467  0.00  0.00    -0.275 OA
ATOM     20  N1  UNL     1      19.854   1.439  31.167  0.00  0.00    -0.310 N 
ATOM     21  H11 UNL     1      19.556   2.385  30.838  0.00  0.00    +0.149 HD
BRANCH  18  22
ATOM     22  C8  UNL     1      17.662   1.320  32.446  0.00  0.00    +0.130 C 
BRANCH  22  29
ATOM     23  C1  UNL     1      18.760   5.041  35.661  0.00  0.00    +0.044 C 
ATOM     24  C2  UNL     1      18.344   3.621  35.410  0.00  0.00    -0.050 A 
ATOM     25  C3  UNL     1      18.031   2.776  36.485  0.00  0.00    +0.006 A 
ATOM     26  C4  UNL     1      17.626   1.453  36.256  0.00  0.00    -0.050 A 
ATOM     27  C5  UNL     1      17.272   0.562  37.409  0.00  0.00    +0.044 C 
ATOM     28  C6  UNL     1      17.489   0.990  34.939  0.00  0.00    +0.007 A 
ATOM     29  C7  UNL     1      17.769   1.836  33.854  0.00  0.00    -0.038 A 
ATOM     30  C22 UNL     1      18.202   3.150  34.096  0.00  0.00    +0.007 A 
ENDBRANCH  22  29
ENDBRANCH  18  22
ENDBRANCH   1  20
TORSDOF 5
ENDMDL
MODEL 7
REMARK VINA RESULT:    -6.398      3.492      5.997
REMARK INTER + INTRA:          -9.113
REMARK INTER:                  -8.600
REMARK INTRA:                  -0.514
REMARK UNBOUND:                -0.845
REMARK  Name = /home/qwerty/github/datacon2025hack/step_04_hit_selection/docking/ligands/lig_671.pdb
REMARK  7 active torsions:
REMARK  status: ('A' for Active; 'I' for Inactive)
REMARK    1  A    between atoms: C1_1  and  C2_2
REMARK    2  A    between atoms: C4_4  and  C5_5
REMARK    3  A    between atoms: C7_7  and  C8_8
REMARK    4  A    between atoms: C8_8  and  C9_9
REMARK    5  A    between atoms: N1_11  and  C10_12
REMARK    6  A    between atoms: C16_19  and  C17_21
REMARK    7  A    between atoms: C19_24  and  C20_25
REMARK                            x       y       z     vdW  Elec       q    Type
REMARK                         _______ _______ _______ _____ _____    ______ ____
ROOT
ATOM      1  C10 UNL     1      11.515  12.287  34.781  0.00  0.00    +0.095 C 
ATOM      2  C11 UNL     1      11.987  12.929  36.106  0.00  0.00    +0.046 C 
ATOM      3  C12 UNL     1      12.728  11.758  36.766  0.00  0.00    +0.079 C 
ATOM      4  C13 UNL     1      11.696  10.738  37.271  0.00  0.00    +0.024 C 
ATOM      5  C14 UNL     1      11.229  10.097  35.956  0.00  0.00    +0.026 C 
ATOM      6  C15 UNL     1      12.077  10.859  34.925  0.00  0.00    +0.097 C 
ATOM      7  N2  UNL     1      13.325  11.086  35.628  0.00  0.00    -0.290 N 
ATOM      8  C16 UNL     1      14.393  10.129  35.725  0.00  0.00    +0.249 C 
ATOM      9  O2  UNL     1      14.246   8.974  35.242  0.00  0.00    -0.270 OA
ENDROOT
BRANCH   8  10
ATOM     10  C17 UNL     1      15.672  10.490  36.360  0.00  0.00    +0.055 A 
ATOM     11  C18 UNL     1      16.093  10.110  37.622  0.00  0.00    +0.096 A 
ATOM     12  N3  UNL     1      17.325  10.599  37.857  0.00  0.00    -0.352 N 
ATOM     13  C19 UNL     1      17.690  11.276  36.754  0.00  0.00    +0.118 A 
ATOM     14  C21 UNL     1      16.696  11.232  35.798  0.00  0.00    +0.051 A 
ATOM     15  H22 UNL     1      17.887  10.467  38.728  0.00  0.00    +0.166 HD
BRANCH  13  16
ATOM     16  C20 UNL     1      18.957  11.940  36.603  0.00  0.00    +0.117 C 
ATOM     17  N4  UNL     1      19.976  12.476  36.482  0.00  0.00    -0.189 NA
ENDBRANCH  13  16
ENDBRANCH   8  10
BRANCH   1  20
ATOM     18  C9  UNL     1      11.534  14.159  33.073  0.00  0.00    +0.218 C 
ATOM     19  O1  UNL     1      10.514  14.679  33.602  0.00  0.00    -0.275 OA
ATOM     20  N1  UNL     1      12.095  12.952  33.608  0.00  0.00    -0.310 N 
ATOM     21  H11 UNL     1      12.952  12.565  33.154  0.00  0.00    +0.149 HD
BRANCH  18  22
ATOM     22  C8  UNL     1      12.190  14.842  31.912  0.00  0.00    +0.130 C 
BRANCH  22  29
ATOM     23  C1  UNL     1      12.360  14.506  26.888  0.00  0.00    +0.044 C 
ATOM     24  C2  UNL     1      11.682  14.190  28.189  0.00  0.00    -0.050 A 
ATOM     25  C3  UNL     1      10.536  13.383  28.210  0.00  0.00    +0.006 A 
ATOM     26  C4  UNL     1       9.908  13.070  29.425  0.00  0.00    -0.050 A 
ATOM     27  C5  UNL     1       8.695  12.188  29.442  0.00  0.00    +0.044 C 
ATOM     28  C6  UNL     1      10.462  13.531  30.628  0.00  0.00    +0.007 A 
ATOM     29  C7  UNL     1      11.626  14.314  30.622  0.00  0.00    -0.038 A 
ATOM     30  C22 UNL     1      12.230  14.645  29.398  0.00  0.00    +0.007 A 
ENDBRANCH  22  29
ENDBRANCH  18  22
ENDBRANCH   1  20
TORSDOF 5
ENDMDL
MODEL 8
REMARK VINA RESULT:    -6.328     14.100     16.420
REMARK INTER + INTRA:          -9.022
REMARK INTER:                  -8.172
REMARK INTRA:                  -0.850
REMARK UNBOUND:                -0.845
REMARK  Name = /home/qwerty/github/datacon2025hack/step_04_hit_selection/docking/ligands/lig_671.pdb
REMARK  7 active torsions:
REMARK  status: ('A' for Active; 'I' for Inactive)
REMARK    1  A    between atoms: C1_1  and  C2_2
REMARK    2  A    between atoms: C4_4  and  C5_5
REMARK    3  A    between atoms: C7_7  and  C8_8
REMARK    4  A    between atoms: C8_8  and  C9_9
REMARK    5  A    between atoms: N1_11  and  C10_12
REMARK    6  A    between atoms: C16_19  and  C17_21
REMARK    7  A    between atoms: C19_24  and  C20_25
REMARK                            x       y       z     vdW  Elec       q    Type
REMARK                         _______ _______ _______ _____ _____    ______ ____
ROOT
ATOM      1  C10 UNL     1      20.077   2.370  26.078  0.00  0.00    +0.095 C 
ATOM      2  C11 UNL     1      18.729   2.984  26.519  0.00  0.00    +0.046 C 
ATOM      3  C12 UNL     1      17.793   2.502  25.403  0.00  0.00    +0.079 C 
ATOM      4  C13 UNL     1      18.090   3.302  24.125  0.00  0.00    +0.024 C 
ATOM      5  C14 UNL     1      19.427   2.691  23.683  0.00  0.00    +0.026 C 
ATOM      6  C15 UNL     1      19.663   1.643  24.784  0.00  0.00    +0.097 C 
ATOM      7  N2  UNL     1      18.323   1.187  25.097  0.00  0.00    -0.290 N 
ATOM      8  C16 UNL     1      17.610   0.180  24.361  0.00  0.00    +0.249 C 
ATOM      9  O2  UNL     1      18.119  -0.314  23.319  0.00  0.00    -0.270 OA
ENDROOT
BRANCH   8  10
ATOM     10  C17 UNL     1      16.298  -0.303  24.824  0.00  0.00    +0.055 A 
ATOM     11  C18 UNL     1      15.114  -0.262  24.109  0.00  0.00    +0.096 A 
ATOM     12  N3  UNL     1      14.125  -0.818  24.833  0.00  0.00    -0.352 N 
ATOM     13  C19 UNL     1      14.673  -1.218  25.994  0.00  0.00    +0.118 A 
ATOM     14  C21 UNL     1      16.021  -0.922  26.030  0.00  0.00    +0.051 A 
ATOM     15  H22 UNL     1      13.128  -0.923  24.541  0.00  0.00    +0.166 HD
BRANCH  13  16
ATOM     16  C20 UNL     1      13.941  -1.878  27.042  0.00  0.00    +0.117 C 
ATOM     17  N4  UNL     1      13.351  -2.408  27.884  0.00  0.00    -0.189 NA
ENDBRANCH  13  16
ENDBRANCH   8  10
BRANCH   1  20
ATOM     18  C9  UNL     1      21.908   1.549  27.627  0.00  0.00    +0.218 C 
ATOM     19  O1  UNL     1      22.656   2.504  27.281  0.00  0.00    -0.275 OA
ATOM     20  N1  UNL     1      20.596   1.413  27.062  0.00  0.00    -0.310 N 
ATOM     21  H11 UNL     1      20.000   0.620  27.390  0.00  0.00    +0.149 HD
BRANCH  18  22
ATOM     22  C8  UNL     1      22.378   0.587  28.674  0.00  0.00    +0.130 C 
BRANCH  22  29
ATOM     23  C1  UNL     1      19.069  -0.129  32.404  0.00  0.00    +0.044 C 
ATOM     24  C2  UNL     1      20.193   0.659  31.798  0.00  0.00    -0.050 A 
ATOM     25  C3  UNL     1      20.746   1.747  32.490  0.00  0.00    +0.006 A 
ATOM     26  C4  UNL     1      21.808   2.477  31.935  0.00  0.00    -0.050 A 
ATOM     27  C5  UNL     1      22.409   3.626  32.689  0.00  0.00    +0.044 C 
ATOM     28  C6  UNL     1      22.348   2.083  30.702  0.00  0.00    +0.007 A 
ATOM     29  C7  UNL     1      21.823   0.977  30.015  0.00  0.00    -0.038 A 
ATOM     30  C22 UNL     1      20.741   0.271  30.566  0.00  0.00    +0.007 A 
ENDBRANCH  22  29
ENDBRANCH  18  22
ENDBRANCH   1  20
TORSDOF 5
ENDMDL
MODEL 9
REMARK VINA RESULT:    -6.276     12.742     14.532
REMARK INTER + INTRA:          -8.955
REMARK INTER:                  -8.111
REMARK INTRA:                  -0.844
REMARK UNBOUND:                -0.845
REMARK  Name = /home/qwerty/github/datacon2025hack/step_04_hit_selection/docking/ligands/lig_671.pdb
REMARK  7 active torsions:
REMARK  status: ('A' for Active; 'I' for Inactive)
REMARK    1  A    between atoms: C1_1  and  C2_2
REMARK    2  A    between atoms: C4_4  and  C5_5
REMARK    3  A    between atoms: C7_7  and  C8_8
REMARK    4  A    between atoms: C8_8  and  C9_9
REMARK    5  A    between atoms: N1_11  and  C10_12
REMARK    6  A    between atoms: C16_19  and  C17_21
REMARK    7  A    between atoms: C19_24  and  C20_25
REMARK                            x       y       z     vdW  Elec       q    Type
REMARK                         _______ _______ _______ _____ _____    ______ ____
ROOT
ATOM      1  C10 UNL     1      20.525   3.033  32.030  0.00  0.00    +0.095 C 
ATOM      2  C11 UNL     1      19.691   4.247  31.560  0.00  0.00    +0.046 C 
ATOM      3  C12 UNL     1      20.035   5.288  32.634  0.00  0.00    +0.079 C 
ATOM      4  C13 UNL     1      19.318   4.911  33.940  0.00  0.00    +0.024 C 
ATOM      5  C14 UNL     1      20.147   3.707  34.409  0.00  0.00    +0.026 C 
ATOM      6  C15 UNL     1      21.199   3.604  33.292  0.00  0.00    +0.097 C 
ATOM      7  N2  UNL     1      21.424   4.989  32.925  0.00  0.00    -0.290 N 
ATOM      8  C16 UNL     1      22.315   5.882  33.613  0.00  0.00    +0.249 C 
ATOM      9  O2  UNL     1      22.906   5.497  34.658  0.00  0.00    -0.270 OA
ENDROOT
BRANCH   8  10
ATOM     10  C17 UNL     1      22.569   7.237  33.096  0.00  0.00    +0.055 A 
ATOM     11  C18 UNL     1      22.173   8.424  33.687  0.00  0.00    +0.096 A 
ATOM     12  N3  UNL     1      22.605   9.465  32.952  0.00  0.00    -0.352 N 
ATOM     13  C19 UNL     1      23.278   8.950  31.908  0.00  0.00    +0.118 A 
ATOM     14  C21 UNL     1      23.285   7.571  31.959  0.00  0.00    +0.051 A 
ATOM     15  H22 UNL     1      22.452  10.477  33.162  0.00  0.00    +0.166 HD
BRANCH  13  16
ATOM     16  C20 UNL     1      23.912   9.745  30.891  0.00  0.00    +0.117 C 
ATOM     17  N4  UNL     1      24.421  10.385  30.072  0.00  0.00    -0.189 NA
ENDBRANCH  13  16
ENDBRANCH   8  10
BRANCH   1  20
ATOM     18  C9  UNL     1      21.607   1.304  30.525  0.00  0.00    +0.218 C 
ATOM     19  O1  UNL     1      20.797   0.422  30.922  0.00  0.00    -0.275 OA
ATOM     20  N1  UNL     1      21.535   2.641  31.040  0.00  0.00    -0.310 N 
ATOM     21  H11 UNL     1      22.211   3.346  30.671  0.00  0.00    +0.149 HD
BRANCH  18  22
ATOM     22  C8  UNL     1      22.613   0.958  29.471  0.00  0.00    +0.130 C 
BRANCH  22  29
ATOM     23  C1  UNL     1      19.581   0.402  25.486  0.00  0.00    +0.044 C 
ATOM     24  C2  UNL     1      20.694   1.130  26.180  0.00  0.00    -0.050 A 
ATOM     25  C3  UNL     1      21.270   2.265  25.590  0.00  0.00    +0.006 A 
ATOM     26  C4  UNL     1      22.299   2.961  26.242  0.00  0.00    -0.050 A 
ATOM     27  C5  UNL     1      22.896   4.186  25.616  0.00  0.00    +0.044 C 
ATOM     28  C6  UNL     1      22.719   2.543  27.514  0.00  0.00    +0.007 A 
ATOM     29  C7  UNL     1      22.129   1.427  28.127  0.00  0.00    -0.038 A 
ATOM     30  C22 UNL     1      21.119   0.721  27.452  0.00  0.00    +0.007 A 
ENDBRANCH  22  29
ENDBRANCH  18  22
ENDBRANCH   1  20
TORSDOF 5
ENDMDL
