REMARK  Name = /home/qwerty/github/datacon2025hack/step_04_hit_selection/docking/ligands/lig_707.pdb
REMARK  8 active torsions:
REMARK  status: ('A' for Active; 'I' for Inactive)
REMARK    1  A    between atoms: C1_1  and  C2_2
REMARK    2  A    between atoms: C6_6  and  C7_7
REMARK    3  A    between atoms: N1_9  and  C8_10
REMARK    4  A    between atoms: C8_10  and  C9_11
REMARK    5  A    between atoms: C9_11  and  O2_12
REMARK    6  A    between atoms: C9_11  and  C10_13
REMARK    7  A    between atoms: C10_13  and  N2_14
REMARK    8  A    between atoms: C11_15  and  C12_17
REMARK                            x       y       z     vdW  Elec       q    Type
REMARK                         _______ _______ _______ _____ _____    ______ ____
ROOT
ATOM      1  C9  UNL     1       0.528   2.312   1.468  0.00  0.00    +0.149 C 
ENDROOT
BRANCH   1   2
ATOM      2  O2  UNL     1       1.478   3.045   2.198  0.00  0.00    -0.389 OA
ATOM      3  H11 UNL     1       2.207   2.416   2.439  0.00  0.00    +0.210 HD
ENDBRANCH   1   2
BRANCH   1   4
ATOM      4  C8  UNL     1       0.981   2.188   0.002  0.00  0.00    +0.137 C 
BRANCH   4   7
ATOM      5  C7  UNL     1       2.269  -0.001   0.015  0.00  0.00    +0.244 C 
ATOM      6  O1  UNL     1       1.212  -0.635   0.286  0.00  0.00    -0.270 OA
ATOM      7  N1  UNL     1       2.228   1.433  -0.095  0.00  0.00    -0.309 N 
ATOM      8  H7  UNL     1       3.112   1.973  -0.229  0.00  0.00    +0.149 HD
BRANCH   5  14
ATOM      9  C1  UNL     1       6.849  -0.433  -2.033  0.00  0.00    +0.044 C 
ATOM     10  C2  UNL     1       5.767  -0.962  -1.139  0.00  0.00    -0.050 A 
ATOM     11  C3  UNL     1       5.912  -2.211  -0.520  0.00  0.00    +0.003 A 
ATOM     12  C4  UNL     1       4.884  -2.726   0.271  0.00  0.00    +0.001 A 
ATOM     13  C5  UNL     1       3.702  -2.003   0.446  0.00  0.00    +0.013 A 
ATOM     14  C6  UNL     1       3.535  -0.750  -0.170  0.00  0.00    +0.037 A 
ATOM     15  C18 UNL     1       4.571  -0.244  -0.977  0.00  0.00    +0.016 A 
ENDBRANCH   5  14
ENDBRANCH   4   7
ENDBRANCH   1   4
BRANCH   1  16
ATOM     16  C10 UNL     1      -0.827   3.030   1.570  0.00  0.00    +0.137 C 
BRANCH  16  17
ATOM     17  N2  UNL     1      -1.885   2.263   0.910  0.00  0.00    -0.308 N 
ATOM     18  C11 UNL     1      -2.420   1.052   1.467  0.00  0.00    +0.264 C 
ATOM     19  O3  UNL     1      -2.074   0.684   2.622  0.00  0.00    -0.268 OA
ATOM     20  H14 UNL     1      -2.278   2.645   0.022  0.00  0.00    +0.149 HD
BRANCH  18  21
ATOM     21  C12 UNL     1      -3.372   0.220   0.711  0.00  0.00    +0.147 A 
ATOM     22  C13 UNL     1      -3.859   0.472  -0.579  0.00  0.00    +0.057 A 
ATOM     23  C14 UNL     1      -4.720  -0.579  -0.787  0.00  0.00    +0.040 A 
ATOM     24  N3  UNL     1      -4.730  -1.356   0.267  0.00  0.00    -0.268 N 
ATOM     25  N4  UNL     1      -3.952  -0.894   1.226  0.00  0.00    -0.166 NA
ATOM     26  C15 UNL     1      -5.816  -2.301   0.293  0.00  0.00    +0.144 C 
ATOM     27  C16 UNL     1      -6.513  -2.066  -1.075  0.00  0.00    +0.029 C 
ATOM     28  C17 UNL     1      -5.799  -0.860  -1.750  0.00  0.00    +0.057 C 
ENDBRANCH  18  21
ENDBRANCH  16  17
ENDBRANCH   1  16
TORSDOF 7
