MODEL 1
REMARK VINA RESULT:    -6.525      0.000      0.000
REMARK INTER + INTRA:          -8.237
REMARK INTER:                  -7.860
REMARK INTRA:                  -0.378
REMARK UNBOUND:                -0.378
REMARK  Name = /home/qwerty/github/datacon2025hack/step_04_hit_selection/docking/ligands/lig_383.pdb
REMARK  4 active torsions:
REMARK  status: ('A' for Active; 'I' for Inactive)
REMARK    1  A    between atoms: C1_2  and  O2_3
REMARK    2  A    between atoms: C1_2  and  C2_4
REMARK    3  A    between atoms: C10_14  and  C11_16
REMARK    4  A    between atoms: C14_19  and  N2_20
REMARK                            x       y       z     vdW  Elec       q    Type
REMARK                         _______ _______ _______ _____ _____    ______ ____
ROOT
ATOM      1  C2  UNL     1       8.577  10.314  22.899  0.00  0.00    +0.062 A 
ATOM      2  C3  UNL     1       7.498  10.295  23.797  0.00  0.00    +0.015 A 
ATOM      3  C4  UNL     1       7.704   9.994  25.145  0.00  0.00    +0.009 A 
ATOM      4  C5  UNL     1       8.996   9.726  25.629  0.00  0.00    +0.012 A 
ATOM      5  C6  UNL     1      10.087   9.766  24.735  0.00  0.00    +0.126 A 
ATOM      6  C7  UNL     1       9.868  10.039  23.380  0.00  0.00    +0.061 A 
ATOM      7  O3  UNL     1      11.401   9.523  25.153  0.00  0.00    -0.490 OA
ATOM      8  C8  UNL     1      12.041  10.269  26.186  0.00  0.00    +0.248 C 
ATOM      9  C9  UNL     1      11.579   9.822  27.569  0.00  0.00    +0.149 C 
ATOM     10  N1  UNL     1      10.156  10.120  27.750  0.00  0.00    -0.290 N 
ATOM     11  C10 UNL     1       9.742  11.377  28.321  0.00  0.00    +0.248 C 
ATOM     12  O4  UNL     1       8.891  12.084  27.715  0.00  0.00    -0.270 OA
ATOM     13  C20 UNL     1       9.171   9.285  27.059  0.00  0.00    +0.147 C 
ENDROOT
BRANCH  11  14
ATOM     14  C11 UNL     1      10.281  11.844  29.620  0.00  0.00    +0.055 A 
ATOM     15  C12 UNL     1      10.518  13.207  29.846  0.00  0.00    +0.018 A 
ATOM     16  C13 UNL     1      11.010  13.643  31.079  0.00  0.00    +0.044 A 
ATOM     17  C14 UNL     1      11.250  12.709  32.106  0.00  0.00    +0.121 A 
ATOM     18  N3  UNL     1      10.999  11.390  31.857  0.00  0.00    -0.240 NA
ATOM     19  C19 UNL     1      10.528  10.944  30.664  0.00  0.00    +0.126 A 
BRANCH  17  20
ATOM     20  N2  UNL     1      11.756  13.108  33.406  0.00  0.00    -0.311 N 
ATOM     21  C15 UNL     1      12.685  14.255  33.463  0.00  0.00    +0.134 C 
ATOM     22  C16 UNL     1      13.330  14.424  34.841  0.00  0.00    +0.178 C 
ATOM     23  O5  UNL     1      12.381  14.238  35.867  0.00  0.00    -0.377 OA
ATOM     24  C17 UNL     1      12.001  12.882  35.889  0.00  0.00    +0.178 C 
ATOM     25  C18 UNL     1      11.200  12.515  34.637  0.00  0.00    +0.134 C 
ENDBRANCH  17  20
ENDBRANCH  11  14
BRANCH   1  27
ATOM     26  O1  UNL     1       9.270  10.394  20.623  0.00  0.00    -0.245 OA
ATOM     27  C1  UNL     1       8.361  10.619  21.467  0.00  0.00    +0.337 C 
BRANCH  27  28
ATOM     28  O2  UNL     1       7.150  11.157  21.037  0.00  0.00    -0.477 OA
ATOM     29  H1  UNL     1       7.095  12.109  20.698  0.00  0.00    +0.295 HD
ENDBRANCH  27  28
ENDBRANCH   1  27
TORSDOF 4
ENDMDL
MODEL 2
REMARK VINA RESULT:    -6.506      5.031      8.452
REMARK INTER + INTRA:          -8.215
REMARK INTER:                  -7.736
REMARK INTRA:                  -0.478
REMARK UNBOUND:                -0.378
REMARK  Name = /home/qwerty/github/datacon2025hack/step_04_hit_selection/docking/ligands/lig_383.pdb
REMARK  4 active torsions:
REMARK  status: ('A' for Active; 'I' for Inactive)
REMARK    1  A    between atoms: C1_2  and  O2_3
REMARK    2  A    between atoms: C1_2  and  C2_4
REMARK    3  A    between atoms: C10_14  and  C11_16
REMARK    4  A    between atoms: C14_19  and  N2_20
REMARK                            x       y       z     vdW  Elec       q    Type
REMARK                         _______ _______ _______ _____ _____    ______ ____
ROOT
ATOM      1  C2  UNL     1      10.953  13.968  28.565  0.00  0.00    +0.062 A 
ATOM      2  C3  UNL     1      10.518  13.780  29.886  0.00  0.00    +0.015 A 
ATOM      3  C4  UNL     1       9.481  12.889  30.171  0.00  0.00    +0.009 A 
ATOM      4  C5  UNL     1       8.870  12.151  29.143  0.00  0.00    +0.012 A 
ATOM      5  C6  UNL     1       9.318  12.318  27.816  0.00  0.00    +0.126 A 
ATOM      6  C7  UNL     1      10.337  13.236  27.535  0.00  0.00    +0.061 A 
ATOM      7  O3  UNL     1       8.763  11.605  26.746  0.00  0.00    -0.490 OA
ATOM      8  C8  UNL     1       8.720  10.180  26.699  0.00  0.00    +0.248 C 
ATOM      9  C9  UNL     1       7.604   9.623  27.576  0.00  0.00    +0.149 C 
ATOM     10  N1  UNL     1       7.870   9.920  28.987  0.00  0.00    -0.290 N 
ATOM     11  C10 UNL     1       8.602   8.985  29.803  0.00  0.00    +0.248 C 
ATOM     12  O4  UNL     1       9.602   9.384  30.460  0.00  0.00    -0.270 OA
ATOM     13  C20 UNL     1       7.674  11.291  29.463  0.00  0.00    +0.147 C 
ENDROOT
BRANCH  11  14
ATOM     14  C11 UNL     1       8.190   7.565  29.901  0.00  0.00    +0.055 A 
ATOM     15  C12 UNL     1       6.877   7.226  30.258  0.00  0.00    +0.018 A 
ATOM     16  C13 UNL     1       6.490   5.886  30.331  0.00  0.00    +0.044 A 
ATOM     17  C14 UNL     1       7.419   4.871  30.027  0.00  0.00    +0.121 A 
ATOM     18  N3  UNL     1       8.686   5.235  29.673  0.00  0.00    -0.240 NA
ATOM     19  C19 UNL     1       9.086   6.531  29.602  0.00  0.00    +0.126 A 
BRANCH  17  20
ATOM     20  N2  UNL     1       7.068   3.464  30.084  0.00  0.00    -0.311 N 
ATOM     21  C15 UNL     1       5.965   2.992  29.224  0.00  0.00    +0.134 C 
ATOM     22  C16 UNL     1       5.535   1.560  29.548  0.00  0.00    +0.178 C 
ATOM     23  O5  UNL     1       6.658   0.735  29.764  0.00  0.00    -0.377 OA
ATOM     24  C17 UNL     1       7.281   1.128  30.964  0.00  0.00    +0.178 C 
ATOM     25  C18 UNL     1       7.920   2.512  30.823  0.00  0.00    +0.134 C 
ENDBRANCH  17  20
ENDBRANCH  11  14
BRANCH   1  27
ATOM     26  O1  UNL     1      12.418  15.097  27.067  0.00  0.00    -0.245 OA
ATOM     27  C1  UNL     1      12.042  14.921  28.257  0.00  0.00    +0.337 C 
BRANCH  27  28
ATOM     28  O2  UNL     1      12.662  15.635  29.280  0.00  0.00    -0.477 OA
ATOM     29  H1  UNL     1      12.178  16.385  29.758  0.00  0.00    +0.295 HD
ENDBRANCH  27  28
ENDBRANCH   1  27
TORSDOF 4
ENDMDL
MODEL 3
REMARK VINA RESULT:    -6.500     13.125     16.080
REMARK INTER + INTRA:          -8.208
REMARK INTER:                  -7.758
REMARK INTRA:                  -0.450
REMARK UNBOUND:                -0.378
REMARK  Name = /home/qwerty/github/datacon2025hack/step_04_hit_selection/docking/ligands/lig_383.pdb
REMARK  4 active torsions:
REMARK  status: ('A' for Active; 'I' for Inactive)
REMARK    1  A    between atoms: C1_2  and  O2_3
REMARK    2  A    between atoms: C1_2  and  C2_4
REMARK    3  A    between atoms: C10_14  and  C11_16
REMARK    4  A    between atoms: C14_19  and  N2_20
REMARK                            x       y       z     vdW  Elec       q    Type
REMARK                         _______ _______ _______ _____ _____    ______ ____
ROOT
ATOM      1  C2  UNL     1      19.120   1.133  31.936  0.00  0.00    +0.062 A 
ATOM      2  C3  UNL     1      19.023   2.534  31.956  0.00  0.00    +0.015 A 
ATOM      3  C4  UNL     1      19.857   3.314  31.153  0.00  0.00    +0.009 A 
ATOM      4  C5  UNL     1      20.793   2.710  30.296  0.00  0.00    +0.012 A 
ATOM      5  C6  UNL     1      20.880   1.302  30.253  0.00  0.00    +0.126 A 
ATOM      6  C7  UNL     1      20.061   0.529  31.085  0.00  0.00    +0.061 A 
ATOM      7  O3  UNL     1      21.780   0.636  29.413  0.00  0.00    -0.490 OA
ATOM      8  C8  UNL     1      21.806   0.819  27.999  0.00  0.00    +0.248 C 
ATOM      9  C9  UNL     1      22.498   2.122  27.614  0.00  0.00    +0.149 C 
ATOM     10  N1  UNL     1      21.729   3.269  28.102  0.00  0.00    -0.290 N 
ATOM     11  C10 UNL     1      20.724   3.880  27.269  0.00  0.00    +0.248 C 
ATOM     12  O4  UNL     1      19.559   4.049  27.724  0.00  0.00    -0.270 OA
ATOM     13  C20 UNL     1      21.762   3.577  29.533  0.00  0.00    +0.147 C 
ENDROOT
BRANCH  11  14
ATOM     14  C11 UNL     1      21.038   4.333  25.894  0.00  0.00    +0.055 A 
ATOM     15  C12 UNL     1      20.156   4.072  24.837  0.00  0.00    +0.018 A 
ATOM     16  C13 UNL     1      20.449   4.518  23.546  0.00  0.00    +0.044 A 
ATOM     17  C14 UNL     1      21.630   5.250  23.311  0.00  0.00    +0.121 A 
ATOM     18  N3  UNL     1      22.463   5.497  24.363  0.00  0.00    -0.240 NA
ATOM     19  C19 UNL     1      22.201   5.067  25.625  0.00  0.00    +0.126 A 
BRANCH  17  20
ATOM     20  N2  UNL     1      21.981   5.740  21.991  0.00  0.00    -0.311 N 
ATOM     21  C15 UNL     1      23.042   6.763  21.892  0.00  0.00    +0.134 C 
ATOM     22  C16 UNL     1      23.151   7.368  20.491  0.00  0.00    +0.178 C 
ATOM     23  O5  UNL     1      23.048   6.368  19.502  0.00  0.00    -0.377 OA
ATOM     24  C17 UNL     1      21.730   5.870  19.501  0.00  0.00    +0.178 C 
ATOM     25  C18 UNL     1      21.437   5.088  20.784  0.00  0.00    +0.134 C 
ENDBRANCH  17  20
ENDBRANCH  11  14
BRANCH   1  27
ATOM     26  O1  UNL     1      18.017   0.642  33.987  0.00  0.00    -0.245 OA
ATOM     27  C1  UNL     1      18.247   0.303  32.795  0.00  0.00    +0.337 C 
BRANCH  27  28
ATOM     28  O2  UNL     1      17.669  -0.862  32.295  0.00  0.00    -0.477 OA
ATOM     29  H1  UNL     1      16.927  -0.820  31.608  0.00  0.00    +0.295 HD
ENDBRANCH  27  28
ENDBRANCH   1  27
TORSDOF 4
ENDMDL
MODEL 4
REMARK VINA RESULT:    -6.488     12.923     16.241
REMARK INTER + INTRA:          -8.193
REMARK INTER:                  -8.003
REMARK INTRA:                  -0.190
REMARK UNBOUND:                -0.378
REMARK  Name = /home/qwerty/github/datacon2025hack/step_04_hit_selection/docking/ligands/lig_383.pdb
REMARK  4 active torsions:
REMARK  status: ('A' for Active; 'I' for Inactive)
REMARK    1  A    between atoms: C1_2  and  O2_3
REMARK    2  A    between atoms: C1_2  and  C2_4
REMARK    3  A    between atoms: C10_14  and  C11_16
REMARK    4  A    between atoms: C14_19  and  N2_20
REMARK                            x       y       z     vdW  Elec       q    Type
REMARK                         _______ _______ _______ _____ _____    ______ ____
ROOT
ATOM      1  C2  UNL     1      20.690   1.034  30.804  0.00  0.00    +0.062 A 
ATOM      2  C3  UNL     1      21.786   0.568  30.061  0.00  0.00    +0.015 A 
ATOM      3  C4  UNL     1      21.751   0.576  28.666  0.00  0.00    +0.009 A 
ATOM      4  C5  UNL     1      20.627   1.068  27.981  0.00  0.00    +0.012 A 
ATOM      5  C6  UNL     1      19.531   1.560  28.721  0.00  0.00    +0.126 A 
ATOM      6  C7  UNL     1      19.562   1.520  30.120  0.00  0.00    +0.061 A 
ATOM      7  O3  UNL     1      18.386   2.078  28.103  0.00  0.00    -0.490 OA
ATOM      8  C8  UNL     1      18.424   3.161  27.177  0.00  0.00    +0.248 C 
ATOM      9  C9  UNL     1      18.892   2.705  25.799  0.00  0.00    +0.149 C 
ATOM     10  N1  UNL     1      20.283   2.247  25.861  0.00  0.00    -0.290 N 
ATOM     11  C10 UNL     1      21.365   3.169  25.619  0.00  0.00    +0.248 C 
ATOM     12  O4  UNL     1      22.301   3.261  26.460  0.00  0.00    -0.270 OA
ATOM     13  C20 UNL     1      20.568   0.951  26.480  0.00  0.00    +0.147 C 
ENDROOT
BRANCH  11  14
ATOM     14  C11 UNL     1      21.409   3.994  24.390  0.00  0.00    +0.055 A 
ATOM     15  C12 UNL     1      20.665   3.632  23.259  0.00  0.00    +0.018 A 
ATOM     16  C13 UNL     1      20.697   4.424  22.109  0.00  0.00    +0.044 A 
ATOM     17  C14 UNL     1      21.468   5.604  22.094  0.00  0.00    +0.121 A 
ATOM     18  N3  UNL     1      22.172   5.935  23.215  0.00  0.00    -0.240 NA
ATOM     19  C19 UNL     1      22.161   5.175  24.341  0.00  0.00    +0.126 A 
BRANCH  17  20
ATOM     20  N2  UNL     1      21.533   6.465  20.928  0.00  0.00    -0.311 N 
ATOM     21  C15 UNL     1      22.863   6.924  20.481  0.00  0.00    +0.134 C 
ATOM     22  C16 UNL     1      22.783   8.008  19.403  0.00  0.00    +0.178 C 
ATOM     23  O5  UNL     1      21.792   7.696  18.450  0.00  0.00    -0.377 OA
ATOM     24  C17 UNL     1      20.528   7.803  19.062  0.00  0.00    +0.178 C 
ATOM     25  C18 UNL     1      20.329   6.702  20.107  0.00  0.00    +0.134 C 
ENDBRANCH  17  20
ENDBRANCH  11  14
BRANCH   1  27
ATOM     26  O1  UNL     1      21.048   2.047  32.928  0.00  0.00    -0.245 OA
ATOM     27  C1  UNL     1      20.717   1.016  32.283  0.00  0.00    +0.337 C 
BRANCH  27  28
ATOM     28  O2  UNL     1      20.374  -0.141  32.979  0.00  0.00    -0.477 OA
ATOM     29  H1  UNL     1      19.771  -0.839  32.562  0.00  0.00    +0.295 HD
ENDBRANCH  27  28
ENDBRANCH   1  27
TORSDOF 4
ENDMDL
MODEL 5
REMARK VINA RESULT:    -6.430      5.637      7.303
REMARK INTER + INTRA:          -8.124
REMARK INTER:                  -7.654
REMARK INTRA:                  -0.470
REMARK UNBOUND:                -0.378
REMARK  Name = /home/qwerty/github/datacon2025hack/step_04_hit_selection/docking/ligands/lig_383.pdb
REMARK  4 active torsions:
REMARK  status: ('A' for Active; 'I' for Inactive)
REMARK    1  A    between atoms: C1_2  and  O2_3
REMARK    2  A    between atoms: C1_2  and  C2_4
REMARK    3  A    between atoms: C10_14  and  C11_16
REMARK    4  A    between atoms: C14_19  and  N2_20
REMARK                            x       y       z     vdW  Elec       q    Type
REMARK                         _______ _______ _______ _____ _____    ______ ____
ROOT
ATOM      1  C2  UNL     1       8.040  10.742  28.794  0.00  0.00    +0.062 A 
ATOM      2  C3  UNL     1       8.243  11.073  27.444  0.00  0.00    +0.015 A 
ATOM      3  C4  UNL     1       9.046  12.160  27.095  0.00  0.00    +0.009 A 
ATOM      4  C5  UNL     1       9.682  12.928  28.086  0.00  0.00    +0.012 A 
ATOM      5  C6  UNL     1       9.501  12.586  29.443  0.00  0.00    +0.126 A 
ATOM      6  C7  UNL     1       8.669  11.513  29.786  0.00  0.00    +0.061 A 
ATOM      7  O3  UNL     1      10.115  13.299  30.479  0.00  0.00    -0.490 OA
ATOM      8  C8  UNL     1      11.527  13.480  30.570  0.00  0.00    +0.248 C 
ATOM      9  C9  UNL     1      12.015  14.562  29.612  0.00  0.00    +0.149 C 
ATOM     10  N1  UNL     1      11.803  14.144  28.224  0.00  0.00    -0.290 N 
ATOM     11  C10 UNL     1      12.835  13.434  27.511  0.00  0.00    +0.248 C 
ATOM     12  O4  UNL     1      12.557  12.347  26.935  0.00  0.00    -0.270 OA
ATOM     13  C20 UNL     1      10.442  14.166  27.685  0.00  0.00    +0.147 C 
ENDROOT
BRANCH  11  14
ATOM     14  C11 UNL     1      14.214  13.969  27.422  0.00  0.00    +0.055 A 
ATOM     15  C12 UNL     1      14.445  15.280  26.981  0.00  0.00    +0.018 A 
ATOM     16  C13 UNL     1      15.746  15.784  26.917  0.00  0.00    +0.044 A 
ATOM     17  C14 UNL     1      16.830  14.976  27.315  0.00  0.00    +0.121 A 
ATOM     18  N3  UNL     1      16.571  13.708  27.748  0.00  0.00    -0.240 NA
ATOM     19  C19 UNL     1      15.314  13.195  27.813  0.00  0.00    +0.126 A 
BRANCH  17  20
ATOM     20  N2  UNL     1      18.200  15.451  27.272  0.00  0.00    -0.311 N 
ATOM     21  C15 UNL     1      18.568  16.581  28.148  0.00  0.00    +0.134 C 
ATOM     22  C16 UNL     1      19.958  17.141  27.839  0.00  0.00    +0.178 C 
ATOM     23  O5  UNL     1      20.881  16.099  27.615  0.00  0.00    -0.377 OA
ATOM     24  C17 UNL     1      20.551  15.458  26.405  0.00  0.00    +0.178 C 
ATOM     25  C18 UNL     1      19.228  14.697  26.529  0.00  0.00    +0.134 C 
ENDBRANCH  17  20
ENDBRANCH  11  14
BRANCH   1  27
ATOM     26  O1  UNL     1       7.088   9.236  30.373  0.00  0.00    -0.245 OA
ATOM     27  C1  UNL     1       7.178   9.599  29.169  0.00  0.00    +0.337 C 
BRANCH  27  28
ATOM     28  O2  UNL     1       6.456   8.913  28.195  0.00  0.00    -0.477 OA
ATOM     29  H1  UNL     1       6.241   7.930  28.303  0.00  0.00    +0.295 HD
ENDBRANCH  27  28
ENDBRANCH   1  27
TORSDOF 4
ENDMDL
MODEL 6
REMARK VINA RESULT:    -6.406      8.616     11.730
REMARK INTER + INTRA:          -8.095
REMARK INTER:                  -7.612
REMARK INTRA:                  -0.482
REMARK UNBOUND:                -0.378
REMARK  Name = /home/qwerty/github/datacon2025hack/step_04_hit_selection/docking/ligands/lig_383.pdb
REMARK  4 active torsions:
REMARK  status: ('A' for Active; 'I' for Inactive)
REMARK    1  A    between atoms: C1_2  and  O2_3
REMARK    2  A    between atoms: C1_2  and  C2_4
REMARK    3  A    between atoms: C10_14  and  C11_16
REMARK    4  A    between atoms: C14_19  and  N2_20
REMARK                            x       y       z     vdW  Elec       q    Type
REMARK                         _______ _______ _______ _____ _____    ______ ____
ROOT
ATOM      1  C2  UNL     1       8.574   8.903  21.676  0.00  0.00    +0.062 A 
ATOM      2  C3  UNL     1       7.834   7.737  21.424  0.00  0.00    +0.015 A 
ATOM      3  C4  UNL     1       8.466   6.584  20.954  0.00  0.00    +0.009 A 
ATOM      4  C5  UNL     1       9.856   6.566  20.743  0.00  0.00    +0.012 A 
ATOM      5  C6  UNL     1      10.608   7.728  21.016  0.00  0.00    +0.126 A 
ATOM      6  C7  UNL     1       9.962   8.889  21.458  0.00  0.00    +0.061 A 
ATOM      7  O3  UNL     1      11.997   7.775  20.841  0.00  0.00    -0.490 OA
ATOM      8  C8  UNL     1      12.894   6.875  21.488  0.00  0.00    +0.248 C 
ATOM      9  C9  UNL     1      12.910   5.512  20.804  0.00  0.00    +0.149 C 
ATOM     10  N1  UNL     1      11.604   4.861  20.936  0.00  0.00    -0.290 N 
ATOM     11  C10 UNL     1      11.333   3.990  22.052  0.00  0.00    +0.248 C 
ATOM     12  O4  UNL     1      10.304   4.184  22.755  0.00  0.00    -0.270 OA
ATOM     13  C20 UNL     1      10.492   5.351  20.119  0.00  0.00    +0.147 C 
ENDROOT
BRANCH  11  14
ATOM     14  C11 UNL     1      12.231   2.857  22.377  0.00  0.00    +0.055 A 
ATOM     15  C12 UNL     1      12.537   1.889  21.411  0.00  0.00    +0.018 A 
ATOM     16  C13 UNL     1      13.398   0.833  21.718  0.00  0.00    +0.044 A 
ATOM     17  C14 UNL     1      13.976   0.752  23.001  0.00  0.00    +0.121 A 
ATOM     18  N3  UNL     1      13.665   1.716  23.916  0.00  0.00    -0.240 NA
ATOM     19  C19 UNL     1      12.825   2.748  23.641  0.00  0.00    +0.126 A 
BRANCH  17  20
ATOM     20  N2  UNL     1      14.879  -0.321  23.371  0.00  0.00    -0.311 N 
ATOM     21  C15 UNL     1      14.677  -0.976  24.679  0.00  0.00    +0.134 C 
ATOM     22  C16 UNL     1      15.826  -1.914  25.055  0.00  0.00    +0.178 C 
ATOM     23  O5  UNL     1      16.233  -2.680  23.944  0.00  0.00    -0.377 OA
ATOM     24  C17 UNL     1      16.850  -1.826  23.009  0.00  0.00    +0.178 C 
ATOM     25  C18 UNL     1      15.833  -0.867  22.385  0.00  0.00    +0.134 C 
ENDBRANCH  17  20
ENDBRANCH  11  14
BRANCH   1  27
ATOM     26  O1  UNL     1       7.788  10.346  23.399  0.00  0.00    -0.245 OA
ATOM     27  C1  UNL     1       7.906  10.131  22.162  0.00  0.00    +0.337 C 
BRANCH  27  28
ATOM     28  O2  UNL     1       7.401  11.063  21.258  0.00  0.00    -0.477 OA
ATOM     29  H1  UNL     1       7.343  10.849  20.270  0.00  0.00    +0.295 HD
ENDBRANCH  27  28
ENDBRANCH   1  27
TORSDOF 4
ENDMDL
MODEL 7
REMARK VINA RESULT:    -6.404      9.189     12.386
REMARK INTER + INTRA:          -8.092
REMARK INTER:                  -7.683
REMARK INTRA:                  -0.409
REMARK UNBOUND:                -0.378
REMARK  Name = /home/qwerty/github/datacon2025hack/step_04_hit_selection/docking/ligands/lig_383.pdb
REMARK  4 active torsions:
REMARK  status: ('A' for Active; 'I' for Inactive)
REMARK    1  A    between atoms: C1_2  and  O2_3
REMARK    2  A    between atoms: C1_2  and  C2_4
REMARK    3  A    between atoms: C10_14  and  C11_16
REMARK    4  A    between atoms: C14_19  and  N2_20
REMARK                            x       y       z     vdW  Elec       q    Type
REMARK                         _______ _______ _______ _____ _____    ______ ____
ROOT
ATOM      1  C2  UNL     1      12.430  13.838  35.767  0.00  0.00    +0.062 A 
ATOM      2  C3  UNL     1      13.479  14.768  35.707  0.00  0.00    +0.015 A 
ATOM      3  C4  UNL     1      14.761  14.419  36.137  0.00  0.00    +0.009 A 
ATOM      4  C5  UNL     1      15.026  13.126  36.618  0.00  0.00    +0.012 A 
ATOM      5  C6  UNL     1      13.981  12.179  36.659  0.00  0.00    +0.126 A 
ATOM      6  C7  UNL     1      12.692  12.546  36.254  0.00  0.00    +0.061 A 
ATOM      7  O3  UNL     1      14.179  10.869  37.114  0.00  0.00    -0.490 OA
ATOM      8  C8  UNL     1      15.144   9.986  36.545  0.00  0.00    +0.248 C 
ATOM      9  C9  UNL     1      16.553  10.307  37.031  0.00  0.00    +0.149 C 
ATOM     10  N1  UNL     1      16.965  11.630  36.554  0.00  0.00    -0.290 N 
ATOM     11  C10 UNL     1      17.663  11.768  35.301  0.00  0.00    +0.248 C 
ATOM     12  O4  UNL     1      17.234  12.582  34.438  0.00  0.00    -0.270 OA
ATOM     13  C20 UNL     1      16.386  12.816  37.189  0.00  0.00    +0.147 C 
ENDROOT
BRANCH  11  14
ATOM     14  C11 UNL     1      18.889  10.986  35.015  0.00  0.00    +0.055 A 
ATOM     15  C12 UNL     1      19.870  10.811  36.000  0.00  0.00    +0.018 A 
ATOM     16  C13 UNL     1      21.015  10.058  35.730  0.00  0.00    +0.044 A 
ATOM     17  C14 UNL     1      21.175   9.457  34.465  0.00  0.00    +0.121 A 
ATOM     18  N3  UNL     1      20.196   9.638  33.531  0.00  0.00    -0.240 NA
ATOM     19  C19 UNL     1      19.078  10.372  33.770  0.00  0.00    +0.126 A 
BRANCH  17  20
ATOM     20  N2  UNL     1      22.342   8.662  34.133  0.00  0.00    -0.311 N 
ATOM     21  C15 UNL     1      23.083   9.002  32.902  0.00  0.00    +0.134 C 
ATOM     22  C16 UNL     1      24.136   7.954  32.538  0.00  0.00    +0.178 C 
ATOM     23  O5  UNL     1      24.838   7.526  33.683  0.00  0.00    -0.377 OA
ATOM     24  C17 UNL     1      23.961   6.784  34.498  0.00  0.00    +0.178 C 
ATOM     25  C18 UNL     1      22.877   7.683  35.100  0.00  0.00    +0.134 C 
ENDBRANCH  17  20
ENDBRANCH  11  14
BRANCH   1  27
ATOM     26  O1  UNL     1      10.069  13.958  36.053  0.00  0.00    -0.245 OA
ATOM     27  C1  UNL     1      11.067  14.207  35.324  0.00  0.00    +0.337 C 
BRANCH  27  28
ATOM     28  O2  UNL     1      10.872  14.837  34.097  0.00  0.00    -0.477 OA
ATOM     29  H1  UNL     1       9.940  15.043  33.760  0.00  0.00    +0.295 HD
ENDBRANCH  27  28
ENDBRANCH   1  27
TORSDOF 4
ENDMDL
MODEL 8
REMARK VINA RESULT:    -6.387     13.016     16.102
REMARK INTER + INTRA:          -8.071
REMARK INTER:                  -7.608
REMARK INTRA:                  -0.463
REMARK UNBOUND:                -0.378
REMARK  Name = /home/qwerty/github/datacon2025hack/step_04_hit_selection/docking/ligands/lig_383.pdb
REMARK  4 active torsions:
REMARK  status: ('A' for Active; 'I' for Inactive)
REMARK    1  A    between atoms: C1_2  and  O2_3
REMARK    2  A    between atoms: C1_2  and  C2_4
REMARK    3  A    between atoms: C10_14  and  C11_16
REMARK    4  A    between atoms: C14_19  and  N2_20
REMARK                            x       y       z     vdW  Elec       q    Type
REMARK                         _______ _______ _______ _____ _____    ______ ____
ROOT
ATOM      1  C2  UNL     1      19.561   2.172  33.898  0.00  0.00    +0.062 A 
ATOM      2  C3  UNL     1      20.862   2.689  33.796  0.00  0.00    +0.015 A 
ATOM      3  C4  UNL     1      21.583   2.563  32.607  0.00  0.00    +0.009 A 
ATOM      4  C5  UNL     1      21.012   1.934  31.488  0.00  0.00    +0.012 A 
ATOM      5  C6  UNL     1      19.696   1.433  31.577  0.00  0.00    +0.126 A 
ATOM      6  C7  UNL     1      18.991   1.537  32.782  0.00  0.00    +0.061 A 
ATOM      7  O3  UNL     1      19.062   0.808  30.496  0.00  0.00    -0.490 OA
ATOM      8  C8  UNL     1      18.884   1.437  29.228  0.00  0.00    +0.248 C 
ATOM      9  C9  UNL     1      20.171   1.420  28.410  0.00  0.00    +0.149 C 
ATOM     10  N1  UNL     1      21.200   2.234  29.064  0.00  0.00    -0.290 N 
ATOM     11  C10 UNL     1      21.338   3.631  28.741  0.00  0.00    +0.248 C 
ATOM     12  O4  UNL     1      21.347   4.485  29.669  0.00  0.00    -0.270 OA
ATOM     13  C20 UNL     1      21.856   1.704  30.260  0.00  0.00    +0.147 C 
ENDROOT
BRANCH  11  14
ATOM     14  C11 UNL     1      21.491   4.083  27.338  0.00  0.00    +0.055 A 
ATOM     15  C12 UNL     1      22.496   3.549  26.521  0.00  0.00    +0.018 A 
ATOM     16  C13 UNL     1      22.624   3.967  25.194  0.00  0.00    +0.044 A 
ATOM     17  C14 UNL     1      21.724   4.917  24.670  0.00  0.00    +0.121 A 
ATOM     18  N3  UNL     1      20.750   5.410  25.488  0.00  0.00    -0.240 NA
ATOM     19  C19 UNL     1      20.612   5.023  26.783  0.00  0.00    +0.126 A 
BRANCH  17  20
ATOM     20  N2  UNL     1      21.809   5.382  23.298  0.00  0.00    -0.311 N 
ATOM     21  C15 UNL     1      22.911   6.300  22.946  0.00  0.00    +0.134 C 
ATOM     22  C16 UNL     1      22.754   6.903  21.549  0.00  0.00    +0.178 C 
ATOM     23  O5  UNL     1      22.334   5.925  20.624  0.00  0.00    -0.377 OA
ATOM     24  C17 UNL     1      21.010   5.555  20.930  0.00  0.00    +0.178 C 
ATOM     25  C18 UNL     1      20.945   4.794  22.257  0.00  0.00    +0.134 C 
ENDBRANCH  17  20
ENDBRANCH  11  14
BRANCH   1  27
ATOM     26  O1  UNL     1      18.491   3.427  35.615  0.00  0.00    -0.245 OA
ATOM     27  C1  UNL     1      18.797   2.292  35.160  0.00  0.00    +0.337 C 
BRANCH  27  28
ATOM     28  O2  UNL     1      18.408   1.151  35.858  0.00  0.00    -0.477 OA
ATOM     29  H1  UNL     1      19.086   0.593  36.362  0.00  0.00    +0.295 HD
ENDBRANCH  27  28
ENDBRANCH   1  27
TORSDOF 4
ENDMDL
MODEL 9
REMARK VINA RESULT:    -6.307     12.830     14.016
REMARK INTER + INTRA:          -7.976
REMARK INTER:                  -7.473
REMARK INTRA:                  -0.503
REMARK UNBOUND:                -0.378
REMARK  Name = /home/qwerty/github/datacon2025hack/step_04_hit_selection/docking/ligands/lig_383.pdb
REMARK  4 active torsions:
REMARK  status: ('A' for Active; 'I' for Inactive)
REMARK    1  A    between atoms: C1_2  and  O2_3
REMARK    2  A    between atoms: C1_2  and  C2_4
REMARK    3  A    between atoms: C10_14  and  C11_16
REMARK    4  A    between atoms: C14_19  and  N2_20
REMARK                            x       y       z     vdW  Elec       q    Type
REMARK                         _______ _______ _______ _____ _____    ______ ____
ROOT
ATOM      1  C2  UNL     1      21.783   2.522  26.976  0.00  0.00    +0.062 A 
ATOM      2  C3  UNL     1      21.617   1.169  27.311  0.00  0.00    +0.015 A 
ATOM      3  C4  UNL     1      21.404   0.790  28.638  0.00  0.00    +0.009 A 
ATOM      4  C5  UNL     1      21.333   1.756  29.656  0.00  0.00    +0.012 A 
ATOM      5  C6  UNL     1      21.477   3.120  29.322  0.00  0.00    +0.126 A 
ATOM      6  C7  UNL     1      21.720   3.489  27.993  0.00  0.00    +0.061 A 
ATOM      7  O3  UNL     1      21.403   4.134  30.283  0.00  0.00    -0.490 OA
ATOM      8  C8  UNL     1      20.275   4.319  31.136  0.00  0.00    +0.248 C 
ATOM      9  C9  UNL     1      20.265   3.312  32.280  0.00  0.00    +0.149 C 
ATOM     10  N1  UNL     1      20.093   1.953  31.759  0.00  0.00    -0.290 N 
ATOM     11  C10 UNL     1      18.774   1.388  31.618  0.00  0.00    +0.248 C 
ATOM     12  O4  UNL     1      18.427   0.891  30.511  0.00  0.00    -0.270 OA
ATOM     13  C20 UNL     1      21.226   1.309  31.091  0.00  0.00    +0.147 C 
ENDROOT
BRANCH  11  14
ATOM     14  C11 UNL     1      17.825   1.362  32.755  0.00  0.00    +0.055 A 
ATOM     15  C12 UNL     1      18.022   0.484  33.829  0.00  0.00    +0.018 A 
ATOM     16  C13 UNL     1      17.133   0.476  34.907  0.00  0.00    +0.044 A 
ATOM     17  C14 UNL     1      16.043   1.369  34.921  0.00  0.00    +0.121 A 
ATOM     18  N3  UNL     1      15.885   2.218  33.864  0.00  0.00    -0.240 NA
ATOM     19  C19 UNL     1      16.733   2.238  32.803  0.00  0.00    +0.126 A 
BRANCH  17  20
ATOM     20  N2  UNL     1      15.092   1.406  36.016  0.00  0.00    -0.311 N 
ATOM     21  C15 UNL     1      14.091   2.490  36.027  0.00  0.00    +0.134 C 
ATOM     22  C16 UNL     1      13.311   2.562  37.341  0.00  0.00    +0.178 C 
ATOM     23  O5  UNL     1      12.952   1.273  37.784  0.00  0.00    -0.377 OA
ATOM     24  C17 UNL     1      14.120   0.590  38.177  0.00  0.00    +0.178 C 
ATOM     25  C18 UNL     1      15.009   0.282  36.969  0.00  0.00    +0.134 C 
ENDBRANCH  17  20
ENDBRANCH  11  14
BRANCH   1  27
ATOM     26  O1  UNL     1      21.082   2.905  24.733  0.00  0.00    -0.245 OA
ATOM     27  C1  UNL     1      22.022   2.928  25.572  0.00  0.00    +0.337 C 
BRANCH  27  28
ATOM     28  O2  UNL     1      23.289   3.343  25.166  0.00  0.00    -0.477 OA
ATOM     29  H1  UNL     1      24.077   3.302  25.799  0.00  0.00    +0.295 HD
ENDBRANCH  27  28
ENDBRANCH   1  27
TORSDOF 4
ENDMDL
