REMARK  Name = /home/qwerty/github/datacon2025hack/step_04_hit_selection/docking/ligands/lig_447.pdb
REMARK  5 active torsions:
REMARK  status: ('A' for Active; 'I' for Inactive)
REMARK    1  A    between atoms: C1_1  and  N1_2
REMARK    2  A    between atoms: C3_4  and  N2_5
REMARK    3  A    between atoms: C5_7  and  C6_8
REMARK    4  A    between atoms: N3_10  and  C7_11
REMARK    5  A    between atoms: C15_20  and  C16_22
REMARK                            x       y       z     vdW  Elec       q    Type
REMARK                         _______ _______ _______ _____ _____    ______ ____
ROOT
ATOM      1  C7  UNL     1      -0.205  -0.270   1.926  0.00  0.00    +0.037 A 
ATOM      2  C8  UNL     1       0.046  -0.703   3.245  0.00  0.00    +0.023 A 
ATOM      3  C9  UNL     1      -0.797  -0.310   4.297  0.00  0.00    +0.002 A 
ATOM      4  C10 UNL     1      -1.899   0.518   4.047  0.00  0.00    +0.004 A 
ATOM      5  C11 UNL     1      -2.143   0.935   2.738  0.00  0.00    -0.042 A 
ATOM      6  C12 UNL     1      -1.333   0.538   1.699  0.00  0.00    -0.018 A 
ATOM      7  C13 UNL     1      -1.791   1.114   0.403  0.00  0.00    +0.043 C 
ATOM      8  C14 UNL     1      -2.421   0.067  -0.523  0.00  0.00    +0.116 C 
ATOM      9  N4  UNL     1      -3.778   0.519  -0.783  0.00  0.00    -0.297 N 
ATOM     10  C15 UNL     1      -4.608  -0.077  -1.795  0.00  0.00    +0.248 C 
ATOM     11  O2  UNL     1      -4.071  -0.600  -2.809  0.00  0.00    -0.270 OA
ATOM     12  C21 UNL     1      -4.093   1.787  -0.146  0.00  0.00    +0.112 C 
ATOM     13  C22 UNL     1      -2.925   2.083   0.798  0.00  0.00    +0.020 C 
ATOM     14  C23 UNL     1      -3.249   1.812   2.290  0.00  0.00    +0.041 C 
ENDROOT
BRANCH  10  15
ATOM     15  C16 UNL     1      -6.080  -0.090  -1.670  0.00  0.00    +0.055 A 
ATOM     16  C17 UNL     1      -6.892   0.049  -2.806  0.00  0.00    +0.016 A 
ATOM     17  C18 UNL     1      -8.283   0.034  -2.678  0.00  0.00    +0.020 A 
ATOM     18  C19 UNL     1      -8.851  -0.144  -1.416  0.00  0.00    +0.111 A 
ATOM     19  N5  UNL     1      -8.055  -0.294  -0.323  0.00  0.00    -0.263 NA
ATOM     20  C20 UNL     1      -6.698  -0.277  -0.422  0.00  0.00    +0.123 A 
ENDBRANCH  10  15
BRANCH   1  23
ATOM     21  C6  UNL     1       2.062  -0.822   0.953  0.00  0.00    +0.222 C 
ATOM     22  O1  UNL     1       2.675  -0.306   1.929  0.00  0.00    -0.275 OA
ATOM     23  N3  UNL     1       0.638  -0.679   0.836  0.00  0.00    -0.285 N 
ATOM     24  H8  UNL     1       0.197  -0.866  -0.093  0.00  0.00    +0.155 HD
BRANCH  21  27
ATOM     25  N2  UNL     1       5.207  -1.233  -0.046  0.00  0.00    -0.268 N 
ATOM     26  C4  UNL     1       3.994  -0.726  -0.668  0.00  0.00    +0.127 C 
ATOM     27  C5  UNL     1       2.838  -1.582  -0.096  0.00  0.00    +0.102 C 
ATOM     28  C24 UNL     1       3.494  -2.837   0.517  0.00  0.00    +0.110 C 
ATOM     29  C25 UNL     1       4.921  -2.463   0.599  0.00  0.00    +0.221 C 
ATOM     30  O3  UNL     1       5.799  -3.190   1.135  0.00  0.00    -0.275 OA
BRANCH  25  34
ATOM     31  C1  UNL     1       8.913   1.693  -1.546  0.00  0.00    +0.172 C 
ATOM     32  N1  UNL     1       8.135   0.703  -0.817  0.00  0.00    -0.273 N 
ATOM     33  C2  UNL     1       6.848   0.387  -1.051  0.00  0.00    +0.131 A 
ATOM     34  C3  UNL     1       6.499  -0.614  -0.170  0.00  0.00    +0.074 A 
ATOM     35  C26 UNL     1       7.631  -0.861   0.587  0.00  0.00    +0.157 A 
ATOM     36  N6  UNL     1       8.618  -0.044   0.167  0.00  0.00    -0.178 NA
ENDBRANCH  25  34
ENDBRANCH  21  27
ENDBRANCH   1  23
TORSDOF 4
