REMARK  Name = /home/qwerty/github/datacon2025hack/step_04_hit_selection/docking/ligands/lig_800.pdb
REMARK  7 active torsions:
REMARK  status: ('A' for Active; 'I' for Inactive)
REMARK    1  A    between atoms: C1_1  and  N1_2
REMARK    2  A    between atoms: C5_7  and  C6_8
REMARK    3  A    between atoms: C10_14  and  N4_15
REMARK    4  A    between atoms: C11_16  and  C12_18
REMARK    5  A    between atoms: C12_18  and  C13_19
REMARK    6  A    between atoms: C13_19  and  C14_20
REMARK    7  A    between atoms: C14_20  and  C15_21
REMARK                            x       y       z     vdW  Elec       q    Type
REMARK                         _______ _______ _______ _____ _____    ______ ____
ROOT
ATOM      1  C6  UNL     1      -2.980   0.781  -2.220  0.00  0.00    +0.248 C 
ATOM      2  O1  UNL     1      -3.292   1.565  -3.158  0.00  0.00    -0.270 OA
ATOM      3  N3  UNL     1      -1.680   0.162  -2.215  0.00  0.00    -0.296 N 
ATOM      4  C7  UNL     1      -1.028  -0.192  -3.482  0.00  0.00    +0.108 C 
ATOM      5  C8  UNL     1       0.256   0.629  -3.677  0.00  0.00    +0.021 C 
ATOM      6  C9  UNL     1       1.013   0.906  -2.359  0.00  0.00    +0.025 C 
ATOM      7  C10 UNL     1       0.600  -0.054  -1.228  0.00  0.00    +0.090 C 
ATOM      8  C21 UNL     1      -0.912   0.083  -0.960  0.00  0.00    +0.130 C 
ENDROOT
BRANCH   1  15
ATOM      9  C1  UNL     1      -7.707   0.473   2.443  0.00  0.00    +0.174 C 
ATOM     10  N1  UNL     1      -6.642  -0.296   1.813  0.00  0.00    -0.250 N 
ATOM     11  N2  UNL     1      -6.390  -1.578   2.061  0.00  0.00    -0.177 NA
ATOM     12  C2  UNL     1      -5.374  -1.975   1.252  0.00  0.00    +0.144 A 
ATOM     13  C3  UNL     1      -4.996  -0.901   0.472  0.00  0.00    +0.039 A 
ATOM     14  C4  UNL     1      -4.049  -0.741  -0.530  0.00  0.00    +0.027 A 
ATOM     15  C5  UNL     1      -3.957   0.532  -1.138  0.00  0.00    +0.056 A 
ATOM     16  C22 UNL     1      -4.845   1.564  -0.724  0.00  0.00    +0.126 A 
ATOM     17  N5  UNL     1      -5.761   1.343   0.268  0.00  0.00    -0.235 NA
ATOM     18  C23 UNL     1      -5.810   0.119   0.847  0.00  0.00    +0.158 A 
ENDBRANCH   1  15
BRANCH   7  19
ATOM     19  N4  UNL     1       1.358   0.234  -0.007  0.00  0.00    -0.311 N 
ATOM     20  C11 UNL     1       1.463  -0.709   1.069  0.00  0.00    +0.213 C 
ATOM     21  O2  UNL     1       0.822  -1.794   1.030  0.00  0.00    -0.276 OA
ATOM     22  H13 UNL     1       1.875   1.140   0.071  0.00  0.00    +0.149 HD
BRANCH  20  23
ATOM     23  C12 UNL     1       2.342  -0.414   2.251  0.00  0.00    +0.096 C 
BRANCH  23  24
ATOM     24  C13 UNL     1       3.490  -1.428   2.389  0.00  0.00    +0.014 C 
BRANCH  24  25
ATOM     25  C14 UNL     1       4.449  -1.454   1.185  0.00  0.00    +0.035 C 
BRANCH  25  26
ATOM     26  C15 UNL     1       5.126  -0.125   0.956  0.00  0.00    -0.047 A 
ATOM     27  C16 UNL     1       6.075   0.355   1.874  0.00  0.00    +0.003 A 
ATOM     28  C17 UNL     1       6.688   1.595   1.670  0.00  0.00    +0.000 A 
ATOM     29  C18 UNL     1       6.359   2.363   0.550  0.00  0.00    +0.000 A 
ATOM     30  C19 UNL     1       5.420   1.890  -0.371  0.00  0.00    +0.000 A 
ATOM     31  C20 UNL     1       4.808   0.650  -0.173  0.00  0.00    +0.003 A 
ENDBRANCH  25  26
ENDBRANCH  24  25
ENDBRANCH  23  24
ENDBRANCH  20  23
ENDBRANCH   7  19
TORSDOF 6
