REMARK  Name = /home/qwerty/github/datacon2025hack/step_04_hit_selection/docking/ligands/lig_233.pdb
REMARK  8 active torsions:
REMARK  status: ('A' for Active; 'I' for Inactive)
REMARK    1  A    between atoms: C1_1  and  C2_2
REMARK    2  A    between atoms: C2_2  and  N1_3
REMARK    3  A    between atoms: N1_3  and  C3_4
REMARK    4  A    between atoms: N1_3  and  C4_5
REMARK    5  A    between atoms: C4_5  and  C5_6
REMARK    6  A    between atoms: C5_6  and  C6_7
REMARK    7  A    between atoms: C14_18  and  C15_20
REMARK    8  A    between atoms: C17_22  and  C18_23
REMARK                            x       y       z     vdW  Elec       q    Type
REMARK                         _______ _______ _______ _____ _____    ______ ____
ROOT
ATOM      1  C6  UNL     1       1.936   1.582   0.527  0.00  0.00    +0.217 C 
ATOM      2  O1  UNL     1       2.559   2.473   1.164  0.00  0.00    -0.276 OA
ATOM      3  N2  UNL     1       0.556   1.315   0.848  0.00  0.00    -0.297 N 
ATOM      4  C7  UNL     1      -0.004   1.672   2.140  0.00  0.00    +0.110 C 
ATOM      5  C8  UNL     1      -1.415   1.101   2.177  0.00  0.00    +0.043 C 
ATOM      6  C9  UNL     1      -1.703   0.522   0.783  0.00  0.00    +0.098 C 
ATOM      7  C10 UNL     1      -0.413   0.689  -0.046  0.00  0.00    +0.097 C 
ATOM      8  C11 UNL     1      -0.634   1.549  -1.307  0.00  0.00    +0.026 C 
ATOM      9  C12 UNL     1      -1.364   2.848  -0.959  0.00  0.00    +0.021 C 
ATOM     10  C13 UNL     1      -2.744   2.574  -0.336  0.00  0.00    +0.108 C 
ATOM     11  N3  UNL     1      -2.863   1.194   0.162  0.00  0.00    -0.290 N 
ATOM     12  C14 UNL     1      -4.180   0.631   0.302  0.00  0.00    +0.285 C 
ATOM     13  O2  UNL     1      -5.131   1.358   0.698  0.00  0.00    -0.267 OA
ENDROOT
BRANCH  12  14
ATOM     14  C15 UNL     1      -4.444  -0.773  -0.054  0.00  0.00    +0.222 A 
ATOM     15  C16 UNL     1      -5.620  -1.465   0.156  0.00  0.00    +0.080 A 
ATOM     16  C17 UNL     1      -5.350  -2.714  -0.363  0.00  0.00    +0.081 A 
ATOM     17  C18 UNL     1      -6.315  -3.847  -0.460  0.00  0.00    +0.069 C 
ATOM     18  N4  UNL     1      -4.098  -2.743  -0.861  0.00  0.00    -0.083 NA
ATOM     19  O3  UNL     1      -3.585  -1.565  -0.656  0.00  0.00    -0.350 OA
ENDBRANCH  12  14
BRANCH   1  20
ATOM     20  C5  UNL     1       2.680   0.805  -0.526  0.00  0.00    +0.111 C 
BRANCH  20  21
ATOM     21  C4  UNL     1       3.753  -0.085   0.115  0.00  0.00    +0.093 C 
BRANCH  21  22
ATOM     22  N1  UNL     1       4.375  -0.965  -0.899  0.00  0.00    -0.305 NA
ATOM     23  C3  UNL     1       5.358  -0.246  -1.732  0.00  0.00    +0.104 C 
BRANCH  22  25
ATOM     24  C1  UNL     1       6.107  -1.962   0.656  0.00  0.00    +0.020 C 
ATOM     25  C2  UNL     1       4.938  -2.203  -0.310  0.00  0.00    +0.081 C 
ENDBRANCH  22  25
ENDBRANCH  21  22
ENDBRANCH  20  21
ENDBRANCH   1  20
TORSDOF 5
