REMARK  Name = /home/qwerty/github/datacon2025hack/step_04_hit_selection/docking/ligands/lig_582.pdb
REMARK  7 active torsions:
REMARK  status: ('A' for Active; 'I' for Inactive)
REMARK    1  A    between atoms: C1_1  and  C2_2
REMARK    2  A    between atoms: C2_2  and  C3_3
REMARK    3  A    between atoms: C4_4  and  N1_5
REMARK    4  A    between atoms: C5_6  and  C6_8
REMARK    5  A    between atoms: N2_11  and  C9_12
REMARK    6  A    between atoms: C13_17  and  C14_19
REMARK    7  A    between atoms: C16_21  and  C17_22
REMARK                            x       y       z     vdW  Elec       q    Type
REMARK                         _______ _______ _______ _____ _____    ______ ____
ROOT
ATOM      1  C3  UNL     1       0.303  -0.902  -1.152  0.00  0.00    +0.096 C 
ATOM      2  C4  UNL     1      -0.782  -0.079  -1.875  0.00  0.00    +0.095 C 
ATOM      3  C11 UNL     1      -0.079   1.219  -2.288  0.00  0.00    +0.043 C 
ATOM      4  C12 UNL     1       1.073   1.392  -1.310  0.00  0.00    +0.110 C 
ATOM      5  N3  UNL     1       1.311   0.072  -0.746  0.00  0.00    -0.292 N 
ATOM      6  C13 UNL     1       2.216  -0.165   0.348  0.00  0.00    +0.254 C 
ATOM      7  O2  UNL     1       1.865  -0.931   1.286  0.00  0.00    -0.269 OA
ENDROOT
BRANCH   6   8
ATOM      8  C14 UNL     1       3.561   0.439   0.392  0.00  0.00    +0.074 A 
ATOM      9  C15 UNL     1       4.375   0.506   1.518  0.00  0.00    +0.024 A 
ATOM     10  C16 UNL     1       5.641   1.051   1.257  0.00  0.00    -0.043 A 
ATOM     11  C17 UNL     1       6.672   1.274   2.317  0.00  0.00    +0.044 C 
ATOM     12  C18 UNL     1       5.829   1.420  -0.070  0.00  0.00    +0.049 A 
ATOM     13  S1  UNL     1       4.430   1.039  -0.919  0.00  0.00    -0.092 S 
ENDBRANCH   6   8
BRANCH   2  14
ATOM     14  N1  UNL     1      -1.898   0.203  -0.960  0.00  0.00    -0.307 N 
ATOM     15  C5  UNL     1      -2.875  -0.796  -0.628  0.00  0.00    +0.246 C 
ATOM     16  O1  UNL     1      -2.813  -1.936  -1.164  0.00  0.00    -0.270 OA
ATOM     17  H8  UNL     1      -2.008   1.166  -0.571  0.00  0.00    +0.149 HD
BRANCH  15  18
ATOM     18  C6  UNL     1      -3.962  -0.515   0.330  0.00  0.00    +0.054 A 
ATOM     19  C7  UNL     1      -4.993  -1.380   0.658  0.00  0.00    +0.032 A 
ATOM     20  C8  UNL     1      -5.775  -0.723   1.586  0.00  0.00    +0.086 A 
ATOM     21  N2  UNL     1      -5.257   0.495   1.836  0.00  0.00    -0.356 N 
ATOM     22  C9  UNL     1      -5.798   1.496   2.748  0.00  0.00    +0.148 C 
ATOM     23  C10 UNL     1      -4.154   0.636   1.076  0.00  0.00    +0.098 A 
ENDBRANCH  15  18
ENDBRANCH   2  14
BRANCH   1  25
ATOM     24  C1  UNL     1       0.057  -3.170  -2.299  0.00  0.00    +0.006 C 
ATOM     25  C2  UNL     1       0.958  -1.958  -2.067  0.00  0.00    +0.021 C 
ENDBRANCH   1  25
TORSDOF 4
