REMARK  Name = /home/qwerty/github/datacon2025hack/step_04_hit_selection/docking/ligands/lig_178.pdb
REMARK  5 active torsions:
REMARK  status: ('A' for Active; 'I' for Inactive)
REMARK    1  A    between atoms: C1_1  and  C2_2
REMARK    2  A    between atoms: C2_2  and  N1_3
REMARK    3  A    between atoms: C2_2  and  C11_16
REMARK    4  A    between atoms: C6_9  and  N3_10
REMARK    5  A    between atoms: C14_19  and  N5_20
REMARK                            x       y       z     vdW  Elec       q    Type
REMARK                         _______ _______ _______ _____ _____    ______ ____
ROOT
ATOM      1  C1  UNL     1       1.103  -3.074  -2.059  0.00  0.00    +0.033 C 
ATOM      2  C2  UNL     1       0.637  -1.627  -1.880  0.00  0.00    +0.102 C 
ENDROOT
BRANCH   2   3
ATOM      3  N1  UNL     1      -0.561  -1.587  -1.035  0.00  0.00    -0.293 N 
ATOM      4  C3  UNL     1      -1.890  -1.494  -1.575  0.00  0.00    +0.303 C 
ATOM      5  O1  UNL     1      -2.064  -1.522  -2.824  0.00  0.00    -0.253 OA
ATOM      6  N2  UNL     1      -3.028  -1.370  -0.706  0.00  0.00    -0.284 N 
ATOM      7  C4  UNL     1      -4.394  -1.315  -1.198  0.00  0.00    +0.111 C 
ATOM      8  C5  UNL     1      -5.279  -1.280   0.042  0.00  0.00    +0.047 C 
ATOM      9  C6  UNL     1      -4.358  -0.885   1.203  0.00  0.00    +0.126 C 
ATOM     10  C10 UNL     1      -2.942  -1.230   0.739  0.00  0.00    +0.136 C 
ATOM     11  H5  UNL     1      -0.449  -1.748  -0.010  0.00  0.00    +0.151 HD
BRANCH   9  12
ATOM     12  N3  UNL     1      -4.472   0.550   1.484  0.00  0.00    -0.267 N 
ATOM     13  C7  UNL     1      -4.822   1.097   2.663  0.00  0.00    +0.108 A 
ATOM     14  C8  UNL     1      -4.794   2.468   2.531  0.00  0.00    +0.041 A 
ATOM     15  C9  UNL     1      -4.408   2.688   1.223  0.00  0.00    +0.134 A 
ATOM     16  N4  UNL     1      -4.216   1.507   0.604  0.00  0.00    -0.179 NA
ENDBRANCH   9  12
ENDBRANCH   2   3
BRANCH   2  17
ATOM     17  C11 UNL     1       1.731  -0.766  -1.279  0.00  0.00    -0.027 A 
ATOM     18  C12 UNL     1       2.264  -1.050  -0.010  0.00  0.00    +0.007 A 
ATOM     19  C13 UNL     1       3.268  -0.245   0.536  0.00  0.00    +0.024 A 
ATOM     20  C14 UNL     1       3.754   0.869  -0.168  0.00  0.00    +0.040 A 
ATOM     21  C18 UNL     1       3.228   1.146  -1.443  0.00  0.00    +0.024 A 
ATOM     22  C19 UNL     1       2.225   0.341  -1.989  0.00  0.00    +0.007 A 
BRANCH  20  23
ATOM     23  N5  UNL     1       4.791   1.692   0.402  0.00  0.00    -0.234 N 
ATOM     24  C15 UNL     1       5.829   1.237   1.322  0.00  0.00    +0.158 C 
ATOM     25  C16 UNL     1       6.764   2.454   1.522  0.00  0.00    +0.253 C 
ATOM     26  O2  UNL     1       6.167   3.520   0.794  0.00  0.00    -0.448 OA
ATOM     27  C17 UNL     1       5.034   3.067   0.159  0.00  0.00    +0.407 C 
ATOM     28  O3  UNL     1       4.270   3.816  -0.503  0.00  0.00    -0.226 OA
ENDBRANCH  20  23
ENDBRANCH   2  17
TORSDOF 4
