REMARK  Name = /home/qwerty/github/datacon2025hack/step_04_hit_selection/docking/ligands/lig_318.pdb
REMARK  4 active torsions:
REMARK  status: ('A' for Active; 'I' for Inactive)
REMARK    1  A    between atoms: C1_1  and  N1_2
REMARK    2  A    between atoms: C3_4  and  C4_5
REMARK    3  A    between atoms: N2_7  and  C5_8
REMARK    4  A    between atoms: C9_12  and  C10_13
REMARK                            x       y       z     vdW  Elec       q    Type
REMARK                         _______ _______ _______ _____ _____    ______ ____
ROOT
ATOM      1  C5  UNL     1      -1.219  -0.199  -1.219  0.00  0.00    +0.034 A 
ATOM      2  C6  UNL     1      -1.051  -0.837  -2.459  0.00  0.00    +0.023 A 
ATOM      3  C7  UNL     1       0.229  -1.132  -2.932  0.00  0.00    +0.002 A 
ATOM      4  C8  UNL     1       1.353  -0.807  -2.170  0.00  0.00    +0.008 A 
ATOM      5  C9  UNL     1       1.208  -0.187  -0.916  0.00  0.00    -0.016 A 
ATOM      6  C18 UNL     1      -0.087   0.106  -0.447  0.00  0.00    +0.031 A 
ENDROOT
BRANCH   5   7
ATOM      7  C10 UNL     1       2.401   0.151  -0.100  0.00  0.00    -0.014 A 
ATOM      8  C11 UNL     1       2.467   1.372   0.598  0.00  0.00    +0.010 A 
ATOM      9  C12 UNL     1       3.588   1.688   1.372  0.00  0.00    +0.027 A 
ATOM     10  C13 UNL     1       4.661   0.793   1.451  0.00  0.00    +0.076 A 
ATOM     11  C14 UNL     1       4.609  -0.422   0.754  0.00  0.00    +0.143 A 
ATOM     12  C15 UNL     1       3.483  -0.745  -0.010  0.00  0.00    +0.056 A 
ATOM     13  O2  UNL     1       5.675  -1.326   0.844  0.00  0.00    -0.481 OA
ATOM     14  C16 UNL     1       6.974  -0.955   1.317  0.00  0.00    +0.325 C 
ATOM     15  C17 UNL     1       6.902   0.173   2.307  0.00  0.00    +0.255 C 
ATOM     16  O3  UNL     1       7.848   0.362   3.116  0.00  0.00    -0.272 OA
ATOM     17  N3  UNL     1       5.795   1.079   2.276  0.00  0.00    -0.280 N 
ATOM     18  H14 UNL     1       5.808   1.932   2.879  0.00  0.00    +0.155 HD
ENDBRANCH   5   7
BRANCH   1  21
ATOM     19  C4  UNL     1      -3.654   0.449  -1.513  0.00  0.00    +0.251 C 
ATOM     20  O1  UNL     1      -3.479   0.829  -2.703  0.00  0.00    -0.270 OA
ATOM     21  N2  UNL     1      -2.527   0.090  -0.696  0.00  0.00    -0.281 N 
ATOM     22  H5  UNL     1      -2.636   0.137   0.342  0.00  0.00    +0.155 HD
BRANCH  19  26
ATOM     23  C1  UNL     1      -7.590  -0.162   1.515  0.00  0.00    +0.172 C 
ATOM     24  N1  UNL     1      -6.764   0.123   0.350  0.00  0.00    -0.274 N 
ATOM     25  C2  UNL     1      -5.427  -0.018   0.280  0.00  0.00    +0.121 A 
ATOM     26  C3  UNL     1      -5.020   0.420  -0.964  0.00  0.00    +0.074 A 
ATOM     27  C19 UNL     1      -6.180   0.825  -1.601  0.00  0.00    +0.147 A 
ATOM     28  N4  UNL     1      -7.228   0.643  -0.775  0.00  0.00    -0.179 NA
ENDBRANCH  19  26
ENDBRANCH   1  21
TORSDOF 3
