REMARK  Name = /home/qwerty/github/datacon2025hack/step_04_hit_selection/docking/ligands/lig_424.pdb
REMARK  4 active torsions:
REMARK  status: ('A' for Active; 'I' for Inactive)
REMARK    1  A    between atoms: C1_2  and  C9_16
REMARK    2  A    between atoms: N1_3  and  C2_4
REMARK    3  A    between atoms: C12_19  and  O5_20
REMARK    4  A    between atoms: C13_21  and  C14_22
REMARK                            x       y       z     vdW  Elec       q    Type
REMARK                         _______ _______ _______ _____ _____    ______ ____
ROOT
ATOM      1  O1  UNL     1      -0.093   1.813   0.271  0.00  0.00    -0.270 OA
ATOM      2  C1  UNL     1      -0.661   0.701   0.093  0.00  0.00    +0.248 C 
ATOM      3  N1  UNL     1       0.113  -0.446  -0.308  0.00  0.00    -0.281 N 
ATOM      4  H1  UNL     1      -0.381  -1.327  -0.571  0.00  0.00    +0.155 HD
ENDROOT
BRANCH   3   5
ATOM      5  C2  UNL     1       1.545  -0.442  -0.435  0.00  0.00    +0.036 A 
ATOM      6  C3  UNL     1       2.148  -1.199  -1.464  0.00  0.00    +0.024 A 
ATOM      7  C4  UNL     1       3.544  -1.240  -1.604  0.00  0.00    +0.017 A 
ATOM      8  C5  UNL     1       4.330  -0.530  -0.696  0.00  0.00    +0.065 A 
ATOM      9  C6  UNL     1       3.745   0.196   0.328  0.00  0.00    +0.122 A 
ATOM     10  C7  UNL     1       2.361   0.250   0.487  0.00  0.00    +0.053 A 
ATOM     11  S1  UNL     1       4.954   0.953   1.324  0.00  0.00    +0.075 S 
ATOM     12  O2  UNL     1       4.887   2.453   1.271  0.00  0.00    -0.150 OA
ATOM     13  O3  UNL     1       4.952   0.427   2.732  0.00  0.00    -0.150 OA
ATOM     14  N2  UNL     1       6.293   0.345   0.422  0.00  0.00    -0.181 N 
ATOM     15  C8  UNL     1       5.795  -0.451  -0.653  0.00  0.00    +0.265 C 
ATOM     16  O4  UNL     1       6.555  -1.026  -1.477  0.00  0.00    -0.269 OA
ATOM     17  H5  UNL     1       7.299   0.527   0.632  0.00  0.00    +0.177 HD
ENDBRANCH   3   5
BRANCH   2  18
ATOM     18  C9  UNL     1      -2.127   0.605   0.295  0.00  0.00    +0.038 A 
ATOM     19  C10 UNL     1      -2.751   1.434   1.241  0.00  0.00    +0.016 A 
ATOM     20  C11 UNL     1      -4.130   1.364   1.443  0.00  0.00    +0.047 A 
ATOM     21  C12 UNL     1      -4.911   0.471   0.701  0.00  0.00    +0.129 A 
ATOM     22  C13 UNL     1      -4.307  -0.364  -0.260  0.00  0.00    +0.097 A 
ATOM     23  C15 UNL     1      -2.915  -0.281  -0.462  0.00  0.00    +0.029 A 
BRANCH  22  24
ATOM     24  C14 UNL     1      -5.158  -1.312  -1.075  0.00  0.00    +0.421 C 
ATOM     25  F1  UNL     1      -4.392  -2.095  -1.921  0.00  0.00    -0.166 F 
ATOM     26  F2  UNL     1      -6.053  -0.585  -1.839  0.00  0.00    -0.166 F 
ATOM     27  F3  UNL     1      -5.862  -2.148  -0.228  0.00  0.00    -0.166 F 
ENDBRANCH  22  24
BRANCH  21  28
ATOM     28  O5  UNL     1      -6.289   0.415   0.911  0.00  0.00    -0.506 OA
ATOM     29  H8  UNL     1      -6.747   1.007   1.595  0.00  0.00    +0.292 HD
ENDBRANCH  21  28
ENDBRANCH   2  18
TORSDOF 4
