REMARK  Name = /home/qwerty/github/datacon2025hack/step_04_hit_selection/docking/ligands/lig_466.pdb
REMARK  8 active torsions:
REMARK  status: ('A' for Active; 'I' for Inactive)
REMARK    1  A    between atoms: C1_1  and  O1_2
REMARK    2  A    between atoms: O1_2  and  C2_3
REMARK    3  A    between atoms: C5_6  and  C6_7
REMARK    4  A    between atoms: C6_7  and  C7_8
REMARK    5  A    between atoms: C7_8  and  C8_9
REMARK    6  A    between atoms: C7_8  and  N1_11
REMARK    7  A    between atoms: C8_9  and  O2_10
REMARK    8  A    between atoms: N2_14  and  C10_15
REMARK                            x       y       z     vdW  Elec       q    Type
REMARK                         _______ _______ _______ _____ _____    ______ ____
ROOT
ATOM      1  C7  UNL     1       0.949  -2.843  -1.164  0.00  0.00    +0.104 C 
ENDROOT
BRANCH   1   2
ATOM      2  N1  UNL     1      -0.254  -2.068  -1.490  0.00  0.00    -0.294 N 
ATOM      3  C9  UNL     1      -1.078  -1.471  -0.478  0.00  0.00    +0.304 C 
ATOM      4  O3  UNL     1      -1.045  -1.908   0.704  0.00  0.00    -0.252 OA
ATOM      5  N2  UNL     1      -1.954  -0.389  -0.825  0.00  0.00    -0.269 N 
ATOM      6  H12 UNL     1      -0.378  -1.738  -2.474  0.00  0.00    +0.151 HD
ATOM      7  H13 UNL     1      -2.234  -0.297  -1.828  0.00  0.00    +0.156 HD
BRANCH   5   8
ATOM      8  C10 UNL     1      -2.463   0.576   0.113  0.00  0.00    +0.035 A 
ATOM      9  C11 UNL     1      -1.767   0.897   1.295  0.00  0.00    +0.026 A 
ATOM     10  C12 UNL     1      -2.265   1.871   2.166  0.00  0.00    +0.040 A 
ATOM     11  C13 UNL     1      -3.454   2.540   1.864  0.00  0.00    +0.124 A 
ATOM     12  F1  UNL     1      -3.933   3.486   2.708  0.00  0.00    -0.205 F 
ATOM     13  C14 UNL     1      -4.143   2.239   0.687  0.00  0.00    +0.040 A 
ATOM     14  C15 UNL     1      -3.647   1.268  -0.188  0.00  0.00    +0.026 A 
ENDBRANCH   5   8
ENDBRANCH   1   2
BRANCH   1  15
ATOM     15  C6  UNL     1       2.208  -1.963  -1.306  0.00  0.00    +0.059 C 
BRANCH  15  19
ATOM     16  C2  UNL     1       1.884   1.419   1.368  0.00  0.00    +0.120 A 
ATOM     17  C3  UNL     1       1.555   1.556   0.006  0.00  0.00    +0.046 A 
ATOM     18  C4  UNL     1       1.684   0.469  -0.862  0.00  0.00    +0.007 A 
ATOM     19  C5  UNL     1       2.148  -0.769  -0.388  0.00  0.00    -0.045 A 
ATOM     20  C16 UNL     1       2.478  -0.903   0.969  0.00  0.00    +0.007 A 
ATOM     21  C17 UNL     1       2.352   0.186   1.837  0.00  0.00    +0.046 A 
BRANCH  16  23
ATOM     22  C1  UNL     1       1.239   3.762   1.955  0.00  0.00    +0.277 C 
ATOM     23  O1  UNL     1       1.749   2.473   2.283  0.00  0.00    -0.495 OA
ENDBRANCH  16  23
ENDBRANCH  15  19
ENDBRANCH   1  15
BRANCH   1  24
ATOM     24  C8  UNL     1       1.034  -4.093  -2.055  0.00  0.00    +0.178 C 
BRANCH  24  25
ATOM     25  O2  UNL     1       1.171  -3.749  -3.409  0.00  0.00    -0.393 OA
ATOM     26  H11 UNL     1       0.255  -3.681  -3.785  0.00  0.00    +0.209 HD
ENDBRANCH  24  25
ENDBRANCH   1  24
TORSDOF 7
