REMARK  Name = /home/qwerty/github/datacon2025hack/step_04_hit_selection/docking/ligands/lig_689.pdb
REMARK  7 active torsions:
REMARK  status: ('A' for Active; 'I' for Inactive)
REMARK    1  A    between atoms: C1_1  and  C2_2
REMARK    2  A    between atoms: C5_5  and  C6_6
REMARK    3  A    between atoms: C7_9  and  C8_10
REMARK    4  A    between atoms: C11_13  and  C12_14
REMARK    5  A    between atoms: N3_16  and  C13_17
REMARK    6  A    between atoms: C16_20  and  N4_21
REMARK    7  A    between atoms: C20_25  and  C21_26
REMARK                            x       y       z     vdW  Elec       q    Type
REMARK                         _______ _______ _______ _____ _____    ______ ____
ROOT
ATOM      1  C12 UNL     1      -0.096   0.187  -0.643  0.00  0.00    +0.248 C 
ATOM      2  O1  UNL     1      -0.408   0.260  -1.864  0.00  0.00    -0.270 OA
ATOM      3  N3  UNL     1      -1.115   0.313   0.363  0.00  0.00    -0.282 N 
ATOM      4  H8  UNL     1      -0.838   0.690   1.297  0.00  0.00    +0.155 HD
ENDROOT
BRANCH   1   8
ATOM      5  C8  UNL     1       4.045  -0.257   0.449  0.00  0.00    +0.039 A 
ATOM      6  C9  UNL     1       3.032  -0.609   1.354  0.00  0.00    +0.014 A 
ATOM      7  C10 UNL     1       1.687  -0.469   1.001  0.00  0.00    +0.014 A 
ATOM      8  C11 UNL     1       1.328   0.029  -0.263  0.00  0.00    +0.037 A 
ATOM      9  C25 UNL     1       2.345   0.366  -1.173  0.00  0.00    +0.014 A 
ATOM     10  C26 UNL     1       3.690   0.228  -0.819  0.00  0.00    +0.014 A 
BRANCH   5  14
ATOM     11  C6  UNL     1       7.548  -0.330   0.741  0.00  0.00    +0.249 A 
ATOM     12  N1  UNL     1       7.228  -0.813   1.958  0.00  0.00    -0.107 NA
ATOM     13  N2  UNL     1       5.906  -0.850   2.009  0.00  0.00    -0.107 NA
ATOM     14  C7  UNL     1       5.467  -0.390   0.821  0.00  0.00    +0.249 A 
ATOM     15  O3  UNL     1       6.471  -0.070   0.039  0.00  0.00    -0.416 OA
BRANCH  11  20
ATOM     16  C1  UNL     1      12.954   0.546  -1.143  0.00  0.00    +0.044 C 
ATOM     17  C2  UNL     1      11.556   0.285  -0.666  0.00  0.00    -0.050 A 
ATOM     18  C3  UNL     1      11.330  -0.218   0.625  0.00  0.00    +0.004 A 
ATOM     19  C4  UNL     1      10.026  -0.424   1.084  0.00  0.00    +0.013 A 
ATOM     20  C5  UNL     1       8.928  -0.119   0.262  0.00  0.00    +0.039 A 
ATOM     21  C27 UNL     1       9.157   0.399  -1.023  0.00  0.00    +0.013 A 
ATOM     22  C28 UNL     1      10.461   0.605  -1.481  0.00  0.00    +0.004 A 
ENDBRANCH  11  20
ENDBRANCH   5  14
ENDBRANCH   1   8
BRANCH   3  23
ATOM     23  C13 UNL     1      -2.516   0.114   0.108  0.00  0.00    +0.034 A 
ATOM     24  C14 UNL     1      -3.461   0.841   0.847  0.00  0.00    +0.025 A 
ATOM     25  C15 UNL     1      -4.829   0.653   0.630  0.00  0.00    +0.025 A 
ATOM     26  C16 UNL     1      -5.277  -0.275  -0.324  0.00  0.00    +0.030 A 
ATOM     27  C23 UNL     1      -4.332  -1.026  -1.042  0.00  0.00    +0.025 A 
ATOM     28  C24 UNL     1      -2.964  -0.834  -0.828  0.00  0.00    +0.025 A 
BRANCH  26  29
ATOM     29  N4  UNL     1      -6.687  -0.480  -0.537  0.00  0.00    -0.329 N 
ATOM     30  C17 UNL     1      -7.231  -1.847  -0.572  0.00  0.00    +0.105 C 
ATOM     31  C18 UNL     1      -8.757  -1.851  -0.394  0.00  0.00    +0.020 C 
ATOM     32  C19 UNL     1      -9.167  -0.865   0.709  0.00  0.00    +0.016 C 
ATOM     33  C20 UNL     1      -8.703   0.590   0.413  0.00  0.00    +0.092 C 
ATOM     34  C22 UNL     1      -7.603   0.661  -0.667  0.00  0.00    +0.117 C 
BRANCH  33  35
ATOM     35  C21 UNL     1      -9.862   1.471   0.022  0.00  0.00    +0.215 C 
ATOM     36  N5  UNL     1     -10.057   2.736   0.657  0.00  0.00    -0.329 N 
ATOM     37  O2  UNL     1     -10.647   1.110  -0.895  0.00  0.00    -0.276 OA
ATOM     38  H18 UNL     1     -10.859   3.345   0.379  0.00  0.00    +0.145 HD
ATOM     39  H19 UNL     1      -9.391   3.082   1.382  0.00  0.00    +0.145 HD
ENDBRANCH  33  35
ENDBRANCH  26  29
ENDBRANCH   3  23
TORSDOF 6
