REMARK  Name = /home/qwerty/github/datacon2025hack/step_04_hit_selection/docking/ligands/lig_393.pdb
REMARK  4 active torsions:
REMARK  status: ('A' for Active; 'I' for Inactive)
REMARK    1  A    between atoms: C1_1  and  C2_2
REMARK    2  A    between atoms: N2_13  and  C11_14
REMARK    3  A    between atoms: C14_17  and  C15_18
REMARK    4  A    between atoms: C15_18  and  O3_20
REMARK                            x       y       z     vdW  Elec       q    Type
REMARK                         _______ _______ _______ _____ _____    ______ ____
ROOT
ATOM      1  C1  UNL     1      -5.931  -0.366   0.930  0.00  0.00    +0.044 C 
ATOM      2  C2  UNL     1      -4.693   0.479   0.842  0.00  0.00    -0.045 A 
ATOM      3  C3  UNL     1      -4.741   1.861   1.108  0.00  0.00    +0.004 A 
ATOM      4  C4  UNL     1      -3.582   2.648   0.987  0.00  0.00    +0.002 A 
ATOM      5  C5  UNL     1      -2.366   2.066   0.602  0.00  0.00    +0.024 A 
ATOM      6  C6  UNL     1      -2.330   0.687   0.356  0.00  0.00    +0.041 A 
ATOM      7  C7  UNL     1      -3.465  -0.077   0.454  0.00  0.00    -0.022 A 
ATOM      8  C8  UNL     1      -3.174  -1.490   0.076  0.00  0.00    +0.056 C 
ATOM      9  C9  UNL     1      -1.678  -1.462  -0.311  0.00  0.00    +0.120 C 
ATOM     10  N1  UNL     1      -1.219  -0.091  -0.074  0.00  0.00    -0.255 N 
ATOM     11  C10 UNL     1       0.167   0.297  -0.085  0.00  0.00    +0.311 C 
ATOM     12  O1  UNL     1       0.530   1.363   0.480  0.00  0.00    -0.252 OA
ATOM     13  N2  UNL     1       1.139  -0.525  -0.752  0.00  0.00    -0.269 N 
ATOM     14  H11 UNL     1       0.800  -1.185  -1.488  0.00  0.00    +0.156 HD
ENDROOT
BRANCH  13  15
ATOM     15  C11 UNL     1       2.560  -0.404  -0.563  0.00  0.00    +0.038 A 
ATOM     16  C12 UNL     1       3.422  -0.695  -1.627  0.00  0.00    +0.024 A 
ATOM     17  C13 UNL     1       4.807  -0.606  -1.464  0.00  0.00    +0.019 A 
ATOM     18  C14 UNL     1       5.361  -0.237  -0.224  0.00  0.00    +0.094 A 
ATOM     19  C16 UNL     1       4.492   0.032   0.853  0.00  0.00    +0.139 A 
ATOM     20  F1  UNL     1       4.973   0.371   2.076  0.00  0.00    -0.205 F 
ATOM     21  C17 UNL     1       3.107  -0.058   0.683  0.00  0.00    +0.062 A 
BRANCH  18  22
ATOM     22  C15 UNL     1       6.834  -0.146  -0.068  0.00  0.00    +0.340 C 
ATOM     23  O2  UNL     1       7.593  -0.401  -1.042  0.00  0.00    -0.245 OA
BRANCH  22  24
ATOM     24  O3  UNL     1       7.398   0.221   1.150  0.00  0.00    -0.477 OA
ATOM     25  H14 UNL     1       8.403   0.285   1.260  0.00  0.00    +0.295 HD
ENDBRANCH  22  24
ENDBRANCH  18  22
ENDBRANCH  13  15
TORSDOF 3
