REMARK  Name = /home/qwerty/github/datacon2025hack/step_04_hit_selection/docking/ligands/lig_381.pdb
REMARK  6 active torsions:
REMARK  status: ('A' for Active; 'I' for Inactive)
REMARK    1  A    between atoms: C2_2  and  C3_3
REMARK    2  A    between atoms: C3_3  and  N1_4
REMARK    3  A    between atoms: N1_4  and  C15_20
REMARK    4  A    between atoms: C4_5  and  C5_7
REMARK    5  A    between atoms: C9_11  and  O2_12
REMARK    6  A    between atoms: O2_12  and  C10_13
REMARK                            x       y       z     vdW  Elec       q    Type
REMARK                         _______ _______ _______ _____ _____    ______ ____
ROOT
ATOM      1  C5  UNL     1       0.149  -0.218  -0.546  0.00  0.00    +0.122 A 
ATOM      2  C6  UNL     1       1.273   0.618  -0.493  0.00  0.00    +0.032 A 
ATOM      3  C7  UNL     1       2.538   0.063  -0.287  0.00  0.00    +0.022 A 
ATOM      4  C8  UNL     1       3.686   0.866  -0.207  0.00  0.00    +0.057 A 
ATOM      5  C9  UNL     1       4.943   0.283   0.003  0.00  0.00    +0.121 A 
ATOM      6  C11 UNL     1       5.042  -1.119   0.130  0.00  0.00    +0.049 A 
ATOM      7  C12 UNL     1       3.899  -1.921   0.050  0.00  0.00    +0.050 A 
ATOM      8  C13 UNL     1       2.646  -1.338  -0.157  0.00  0.00    +0.139 A 
ATOM      9  O3  UNL     1       1.562  -2.106  -0.234  0.00  0.00    -0.422 OA
ATOM     10  C14 UNL     1       0.343  -1.611  -0.427  0.00  0.00    +0.350 A 
ATOM     11  O4  UNL     1      -0.632  -2.406  -0.515  0.00  0.00    -0.244 OA
ENDROOT
BRANCH   1  13
ATOM     12  N1  UNL     1      -2.341  -0.087  -0.010  0.00  0.00    -0.264 N 
ATOM     13  C4  UNL     1      -1.194   0.368  -0.758  0.00  0.00    +0.258 C 
ATOM     14  O1  UNL     1      -1.328   1.287  -1.616  0.00  0.00    -0.269 OA
BRANCH  12  15
ATOM     15  C15 UNL     1      -3.653   0.028  -0.582  0.00  0.00    +0.037 A 
ATOM     16  C16 UNL     1      -4.373  -1.130  -0.909  0.00  0.00    +0.023 A 
ATOM     17  C17 UNL     1      -5.660  -1.026  -1.439  0.00  0.00    +0.002 A 
ATOM     18  C18 UNL     1      -6.236   0.233  -1.640  0.00  0.00    +0.000 A 
ATOM     19  C19 UNL     1      -5.529   1.392  -1.301  0.00  0.00    +0.002 A 
ATOM     20  C20 UNL     1      -4.240   1.290  -0.773  0.00  0.00    +0.023 A 
ENDBRANCH  12  15
BRANCH  12  21
ATOM     21  C3  UNL     1      -2.234  -0.402   1.420  0.00  0.00    +0.140 C 
BRANCH  21  23
ATOM     22  C1  UNL     1      -1.302   1.663   2.448  0.00  0.00    +0.005 C 
ATOM     23  C2  UNL     1      -2.355   0.857   2.238  0.00  0.00    -0.015 C 
ENDBRANCH  21  23
ENDBRANCH  12  21
ENDBRANCH   1  13
BRANCH   5  24
ATOM     24  O2  UNL     1       6.062   1.127   0.078  0.00  0.00    -0.495 OA
ATOM     25  C10 UNL     1       7.394   0.674   0.292  0.00  0.00    +0.277 C 
ENDBRANCH   5  24
TORSDOF 5
