REMARK  Name = /home/qwerty/github/datacon2025hack/step_04_hit_selection/docking/ligands/lig_459.pdb
REMARK  8 active torsions:
REMARK  status: ('A' for Active; 'I' for Inactive)
REMARK    1  A    between atoms: C1_1  and  C2_2
REMARK    2  A    between atoms: N1_4  and  C3_5
REMARK    3  A    between atoms: C6_8  and  C7_9
REMARK    4  A    between atoms: C7_9  and  N2_10
REMARK    5  A    between atoms: C8_11  and  C9_12
REMARK    6  A    between atoms: C12_15  and  C13_16
REMARK    7  A    between atoms: C16_23  and  C17_24
REMARK    8  A    between atoms: C20_27  and  C21_28
REMARK                            x       y       z     vdW  Elec       q    Type
REMARK                         _______ _______ _______ _____ _____    ______ ____
ROOT
ATOM      1  N2  UNL     1      -1.152   0.374   0.294  0.00  0.00    -0.288 N 
ATOM      2  C8  UNL     1      -0.951   1.335   1.228  0.00  0.00    +0.201 A 
ATOM      3  N3  UNL     1      -1.339   0.923   2.451  0.00  0.00    -0.124 NA
ATOM      4  N4  UNL     1      -1.811  -0.307   2.320  0.00  0.00    -0.113 NA
ATOM      5  C14 UNL     1      -1.697  -0.628   1.019  0.00  0.00    +0.221 A 
ATOM      6  N5  UNL     1      -2.102  -1.898   0.484  0.00  0.00    -0.297 N 
ATOM      7  C15 UNL     1      -3.079  -1.952  -0.611  0.00  0.00    +0.111 C 
ATOM      8  C16 UNL     1      -4.378  -2.624  -0.136  0.00  0.00    +0.003 C 
ATOM      9  C17 UNL     1      -5.179  -1.696   0.791  0.00  0.00    +0.009 C 
ATOM     10  C18 UNL     1      -4.073  -3.982   0.531  0.00  0.00    +0.006 C 
ATOM     11  C19 UNL     1      -3.023  -3.870   1.651  0.00  0.00    +0.022 C 
ATOM     12  C20 UNL     1      -1.747  -3.138   1.192  0.00  0.00    +0.073 C 
ATOM     13  C21 UNL     1      -0.856  -4.023   0.311  0.00  0.00    +0.028 C 
ENDROOT
BRANCH   2  14
ATOM     14  C9  UNL     1      -0.318   2.645   1.008  0.00  0.00    +0.172 A 
ATOM     15  C10 UNL     1      -0.407   3.435  -0.126  0.00  0.00    +0.053 A 
ATOM     16  C11 UNL     1       0.331   4.567   0.145  0.00  0.00    +0.045 A 
ATOM     17  C12 UNL     1       0.818   4.398   1.425  0.00  0.00    +0.103 A 
ATOM     18  C13 UNL     1       1.657   5.379   2.172  0.00  0.00    +0.086 C 
ATOM     19  O2  UNL     1       0.409   3.253   1.918  0.00  0.00    -0.457 OA
ENDBRANCH   2  14
BRANCH   1  20
ATOM     20  C7  UNL     1      -0.631   0.299  -1.078  0.00  0.00    +0.163 C 
BRANCH  20  24
ATOM     21  C3  UNL     1       3.655   0.629  -1.120  0.00  0.00    +0.125 A 
ATOM     22  C4  UNL     1       3.045  -0.353  -0.328  0.00  0.00    +0.044 A 
ATOM     23  C5  UNL     1       1.654  -0.465  -0.317  0.00  0.00    +0.010 A 
ATOM     24  C6  UNL     1       0.873   0.406  -1.089  0.00  0.00    -0.009 A 
ATOM     25  C22 UNL     1       1.521   1.364  -1.882  0.00  0.00    +0.118 A 
ATOM     26  N6  UNL     1       2.877   1.454  -1.875  0.00  0.00    -0.240 NA
BRANCH  21  30
ATOM     27  C1  UNL     1       7.306   1.779  -1.801  0.00  0.00    +0.109 C 
ATOM     28  C2  UNL     1       5.813   1.758  -1.856  0.00  0.00    +0.215 C 
ATOM     29  O1  UNL     1       5.208   2.621  -2.548  0.00  0.00    -0.276 OA
ATOM     30  N1  UNL     1       5.088   0.752  -1.129  0.00  0.00    -0.271 N 
ATOM     31  H4  UNL     1       5.645   0.072  -0.564  0.00  0.00    +0.156 HD
ENDBRANCH  21  30
ENDBRANCH  20  24
ENDBRANCH   1  20
TORSDOF 4
