MODEL 1
REMARK VINA RESULT:    -7.891      0.000      0.000
REMARK INTER + INTRA:         -11.241
REMARK INTER:                  -9.737
REMARK INTRA:                  -1.504
REMARK UNBOUND:                -1.504
REMARK  Name = /home/qwerty/github/datacon2025hack/step_04_hit_selection/docking/ligands/lig_263.pdb
REMARK  4 active torsions:
REMARK  status: ('A' for Active; 'I' for Inactive)
REMARK    1  A    between atoms: C1_2  and  C14_19
REMARK    2  A    between atoms: N1_3  and  C2_4
REMARK    3  A    between atoms: C7_10  and  C8_11
REMARK    4  A    between atoms: C18_23  and  C19_24
REMARK                            x       y       z     vdW  Elec       q    Type
REMARK                         _______ _______ _______ _____ _____    ______ ____
ROOT
ATOM      1  O1  UNL     1      21.458   0.453  28.963  0.00  0.00    -0.270 OA
ATOM      2  C1  UNL     1      20.914   1.566  29.199  0.00  0.00    +0.248 C 
ATOM      3  N1  UNL     1      20.084   2.184  28.199  0.00  0.00    -0.281 N 
ATOM      4  H1  UNL     1      19.640   3.107  28.397  0.00  0.00    +0.155 HD
ENDROOT
BRANCH   3   5
ATOM      5  C2  UNL     1      19.849   1.601  26.906  0.00  0.00    +0.047 A 
ATOM      6  C3  UNL     1      18.891   0.582  26.761  0.00  0.00    +0.044 A 
ATOM      7  C4  UNL     1      18.600   0.053  25.501  0.00  0.00    +0.043 A 
ATOM      8 CL1  UNL     1      17.400  -1.215  25.337  0.00  0.00    -0.083 Cl
ATOM      9  C5  UNL     1      19.256   0.542  24.371  0.00  0.00    +0.021 A 
ATOM     10  C6  UNL     1      20.202   1.561  24.498  0.00  0.00    +0.016 A 
ATOM     11  C7  UNL     1      20.506   2.105  25.759  0.00  0.00    +0.058 A 
BRANCH  11  12
ATOM     12  C8  UNL     1      21.548   3.157  25.855  0.00  0.00    +0.248 C 
ATOM     13  O2  UNL     1      22.604   2.925  26.504  0.00  0.00    -0.270 OA
ATOM     14  N2  UNL     1      21.392   4.417  25.177  0.00  0.00    -0.297 N 
ATOM     15  C9  UNL     1      20.137   5.171  25.305  0.00  0.00    +0.108 C 
ATOM     16  C10 UNL     1      19.816   5.892  23.993  0.00  0.00    +0.019 C 
ATOM     17  C11 UNL     1      21.012   6.729  23.525  0.00  0.00    +0.003 C 
ATOM     18  C12 UNL     1      22.265   5.857  23.384  0.00  0.00    +0.019 C 
ATOM     19  C13 UNL     1      22.579   5.137  24.698  0.00  0.00    +0.108 C 
ENDBRANCH  11  12
ENDBRANCH   3   5
BRANCH   2  20
ATOM     20  C14 UNL     1      21.153   2.220  30.509  0.00  0.00    +0.038 A 
ATOM     21  C15 UNL     1      20.749   1.612  31.710  0.00  0.00    +0.013 A 
ATOM     22  C16 UNL     1      20.967   2.251  32.932  0.00  0.00    +0.001 A 
ATOM     23  C17 UNL     1      21.580   3.504  32.972  0.00  0.00    +0.010 A 
ATOM     24  C18 UNL     1      21.984   4.138  31.785  0.00  0.00    -0.001 A 
ATOM     25  C27 UNL     1      21.760   3.488  30.556  0.00  0.00    +0.023 A 
BRANCH  24  26
ATOM     26  C19 UNL     1      22.633   5.473  31.825  0.00  0.00    +0.047 A 
ATOM     27  C20 UNL     1      22.304   6.558  31.008  0.00  0.00    +0.036 A 
ATOM     28  C21 UNL     1      23.156   7.570  31.394  0.00  0.00    +0.000 A 
ATOM     29  C22 UNL     1      23.281   8.877  30.927  0.00  0.00    +0.010 A 
ATOM     30  C23 UNL     1      24.252   9.697  31.529  0.00  0.00    +0.001 A 
ATOM     31  C24 UNL     1      25.067   9.196  32.569  0.00  0.00    +0.002 A 
ATOM     32  C25 UNL     1      24.917   7.871  33.016  0.00  0.00    +0.026 A 
ATOM     33  C26 UNL     1      23.947   7.082  32.400  0.00  0.00    +0.047 A 
ATOM     34  N3  UNL     1      23.641   5.804  32.672  0.00  0.00    -0.354 N 
ATOM     35  H23 UNL     1      24.079   5.208  33.409  0.00  0.00    +0.166 HD
ENDBRANCH  24  26
ENDBRANCH   2  20
TORSDOF 4
ENDMDL
MODEL 2
REMARK VINA RESULT:    -7.880     12.803     15.802
REMARK INTER + INTRA:         -11.227
REMARK INTER:                  -9.743
REMARK INTRA:                  -1.484
REMARK UNBOUND:                -1.504
REMARK  Name = /home/qwerty/github/datacon2025hack/step_04_hit_selection/docking/ligands/lig_263.pdb
REMARK  4 active torsions:
REMARK  status: ('A' for Active; 'I' for Inactive)
REMARK    1  A    between atoms: C1_2  and  C14_19
REMARK    2  A    between atoms: N1_3  and  C2_4
REMARK    3  A    between atoms: C7_10  and  C8_11
REMARK    4  A    between atoms: C18_23  and  C19_24
REMARK                            x       y       z     vdW  Elec       q    Type
REMARK                         _______ _______ _______ _____ _____    ______ ____
ROOT
ATOM      1  O1  UNL     1       8.462  13.347  29.903  0.00  0.00    -0.270 OA
ATOM      2  C1  UNL     1       9.171  12.347  29.610  0.00  0.00    +0.248 C 
ATOM      3  N1  UNL     1      10.511  12.243  30.127  0.00  0.00    -0.281 N 
ATOM      4  H1  UNL     1      11.096  11.415  29.878  0.00  0.00    +0.155 HD
ENDROOT
BRANCH   3   5
ATOM      5  C2  UNL     1      11.109  13.249  30.961  0.00  0.00    +0.047 A 
ATOM      6  C3  UNL     1      10.924  13.205  32.354  0.00  0.00    +0.044 A 
ATOM      7  C4  UNL     1      11.554  14.133  33.186  0.00  0.00    +0.043 A 
ATOM      8 CL1  UNL     1      11.314  14.063  34.922  0.00  0.00    -0.083 Cl
ATOM      9  C5  UNL     1      12.385  15.110  32.636  0.00  0.00    +0.021 A 
ATOM     10  C6  UNL     1      12.588  15.159  31.256  0.00  0.00    +0.016 A 
ATOM     11  C7  UNL     1      11.962  14.232  30.405  0.00  0.00    +0.058 A 
BRANCH  11  12
ATOM     12  C8  UNL     1      12.170  14.345  28.940  0.00  0.00    +0.248 C 
ATOM     13  O2  UNL     1      11.186  14.590  28.191  0.00  0.00    -0.270 OA
ATOM     14  N2  UNL     1      13.487  14.231  28.369  0.00  0.00    -0.297 N 
ATOM     15  C9  UNL     1      14.358  13.111  28.750  0.00  0.00    +0.108 C 
ATOM     16  C10 UNL     1      15.820  13.567  28.790  0.00  0.00    +0.019 C 
ATOM     17  C11 UNL     1      16.211  14.256  27.478  0.00  0.00    +0.003 C 
ATOM     18  C12 UNL     1      15.274  15.432  27.180  0.00  0.00    +0.019 C 
ATOM     19  C13 UNL     1      13.814  14.970  27.144  0.00  0.00    +0.108 C 
ENDBRANCH  11  12
ENDBRANCH   3   5
BRANCH   2  20
ATOM     20  C14 UNL     1       8.607  11.297  28.727  0.00  0.00    +0.038 A 
ATOM     21  C15 UNL     1       7.724  10.325  29.226  0.00  0.00    +0.013 A 
ATOM     22  C16 UNL     1       7.216   9.334  28.384  0.00  0.00    +0.001 A 
ATOM     23  C17 UNL     1       7.586   9.296  27.039  0.00  0.00    +0.010 A 
ATOM     24  C18 UNL     1       8.474  10.251  26.517  0.00  0.00    -0.001 A 
ATOM     25  C27 UNL     1       8.984  11.246  27.373  0.00  0.00    +0.023 A 
BRANCH  24  26
ATOM     26  C19 UNL     1       8.872  10.211  25.087  0.00  0.00    +0.047 A 
ATOM     27  C20 UNL     1       7.992  10.187  24.001  0.00  0.00    +0.036 A 
ATOM     28  C21 UNL     1       8.798  10.152  22.885  0.00  0.00    +0.000 A 
ATOM     29  C22 UNL     1       8.470  10.118  21.531  0.00  0.00    +0.010 A 
ATOM     30  C23 UNL     1       9.526  10.094  20.603  0.00  0.00    +0.001 A 
ATOM     31  C24 UNL     1      10.868  10.101  21.044  0.00  0.00    +0.002 A 
ATOM     32  C25 UNL     1      11.165  10.134  22.418  0.00  0.00    +0.026 A 
ATOM     33  C26 UNL     1      10.098  10.157  23.315  0.00  0.00    +0.047 A 
ATOM     34  N3  UNL     1      10.159  10.190  24.656  0.00  0.00    -0.354 N 
ATOM     35  H23 UNL     1      11.029  10.223  25.232  0.00  0.00    +0.166 HD
ENDBRANCH  24  26
ENDBRANCH   2  20
TORSDOF 4
ENDMDL
MODEL 3
REMARK VINA RESULT:    -7.692      3.267      8.153
REMARK INTER + INTRA:         -10.995
REMARK INTER:                  -9.463
REMARK INTRA:                  -1.532
REMARK UNBOUND:                -1.504
REMARK  Name = /home/qwerty/github/datacon2025hack/step_04_hit_selection/docking/ligands/lig_263.pdb
REMARK  4 active torsions:
REMARK  status: ('A' for Active; 'I' for Inactive)
REMARK    1  A    between atoms: C1_2  and  C14_19
REMARK    2  A    between atoms: N1_3  and  C2_4
REMARK    3  A    between atoms: C7_10  and  C8_11
REMARK    4  A    between atoms: C18_23  and  C19_24
REMARK                            x       y       z     vdW  Elec       q    Type
REMARK                         _______ _______ _______ _____ _____    ______ ____
ROOT
ATOM      1  O1  UNL     1      22.490   3.752  32.430  0.00  0.00    -0.270 OA
ATOM      2  C1  UNL     1      21.622   3.805  31.518  0.00  0.00    +0.248 C 
ATOM      3  N1  UNL     1      20.497   4.694  31.651  0.00  0.00    -0.281 N 
ATOM      4  H1  UNL     1      19.779   4.731  30.895  0.00  0.00    +0.155 HD
ENDROOT
BRANCH   3   5
ATOM      5  C2  UNL     1      20.290   5.528  32.803  0.00  0.00    +0.047 A 
ATOM      6  C3  UNL     1      19.640   5.008  33.936  0.00  0.00    +0.044 A 
ATOM      7  C4  UNL     1      19.491   5.782  35.089  0.00  0.00    +0.043 A 
ATOM      8 CL1  UNL     1      18.680   5.118  36.495  0.00  0.00    -0.083 Cl
ATOM      9  C5  UNL     1      19.999   7.081  35.126  0.00  0.00    +0.021 A 
ATOM     10  C6  UNL     1      20.657   7.607  34.014  0.00  0.00    +0.016 A 
ATOM     11  C7  UNL     1      20.816   6.841  32.845  0.00  0.00    +0.058 A 
BRANCH  11  12
ATOM     12  C8  UNL     1      21.483   7.452  31.670  0.00  0.00    +0.248 C 
ATOM     13  O2  UNL     1      20.851   7.558  30.583  0.00  0.00    -0.270 OA
ATOM     14  N2  UNL     1      22.822   7.972  31.766  0.00  0.00    -0.297 N 
ATOM     15  C9  UNL     1      23.884   7.159  32.374  0.00  0.00    +0.108 C 
ATOM     16  C10 UNL     1      24.862   8.053  33.141  0.00  0.00    +0.019 C 
ATOM     17  C11 UNL     1      25.369   9.194  32.252  0.00  0.00    +0.003 C 
ATOM     18  C12 UNL     1      24.198  10.010  31.693  0.00  0.00    +0.019 C 
ATOM     19  C13 UNL     1      23.222   9.110  30.929  0.00  0.00    +0.108 C 
ENDBRANCH  11  12
ENDBRANCH   3   5
BRANCH   2  20
ATOM     20  C14 UNL     1      21.778   2.939  30.324  0.00  0.00    +0.038 A 
ATOM     21  C15 UNL     1      22.093   1.576  30.451  0.00  0.00    +0.013 A 
ATOM     22  C16 UNL     1      22.253   0.780  29.315  0.00  0.00    +0.001 A 
ATOM     23  C17 UNL     1      22.109   1.332  28.042  0.00  0.00    +0.010 A 
ATOM     24  C18 UNL     1      21.803   2.696  27.887  0.00  0.00    -0.001 A 
ATOM     25  C27 UNL     1      21.646   3.492  29.037  0.00  0.00    +0.023 A 
BRANCH  24  26
ATOM     26  C19 UNL     1      21.653   3.287  26.533  0.00  0.00    +0.047 A 
ATOM     27  C20 UNL     1      22.293   4.443  26.079  0.00  0.00    +0.036 A 
ATOM     28  C21 UNL     1      21.859   4.609  24.782  0.00  0.00    +0.000 A 
ATOM     29  C22 UNL     1      22.166   5.590  23.842  0.00  0.00    +0.010 A 
ATOM     30  C23 UNL     1      21.565   5.492  22.574  0.00  0.00    +0.001 A 
ATOM     31  C24 UNL     1      20.679   4.431  22.281  0.00  0.00    +0.002 A 
ATOM     32  C25 UNL     1      20.389   3.458  23.254  0.00  0.00    +0.026 A 
ATOM     33  C26 UNL     1      20.999   3.581  24.501  0.00  0.00    +0.047 A 
ATOM     34  N3  UNL     1      20.861   2.768  25.560  0.00  0.00    -0.354 N 
ATOM     35  H23 UNL     1      20.282   1.900  25.601  0.00  0.00    +0.166 HD
ENDBRANCH  24  26
ENDBRANCH   2  20
TORSDOF 4
ENDMDL
MODEL 4
REMARK VINA RESULT:    -7.691      3.541      9.975
REMARK INTER + INTRA:         -10.993
REMARK INTER:                  -9.506
REMARK INTRA:                  -1.487
REMARK UNBOUND:                -1.504
REMARK  Name = /home/qwerty/github/datacon2025hack/step_04_hit_selection/docking/ligands/lig_263.pdb
REMARK  4 active torsions:
REMARK  status: ('A' for Active; 'I' for Inactive)
REMARK    1  A    between atoms: C1_2  and  C14_19
REMARK    2  A    between atoms: N1_3  and  C2_4
REMARK    3  A    between atoms: C7_10  and  C8_11
REMARK    4  A    between atoms: C18_23  and  C19_24
REMARK                            x       y       z     vdW  Elec       q    Type
REMARK                         _______ _______ _______ _____ _____    ______ ____
ROOT
ATOM      1  O1  UNL     1      22.582   1.829  28.949  0.00  0.00    -0.270 OA
ATOM      2  C1  UNL     1      21.411   2.228  28.706  0.00  0.00    +0.248 C 
ATOM      3  N1  UNL     1      20.683   2.964  29.707  0.00  0.00    -0.281 N 
ATOM      4  H1  UNL     1      19.713   3.288  29.503  0.00  0.00    +0.155 HD
ENDROOT
BRANCH   3   5
ATOM      5  C2  UNL     1      21.220   3.259  31.007  0.00  0.00    +0.047 A 
ATOM      6  C3  UNL     1      22.114   4.332  31.169  0.00  0.00    +0.044 A 
ATOM      7  C4  UNL     1      22.591   4.676  32.436  0.00  0.00    +0.043 A 
ATOM      8 CL1  UNL     1      23.705   6.018  32.620  0.00  0.00    -0.083 Cl
ATOM      9  C5  UNL     1      22.172   3.959  33.557  0.00  0.00    +0.021 A 
ATOM     10  C6  UNL     1      21.275   2.899  33.414  0.00  0.00    +0.016 A 
ATOM     11  C7  UNL     1      20.785   2.540  32.146  0.00  0.00    +0.058 A 
BRANCH  11  12
ATOM     12  C8  UNL     1      19.866   1.380  32.032  0.00  0.00    +0.248 C 
ATOM     13  O2  UNL     1      20.215   0.377  31.351  0.00  0.00    -0.270 OA
ATOM     14  N2  UNL     1      18.607   1.362  32.728  0.00  0.00    -0.297 N 
ATOM     15  C9  UNL     1      17.704   2.519  32.645  0.00  0.00    +0.108 C 
ATOM     16  C10 UNL     1      16.969   2.715  33.974  0.00  0.00    +0.019 C 
ATOM     17  C11 UNL     1      16.290   1.414  34.417  0.00  0.00    +0.003 C 
ATOM     18  C12 UNL     1      17.311   0.274  34.513  0.00  0.00    +0.019 C 
ATOM     19  C13 UNL     1      18.044   0.085  33.182  0.00  0.00    +0.108 C 
ENDBRANCH  11  12
ENDBRANCH   3   5
BRANCH   2  20
ATOM     20  C14 UNL     1      20.805   1.921  27.388  0.00  0.00    +0.038 A 
ATOM     21  C15 UNL     1      21.336   2.453  26.201  0.00  0.00    +0.013 A 
ATOM     22  C16 UNL     1      20.741   2.166  24.971  0.00  0.00    +0.001 A 
ATOM     23  C17 UNL     1      19.608   1.354  24.909  0.00  0.00    +0.010 A 
ATOM     24  C18 UNL     1      19.051   0.817  26.082  0.00  0.00    -0.001 A 
ATOM     25  C27 UNL     1      19.656   1.112  27.319  0.00  0.00    +0.023 A 
BRANCH  24  26
ATOM     26  C19 UNL     1      17.844  -0.045  26.019  0.00  0.00    +0.047 A 
ATOM     27  C20 UNL     1      16.698   0.107  26.806  0.00  0.00    +0.036 A 
ATOM     28  C21 UNL     1      15.851  -0.904  26.407  0.00  0.00    +0.000 A 
ATOM     29  C22 UNL     1      14.572  -1.239  26.845  0.00  0.00    +0.010 A 
ATOM     30  C23 UNL     1      13.939  -2.338  26.236  0.00  0.00    +0.001 A 
ATOM     31  C24 UNL     1      14.594  -3.068  25.219  0.00  0.00    +0.002 A 
ATOM     32  C25 UNL     1      15.887  -2.705  24.802  0.00  0.00    +0.026 A 
ATOM     33  C26 UNL     1      16.489  -1.612  25.424  0.00  0.00    +0.047 A 
ATOM     34  N3  UNL     1      17.706  -1.101  25.178  0.00  0.00    -0.354 N 
ATOM     35  H23 UNL     1      18.384  -1.442  24.461  0.00  0.00    +0.166 HD
ENDBRANCH  24  26
ENDBRANCH   2  20
TORSDOF 4
ENDMDL
MODEL 5
REMARK VINA RESULT:    -7.572      9.442     12.201
REMARK INTER + INTRA:         -10.846
REMARK INTER:                  -9.103
REMARK INTRA:                  -1.743
REMARK UNBOUND:                -1.504
REMARK  Name = /home/qwerty/github/datacon2025hack/step_04_hit_selection/docking/ligands/lig_263.pdb
REMARK  4 active torsions:
REMARK  status: ('A' for Active; 'I' for Inactive)
REMARK    1  A    between atoms: C1_2  and  C14_19
REMARK    2  A    between atoms: N1_3  and  C2_4
REMARK    3  A    between atoms: C7_10  and  C8_11
REMARK    4  A    between atoms: C18_23  and  C19_24
REMARK                            x       y       z     vdW  Elec       q    Type
REMARK                         _______ _______ _______ _____ _____    ______ ____
ROOT
ATOM      1  O1  UNL     1      14.074   2.419  23.414  0.00  0.00    -0.270 OA
ATOM      2  C1  UNL     1      13.159   1.774  22.834  0.00  0.00    +0.248 C 
ATOM      3  N1  UNL     1      13.423   0.450  22.332  0.00  0.00    -0.281 N 
ATOM      4  H1  UNL     1      12.664  -0.078  21.848  0.00  0.00    +0.155 HD
ENDROOT
BRANCH   3   5
ATOM      5  C2  UNL     1      14.708  -0.187  22.439  0.00  0.00    +0.047 A 
ATOM      6  C3  UNL     1      14.969  -1.062  23.508  0.00  0.00    +0.044 A 
ATOM      7  C4  UNL     1      16.185  -1.742  23.589  0.00  0.00    +0.043 A 
ATOM      8 CL1  UNL     1      16.494  -2.832  24.928  0.00  0.00    -0.083 Cl
ATOM      9  C5  UNL     1      17.151  -1.565  22.598  0.00  0.00    +0.021 A 
ATOM     10  C6  UNL     1      16.902  -0.708  21.525  0.00  0.00    +0.016 A 
ATOM     11  C7  UNL     1      15.682  -0.016  21.427  0.00  0.00    +0.058 A 
BRANCH  11  12
ATOM     12  C8  UNL     1      15.474   0.917  20.293  0.00  0.00    +0.248 C 
ATOM     13  O2  UNL     1      15.050   0.470  19.191  0.00  0.00    -0.270 OA
ATOM     14  N2  UNL     1      15.699   2.331  20.446  0.00  0.00    -0.297 N 
ATOM     15  C9  UNL     1      16.943   2.814  21.059  0.00  0.00    +0.108 C 
ATOM     16  C10 UNL     1      16.672   4.076  21.884  0.00  0.00    +0.019 C 
ATOM     17  C11 UNL     1      15.930   5.124  21.048  0.00  0.00    +0.003 C 
ATOM     18  C12 UNL     1      14.629   4.545  20.481  0.00  0.00    +0.019 C 
ATOM     19  C13 UNL     1      14.906   3.283  19.659  0.00  0.00    +0.108 C 
ENDBRANCH  11  12
ENDBRANCH   3   5
BRANCH   2  20
ATOM     20  C14 UNL     1      11.826   2.403  22.673  0.00  0.00    +0.038 A 
ATOM     21  C15 UNL     1      10.646   1.674  22.900  0.00  0.00    +0.013 A 
ATOM     22  C16 UNL     1       9.399   2.277  22.728  0.00  0.00    +0.001 A 
ATOM     23  C17 UNL     1       9.312   3.609  22.320  0.00  0.00    +0.010 A 
ATOM     24  C18 UNL     1      10.477   4.358  22.077  0.00  0.00    -0.001 A 
ATOM     25  C27 UNL     1      11.730   3.741  22.252  0.00  0.00    +0.023 A 
BRANCH  24  26
ATOM     26  C19 UNL     1      10.386   5.774  21.640  0.00  0.00    +0.047 A 
ATOM     27  C20 UNL     1      11.280   6.413  20.776  0.00  0.00    +0.036 A 
ATOM     28  C21 UNL     1      10.807   7.702  20.659  0.00  0.00    +0.000 A 
ATOM     29  C22 UNL     1      11.294   8.783  19.928  0.00  0.00    +0.010 A 
ATOM     30  C23 UNL     1      10.583   9.994  19.998  0.00  0.00    +0.001 A 
ATOM     31  C24 UNL     1       9.418  10.095  20.789  0.00  0.00    +0.002 A 
ATOM     32  C25 UNL     1       8.953   8.985  21.517  0.00  0.00    +0.026 A 
ATOM     33  C26 UNL     1       9.679   7.799  21.429  0.00  0.00    +0.047 A 
ATOM     34  N3  UNL     1       9.411   6.631  22.035  0.00  0.00    -0.354 N 
ATOM     35  H23 UNL     1       8.597   6.432  22.658  0.00  0.00    +0.166 HD
ENDBRANCH  24  26
ENDBRANCH   2  20
TORSDOF 4
ENDMDL
MODEL 6
REMARK VINA RESULT:    -7.535      5.746      9.317
REMARK INTER + INTRA:         -10.801
REMARK INTER:                  -9.287
REMARK INTRA:                  -1.514
REMARK UNBOUND:                -1.504
REMARK  Name = /home/qwerty/github/datacon2025hack/step_04_hit_selection/docking/ligands/lig_263.pdb
REMARK  4 active torsions:
REMARK  status: ('A' for Active; 'I' for Inactive)
REMARK    1  A    between atoms: C1_2  and  C14_19
REMARK    2  A    between atoms: N1_3  and  C2_4
REMARK    3  A    between atoms: C7_10  and  C8_11
REMARK    4  A    between atoms: C18_23  and  C19_24
REMARK                            x       y       z     vdW  Elec       q    Type
REMARK                         _______ _______ _______ _____ _____    ______ ____
ROOT
ATOM      1  O1  UNL     1      21.257   5.058  24.055  0.00  0.00    -0.270 OA
ATOM      2  C1  UNL     1      20.690   3.972  23.758  0.00  0.00    +0.248 C 
ATOM      3  N1  UNL     1      20.152   3.784  22.436  0.00  0.00    -0.281 N 
ATOM      4  H1  UNL     1      19.679   2.885  22.196  0.00  0.00    +0.155 HD
ENDROOT
BRANCH   3   5
ATOM      5  C2  UNL     1      20.206   4.796  21.416  0.00  0.00    +0.047 A 
ATOM      6  C3  UNL     1      21.380   4.968  20.662  0.00  0.00    +0.044 A 
ATOM      7  C4  UNL     1      21.427   5.899  19.622  0.00  0.00    +0.043 A 
ATOM      8 CL1  UNL     1      22.899   6.099  18.689  0.00  0.00    -0.083 Cl
ATOM      9  C5  UNL     1      20.299   6.660  19.316  0.00  0.00    +0.021 A 
ATOM     10  C6  UNL     1      19.123   6.493  20.048  0.00  0.00    +0.016 A 
ATOM     11  C7  UNL     1      19.058   5.560  21.098  0.00  0.00    +0.058 A 
BRANCH  11  12
ATOM     12  C8  UNL     1      17.802   5.443  21.879  0.00  0.00    +0.248 C 
ATOM     13  O2  UNL     1      17.713   6.014  23.000  0.00  0.00    -0.270 OA
ATOM     14  N2  UNL     1      16.667   4.730  21.354  0.00  0.00    -0.297 N 
ATOM     15  C9  UNL     1      16.842   3.385  20.789  0.00  0.00    +0.108 C 
ATOM     16  C10 UNL     1      15.889   3.178  19.607  0.00  0.00    +0.019 C 
ATOM     17  C11 UNL     1      14.448   3.516  20.005  0.00  0.00    +0.003 C 
ATOM     18  C12 UNL     1      14.354   4.947  20.547  0.00  0.00    +0.019 C 
ATOM     19  C13 UNL     1      15.310   5.147  21.726  0.00  0.00    +0.108 C 
ENDBRANCH  11  12
ENDBRANCH   3   5
BRANCH   2  20
ATOM     20  C14 UNL     1      20.584   2.910  24.787  0.00  0.00    +0.038 A 
ATOM     21  C15 UNL     1      21.574   2.748  25.770  0.00  0.00    +0.013 A 
ATOM     22  C16 UNL     1      21.466   1.732  26.721  0.00  0.00    +0.001 A 
ATOM     23  C17 UNL     1      20.376   0.862  26.700  0.00  0.00    +0.010 A 
ATOM     24  C18 UNL     1      19.375   0.996  25.721  0.00  0.00    -0.001 A 
ATOM     25  C27 UNL     1      19.493   2.022  24.765  0.00  0.00    +0.023 A 
BRANCH  24  26
ATOM     26  C19 UNL     1      18.216   0.068  25.694  0.00  0.00    +0.047 A 
ATOM     27  C20 UNL     1      18.114  -1.078  24.901  0.00  0.00    +0.036 A 
ATOM     28  C21 UNL     1      16.882  -1.616  25.204  0.00  0.00    +0.000 A 
ATOM     29  C22 UNL     1      16.248  -2.758  24.718  0.00  0.00    +0.010 A 
ATOM     30  C23 UNL     1      14.973  -3.065  25.227  0.00  0.00    +0.001 A 
ATOM     31  C24 UNL     1      14.369  -2.232  26.195  0.00  0.00    +0.002 A 
ATOM     32  C25 UNL     1      15.036  -1.086  26.663  0.00  0.00    +0.026 A 
ATOM     33  C26 UNL     1      16.297  -0.806  26.140  0.00  0.00    +0.047 A 
ATOM     34  N3  UNL     1      17.098   0.226  26.448  0.00  0.00    -0.354 N 
ATOM     35  H23 UNL     1      16.898   0.974  27.148  0.00  0.00    +0.166 HD
ENDBRANCH  24  26
ENDBRANCH   2  20
TORSDOF 4
ENDMDL
MODEL 7
REMARK VINA RESULT:    -7.523     12.859     14.297
REMARK INTER + INTRA:         -10.787
REMARK INTER:                  -9.201
REMARK INTRA:                  -1.586
REMARK UNBOUND:                -1.504
REMARK  Name = /home/qwerty/github/datacon2025hack/step_04_hit_selection/docking/ligands/lig_263.pdb
REMARK  4 active torsions:
REMARK  status: ('A' for Active; 'I' for Inactive)
REMARK    1  A    between atoms: C1_2  and  C14_19
REMARK    2  A    between atoms: N1_3  and  C2_4
REMARK    3  A    between atoms: C7_10  and  C8_11
REMARK    4  A    between atoms: C18_23  and  C19_24
REMARK                            x       y       z     vdW  Elec       q    Type
REMARK                         _______ _______ _______ _____ _____    ______ ____
ROOT
ATOM      1  O1  UNL     1       9.977  13.521  27.725  0.00  0.00    -0.270 OA
ATOM      2  C1  UNL     1      10.731  12.799  28.431  0.00  0.00    +0.248 C 
ATOM      3  N1  UNL     1      10.956  11.425  28.062  0.00  0.00    -0.281 N 
ATOM      4  H1  UNL     1      11.577  10.829  28.653  0.00  0.00    +0.155 HD
ENDROOT
BRANCH   3   5
ATOM      5  C2  UNL     1      10.340  10.809  26.919  0.00  0.00    +0.047 A 
ATOM      6  C3  UNL     1      10.952  10.905  25.657  0.00  0.00    +0.044 A 
ATOM      7  C4  UNL     1      10.404  10.254  24.549  0.00  0.00    +0.043 A 
ATOM      8 CL1  UNL     1      11.181  10.382  22.982  0.00  0.00    -0.083 Cl
ATOM      9  C5  UNL     1       9.244   9.492  24.692  0.00  0.00    +0.021 A 
ATOM     10  C6  UNL     1       8.631   9.378  25.941  0.00  0.00    +0.016 A 
ATOM     11  C7  UNL     1       9.171  10.026  27.067  0.00  0.00    +0.058 A 
BRANCH  11  12
ATOM     12  C8  UNL     1       8.465   9.914  28.367  0.00  0.00    +0.248 C 
ATOM     13  O2  UNL     1       7.870  10.922  28.839  0.00  0.00    -0.270 OA
ATOM     14  N2  UNL     1       8.406   8.660  29.072  0.00  0.00    -0.297 N 
ATOM     15  C9  UNL     1       9.632   7.878  29.283  0.00  0.00    +0.108 C 
ATOM     16  C10 UNL     1       9.323   6.380  29.215  0.00  0.00    +0.019 C 
ATOM     17  C11 UNL     1       8.171   6.018  30.159  0.00  0.00    +0.003 C 
ATOM     18  C12 UNL     1       6.926   6.854  29.843  0.00  0.00    +0.019 C 
ATOM     19  C13 UNL     1       7.242   8.351  29.911  0.00  0.00    +0.108 C 
ENDBRANCH  11  12
ENDBRANCH   3   5
BRANCH   2  20
ATOM     20  C14 UNL     1      11.365  13.382  29.638  0.00  0.00    +0.038 A 
ATOM     21  C15 UNL     1      12.187  14.519  29.549  0.00  0.00    +0.013 A 
ATOM     22  C16 UNL     1      12.790  15.044  30.694  0.00  0.00    +0.001 A 
ATOM     23  C17 UNL     1      12.587  14.442  31.936  0.00  0.00    +0.010 A 
ATOM     24  C18 UNL     1      11.777  13.299  32.050  0.00  0.00    -0.001 A 
ATOM     25  C27 UNL     1      11.175  12.774  30.892  0.00  0.00    +0.023 A 
BRANCH  24  26
ATOM     26  C19 UNL     1      11.563  12.654  33.371  0.00  0.00    +0.047 A 
ATOM     27  C20 UNL     1      11.603  11.279  33.616  0.00  0.00    +0.036 A 
ATOM     28  C21 UNL     1      11.350  11.146  34.964  0.00  0.00    +0.000 A 
ATOM     29  C22 UNL     1      11.269  10.008  35.763  0.00  0.00    +0.010 A 
ATOM     30  C23 UNL     1      11.000  10.187  37.132  0.00  0.00    +0.001 A 
ATOM     31  C24 UNL     1      10.818  11.484  37.662  0.00  0.00    +0.002 A 
ATOM     32  C25 UNL     1      10.906  12.612  36.827  0.00  0.00    +0.026 A 
ATOM     33  C26 UNL     1      11.172  12.404  35.475  0.00  0.00    +0.047 A 
ATOM     34  N3  UNL     1      11.297  13.334  34.515  0.00  0.00    -0.354 N 
ATOM     35  H23 UNL     1      11.229  14.367  34.645  0.00  0.00    +0.166 HD
ENDBRANCH  24  26
ENDBRANCH   2  20
TORSDOF 4
ENDMDL
MODEL 8
REMARK VINA RESULT:    -7.448     11.414     14.132
REMARK INTER + INTRA:         -10.694
REMARK INTER:                  -9.031
REMARK INTRA:                  -1.664
REMARK UNBOUND:                -1.504
REMARK  Name = /home/qwerty/github/datacon2025hack/step_04_hit_selection/docking/ligands/lig_263.pdb
REMARK  4 active torsions:
REMARK  status: ('A' for Active; 'I' for Inactive)
REMARK    1  A    between atoms: C1_2  and  C14_19
REMARK    2  A    between atoms: N1_3  and  C2_4
REMARK    3  A    between atoms: C7_10  and  C8_11
REMARK    4  A    between atoms: C18_23  and  C19_24
REMARK                            x       y       z     vdW  Elec       q    Type
REMARK                         _______ _______ _______ _____ _____    ______ ____
ROOT
ATOM      1  O1  UNL     1      10.708   7.109  20.226  0.00  0.00    -0.270 OA
ATOM      2  C1  UNL     1      10.704   7.412  21.450  0.00  0.00    +0.248 C 
ATOM      3  N1  UNL     1      11.622   6.763  22.350  0.00  0.00    -0.281 N 
ATOM      4  H1  UNL     1      11.612   7.012  23.364  0.00  0.00    +0.155 HD
ENDROOT
BRANCH   3   5
ATOM      5  C2  UNL     1      12.550   5.749  21.928  0.00  0.00    +0.047 A 
ATOM      6  C3  UNL     1      13.597   6.082  21.050  0.00  0.00    +0.044 A 
ATOM      7  C4  UNL     1      14.548   5.127  20.683  0.00  0.00    +0.043 A 
ATOM      8 CL1  UNL     1      15.849   5.558  19.589  0.00  0.00    -0.083 Cl
ATOM      9  C5  UNL     1      14.470   3.832  21.199  0.00  0.00    +0.021 A 
ATOM     10  C6  UNL     1      13.444   3.491  22.080  0.00  0.00    +0.016 A 
ATOM     11  C7  UNL     1      12.478   4.441  22.460  0.00  0.00    +0.058 A 
BRANCH  11  12
ATOM     12  C8  UNL     1      11.379   4.025  23.366  0.00  0.00    +0.248 C 
ATOM     13  O2  UNL     1      11.654   3.611  24.525  0.00  0.00    -0.270 OA
ATOM     14  N2  UNL     1      10.003   4.137  22.960  0.00  0.00    -0.297 N 
ATOM     15  C9  UNL     1       9.579   3.619  21.652  0.00  0.00    +0.108 C 
ATOM     16  C10 UNL     1       8.483   4.510  21.059  0.00  0.00    +0.019 C 
ATOM     17  C11 UNL     1       7.341   4.708  22.062  0.00  0.00    +0.003 C 
ATOM     18  C12 UNL     1       7.869   5.286  23.381  0.00  0.00    +0.019 C 
ATOM     19  C13 UNL     1       8.966   4.392  23.967  0.00  0.00    +0.108 C 
ENDBRANCH  11  12
ENDBRANCH   3   5
BRANCH   2  20
ATOM     20  C14 UNL     1       9.743   8.430  21.938  0.00  0.00    +0.038 A 
ATOM     21  C15 UNL     1       9.136   9.339  21.055  0.00  0.00    +0.013 A 
ATOM     22  C16 UNL     1       8.246  10.301  21.534  0.00  0.00    +0.001 A 
ATOM     23  C17 UNL     1       7.956  10.375  22.897  0.00  0.00    +0.010 A 
ATOM     24  C18 UNL     1       8.557   9.484  23.803  0.00  0.00    -0.001 A 
ATOM     25  C27 UNL     1       9.454   8.518  23.312  0.00  0.00    +0.023 A 
BRANCH  24  26
ATOM     26  C19 UNL     1       8.253   9.563  25.254  0.00  0.00    +0.047 A 
ATOM     27  C20 UNL     1       7.761   8.515  26.037  0.00  0.00    +0.036 A 
ATOM     28  C21 UNL     1       7.633   9.041  27.304  0.00  0.00    +0.000 A 
ATOM     29  C22 UNL     1       7.189   8.456  28.488  0.00  0.00    +0.010 A 
ATOM     30  C23 UNL     1       7.175   9.253  29.646  0.00  0.00    +0.001 A 
ATOM     31  C24 UNL     1       7.596  10.600  29.594  0.00  0.00    +0.002 A 
ATOM     32  C25 UNL     1       8.036  11.161  28.382  0.00  0.00    +0.026 A 
ATOM     33  C26 UNL     1       8.039  10.348  27.250  0.00  0.00    +0.047 A 
ATOM     34  N3  UNL     1       8.418  10.681  26.006  0.00  0.00    -0.354 N 
ATOM     35  H23 UNL     1       8.789  11.609  25.703  0.00  0.00    +0.166 HD
ENDBRANCH  24  26
ENDBRANCH   2  20
TORSDOF 4
ENDMDL
MODEL 9
REMARK VINA RESULT:    -7.429     12.700     14.087
REMARK INTER + INTRA:         -10.671
REMARK INTER:                  -8.915
REMARK INTRA:                  -1.756
REMARK UNBOUND:                -1.504
REMARK  Name = /home/qwerty/github/datacon2025hack/step_04_hit_selection/docking/ligands/lig_263.pdb
REMARK  4 active torsions:
REMARK  status: ('A' for Active; 'I' for Inactive)
REMARK    1  A    between atoms: C1_2  and  C14_19
REMARK    2  A    between atoms: N1_3  and  C2_4
REMARK    3  A    between atoms: C7_10  and  C8_11
REMARK    4  A    between atoms: C18_23  and  C19_24
REMARK                            x       y       z     vdW  Elec       q    Type
REMARK                         _______ _______ _______ _____ _____    ______ ____
ROOT
ATOM      1  O1  UNL     1       8.444  11.593  27.028  0.00  0.00    -0.270 OA
ATOM      2  C1  UNL     1       9.705  11.607  27.041  0.00  0.00    +0.248 C 
ATOM      3  N1  UNL     1      10.439  10.689  26.210  0.00  0.00    -0.281 N 
ATOM      4  H1  UNL     1      11.483  10.700  26.228  0.00  0.00    +0.155 HD
ENDROOT
BRANCH   3   5
ATOM      5  C2  UNL     1       9.803   9.720  25.360  0.00  0.00    +0.047 A 
ATOM      6  C3  UNL     1       9.438  10.071  24.049  0.00  0.00    +0.044 A 
ATOM      7  C4  UNL     1       8.882   9.123  23.187  0.00  0.00    +0.043 A 
ATOM      8 CL1  UNL     1       8.434   9.577  21.553  0.00  0.00    -0.083 Cl
ATOM      9  C5  UNL     1       8.695   7.811  23.622  0.00  0.00    +0.021 A 
ATOM     10  C6  UNL     1       9.062   7.444  24.917  0.00  0.00    +0.016 A 
ATOM     11  C7  UNL     1       9.624   8.386  25.798  0.00  0.00    +0.058 A 
BRANCH  11  12
ATOM     12  C8  UNL     1       9.962   7.966  27.180  0.00  0.00    +0.248 C 
ATOM     13  O2  UNL     1      11.051   7.366  27.397  0.00  0.00    -0.270 OA
ATOM     14  N2  UNL     1       9.091   8.278  28.282  0.00  0.00    -0.297 N 
ATOM     15  C9  UNL     1       7.652   7.996  28.184  0.00  0.00    +0.108 C 
ATOM     16  C10 UNL     1       6.850   9.072  28.923  0.00  0.00    +0.019 C 
ATOM     17  C11 UNL     1       7.365   9.246  30.356  0.00  0.00    +0.003 C 
ATOM     18  C12 UNL     1       8.862   9.574  30.360  0.00  0.00    +0.019 C 
ATOM     19  C13 UNL     1       9.658   8.497  29.618  0.00  0.00    +0.108 C 
ENDBRANCH  11  12
ENDBRANCH   3   5
BRANCH   2  20
ATOM     20  C14 UNL     1      10.406  12.569  27.926  0.00  0.00    +0.038 A 
ATOM     21  C15 UNL     1      11.019  13.722  27.405  0.00  0.00    +0.013 A 
ATOM     22  C16 UNL     1      11.689  14.608  28.251  0.00  0.00    +0.001 A 
ATOM     23  C17 UNL     1      11.763  14.353  29.621  0.00  0.00    +0.010 A 
ATOM     24  C18 UNL     1      11.167  13.203  30.165  0.00  0.00    -0.001 A 
ATOM     25  C27 UNL     1      10.495  12.313  29.306  0.00  0.00    +0.023 A 
BRANCH  24  26
ATOM     26  C19 UNL     1      11.248  12.928  31.622  0.00  0.00    +0.047 A 
ATOM     27  C20 UNL     1      11.314  11.659  32.205  0.00  0.00    +0.036 A 
ATOM     28  C21 UNL     1      11.375  11.889  33.562  0.00  0.00    +0.000 A 
ATOM     29  C22 UNL     1      11.454  10.997  34.629  0.00  0.00    +0.010 A 
ATOM     30  C23 UNL     1      11.510  11.534  35.928  0.00  0.00    +0.001 A 
ATOM     31  C24 UNL     1      11.483  12.932  36.126  0.00  0.00    +0.002 A 
ATOM     32  C25 UNL     1      11.401  13.805  35.027  0.00  0.00    +0.026 A 
ATOM     33  C26 UNL     1      11.346  13.244  33.752  0.00  0.00    +0.047 A 
ATOM     34  N3  UNL     1      11.266  13.891  32.578  0.00  0.00    -0.354 N 
ATOM     35  H23 UNL     1      11.252  14.927  32.445  0.00  0.00    +0.166 HD
ENDBRANCH  24  26
ENDBRANCH   2  20
TORSDOF 4
ENDMDL
