MODEL 1
REMARK VINA RESULT:    -6.270      0.000      0.000
REMARK INTER + INTRA:          -8.418
REMARK INTER:                  -7.737
REMARK INTRA:                  -0.681
REMARK UNBOUND:                -0.681
REMARK  Name = /home/qwerty/github/datacon2025hack/step_04_hit_selection/docking/ligands/lig_253.pdb
REMARK  7 active torsions:
REMARK  status: ('A' for Active; 'I' for Inactive)
REMARK    1  A    between atoms: C1_1  and  C2_2
REMARK    2  A    between atoms: C2_2  and  C3_3
REMARK    3  A    between atoms: C2_2  and  C4_4
REMARK    4  A    between atoms: C4_4  and  C5_5
REMARK    5  A    between atoms: C5_5  and  C6_6
REMARK    6  A    between atoms: C5_5  and  N1_7
REMARK    7  A    between atoms: C11_14  and  C12_15
REMARK                            x       y       z     vdW  Elec       q    Type
REMARK                         _______ _______ _______ _____ _____    ______ ____
ROOT
ATOM      1  N1  UNL     1      21.088   2.841  31.194  0.00  0.00    -0.297 N 
ATOM      2  C7  UNL     1      22.032   3.801  31.697  0.00  0.00    +0.303 C 
ATOM      3  O1  UNL     1      22.993   3.416  32.418  0.00  0.00    -0.253 OA
ATOM      4  N2  UNL     1      21.893   5.203  31.395  0.00  0.00    -0.277 N 
ATOM      5  C8  UNL     1      20.836   5.755  30.563  0.00  0.00    +0.110 C 
ATOM      6  C9  UNL     1      21.037   7.266  30.586  0.00  0.00    +0.021 C 
ATOM      7  C10 UNL     1      22.453   7.493  31.108  0.00  0.00    +0.031 C 
ATOM      8  C11 UNL     1      22.827   6.217  31.864  0.00  0.00    +0.133 C 
ATOM      9  H14 UNL     1      20.337   3.161  30.543  0.00  0.00    +0.151 HD
ENDROOT
BRANCH   8  10
ATOM     10  C12 UNL     1      22.701   6.402  33.351  0.00  0.00    +0.100 A 
ATOM     11  N3  UNL     1      21.509   6.584  33.972  0.00  0.00    -0.242 NA
ATOM     12  C13 UNL     1      21.670   6.691  35.315  0.00  0.00    +0.079 A 
ATOM     13  C14 UNL     1      20.627   6.890  36.220  0.00  0.00    +0.029 A 
ATOM     14  C15 UNL     1      20.930   6.982  37.590  0.00  0.00    +0.002 A 
ATOM     15  C16 UNL     1      22.264   6.873  38.036  0.00  0.00    +0.001 A 
ATOM     16  C17 UNL     1      23.305   6.673  37.115  0.00  0.00    +0.017 A 
ATOM     17  C18 UNL     1      22.977   6.586  35.764  0.00  0.00    +0.039 A 
ATOM     18  S1  UNL     1      23.993   6.350  34.452  0.00  0.00    -0.070 S 
ENDBRANCH   8  10
BRANCH   1  19
ATOM     19  C5  UNL     1      21.134   1.423  31.576  0.00  0.00    +0.072 C 
ATOM     20  C6  UNL     1      20.036   1.148  32.611  0.00  0.00    +0.028 C 
BRANCH  19  21
ATOM     21  C4  UNL     1      20.994   0.544  30.305  0.00  0.00    +0.025 C 
BRANCH  21  23
ATOM     22  C1  UNL     1      21.866   1.366  28.022  0.00  0.00    +0.007 C 
ATOM     23  C2  UNL     1      22.169   0.552  29.288  0.00  0.00    -0.015 C 
ATOM     24  C3  UNL     1      22.693  -0.848  28.941  0.00  0.00    +0.007 C 
ENDBRANCH  21  23
ENDBRANCH  19  21
ENDBRANCH   1  19
TORSDOF 4
ENDMDL
MODEL 2
REMARK VINA RESULT:    -6.221      8.222     12.648
REMARK INTER + INTRA:          -8.357
REMARK INTER:                  -7.631
REMARK INTRA:                  -0.725
REMARK UNBOUND:                -0.681
REMARK  Name = /home/qwerty/github/datacon2025hack/step_04_hit_selection/docking/ligands/lig_253.pdb
REMARK  7 active torsions:
REMARK  status: ('A' for Active; 'I' for Inactive)
REMARK    1  A    between atoms: C1_1  and  C2_2
REMARK    2  A    between atoms: C2_2  and  C3_3
REMARK    3  A    between atoms: C2_2  and  C4_4
REMARK    4  A    between atoms: C4_4  and  C5_5
REMARK    5  A    between atoms: C5_5  and  C6_6
REMARK    6  A    between atoms: C5_5  and  N1_7
REMARK    7  A    between atoms: C11_14  and  C12_15
REMARK                            x       y       z     vdW  Elec       q    Type
REMARK                         _______ _______ _______ _____ _____    ______ ____
ROOT
ATOM      1  N1  UNL     1      16.795   0.617  27.642  0.00  0.00    -0.297 N 
ATOM      2  C7  UNL     1      16.882  -0.252  26.500  0.00  0.00    +0.303 C 
ATOM      3  O1  UNL     1      17.887  -0.188  25.740  0.00  0.00    -0.253 OA
ATOM      4  N2  UNL     1      15.833  -1.196  26.207  0.00  0.00    -0.277 N 
ATOM      5  C8  UNL     1      14.642  -1.368  27.023  0.00  0.00    +0.110 C 
ATOM      6  C9  UNL     1      13.789  -2.402  26.297  0.00  0.00    +0.021 C 
ATOM      7  C10 UNL     1      14.718  -3.084  25.296  0.00  0.00    +0.031 C 
ATOM      8  C11 UNL     1      15.877  -2.111  25.076  0.00  0.00    +0.133 C 
ATOM      9  H14 UNL     1      15.993   0.509  28.302  0.00  0.00    +0.151 HD
ENDROOT
BRANCH   8  10
ATOM     10  C12 UNL     1      15.725  -1.358  23.783  0.00  0.00    +0.100 A 
ATOM     11  N3  UNL     1      14.659  -0.565  23.514  0.00  0.00    -0.242 NA
ATOM     12  C13 UNL     1      14.782   0.023  22.297  0.00  0.00    +0.079 A 
ATOM     13  C14 UNL     1      13.841   0.890  21.741  0.00  0.00    +0.029 A 
ATOM     14  C15 UNL     1      14.092   1.434  20.469  0.00  0.00    +0.002 A 
ATOM     15  C16 UNL     1      15.275   1.109  19.774  0.00  0.00    +0.001 A 
ATOM     16  C17 UNL     1      16.216   0.236  20.345  0.00  0.00    +0.017 A 
ATOM     17  C18 UNL     1      15.942  -0.289  21.605  0.00  0.00    +0.039 A 
ATOM     18  S1  UNL     1      16.867  -1.341  22.526  0.00  0.00    -0.070 S 
ENDBRANCH   8  10
BRANCH   1  19
ATOM     19  C5  UNL     1      17.788   1.667  27.904  0.00  0.00    +0.072 C 
ATOM     20  C6  UNL     1      17.082   3.029  27.929  0.00  0.00    +0.028 C 
BRANCH  19  21
ATOM     21  C4  UNL     1      18.529   1.352  29.230  0.00  0.00    +0.025 C 
BRANCH  21  23
ATOM     22  C1  UNL     1      20.673   1.139  27.813  0.00  0.00    +0.007 C 
ATOM     23  C2  UNL     1      20.083   1.370  29.211  0.00  0.00    -0.015 C 
ATOM     24  C3  UNL     1      20.722   0.437  30.249  0.00  0.00    +0.007 C 
ENDBRANCH  21  23
ENDBRANCH  19  21
ENDBRANCH   1  19
TORSDOF 4
ENDMDL
MODEL 3
REMARK VINA RESULT:    -6.072      5.822     10.077
REMARK INTER + INTRA:          -8.173
REMARK INTER:                  -7.335
REMARK INTRA:                  -0.839
REMARK UNBOUND:                -0.681
REMARK  Name = /home/qwerty/github/datacon2025hack/step_04_hit_selection/docking/ligands/lig_253.pdb
REMARK  7 active torsions:
REMARK  status: ('A' for Active; 'I' for Inactive)
REMARK    1  A    between atoms: C1_1  and  C2_2
REMARK    2  A    between atoms: C2_2  and  C3_3
REMARK    3  A    between atoms: C2_2  and  C4_4
REMARK    4  A    between atoms: C4_4  and  C5_5
REMARK    5  A    between atoms: C5_5  and  C6_6
REMARK    6  A    between atoms: C5_5  and  N1_7
REMARK    7  A    between atoms: C11_14  and  C12_15
REMARK                            x       y       z     vdW  Elec       q    Type
REMARK                         _______ _______ _______ _____ _____    ______ ____
ROOT
ATOM      1  N1  UNL     1      21.379   0.941  27.817  0.00  0.00    -0.297 N 
ATOM      2  C7  UNL     1      19.999   1.226  27.531  0.00  0.00    +0.303 C 
ATOM      3  O1  UNL     1      19.123   1.024  28.416  0.00  0.00    -0.253 OA
ATOM      4  N2  UNL     1      19.600   1.735  26.244  0.00  0.00    -0.277 N 
ATOM      5  C8  UNL     1      20.526   2.021  25.159  0.00  0.00    +0.110 C 
ATOM      6  C9  UNL     1      19.663   2.458  23.982  0.00  0.00    +0.021 C 
ATOM      7  C10 UNL     1      18.294   2.794  24.568  0.00  0.00    +0.031 C 
ATOM      8  C11 UNL     1      18.221   2.057  25.906  0.00  0.00    +0.133 C 
ATOM      9  H14 UNL     1      22.104   1.175  27.103  0.00  0.00    +0.151 HD
ENDROOT
BRANCH   8  10
ATOM     10  C12 UNL     1      17.399   0.803  25.798  0.00  0.00    +0.100 A 
ATOM     11  N3  UNL     1      16.239   0.622  26.477  0.00  0.00    -0.242 NA
ATOM     12  C13 UNL     1      15.679  -0.577  26.177  0.00  0.00    +0.079 A 
ATOM     13  C14 UNL     1      14.485  -1.048  26.723  0.00  0.00    +0.029 A 
ATOM     14  C15 UNL     1      14.013  -2.311  26.325  0.00  0.00    +0.002 A 
ATOM     15  C16 UNL     1      14.735  -3.083  25.392  0.00  0.00    +0.001 A 
ATOM     16  C17 UNL     1      15.936  -2.598  24.849  0.00  0.00    +0.017 A 
ATOM     17  C18 UNL     1      16.381  -1.344  25.260  0.00  0.00    +0.039 A 
ATOM     18  S1  UNL     1      17.760  -0.515  24.789  0.00  0.00    -0.070 S 
ENDBRANCH   8  10
BRANCH   1  19
ATOM     19  C5  UNL     1      21.805   0.314  29.075  0.00  0.00    +0.072 C 
ATOM     20  C6  UNL     1      22.612  -0.951  28.756  0.00  0.00    +0.028 C 
BRANCH  19  21
ATOM     21  C4  UNL     1      22.609   1.342  29.914  0.00  0.00    +0.025 C 
BRANCH  21  23
ATOM     22  C1  UNL     1      20.744   1.269  31.694  0.00  0.00    +0.007 C 
ATOM     23  C2  UNL     1      21.856   2.102  31.041  0.00  0.00    -0.015 C 
ATOM     24  C3  UNL     1      21.342   3.484  30.616  0.00  0.00    +0.007 C 
ENDBRANCH  21  23
ENDBRANCH  19  21
ENDBRANCH   1  19
TORSDOF 4
ENDMDL
MODEL 4
REMARK VINA RESULT:    -6.058      2.664      3.940
REMARK INTER + INTRA:          -8.156
REMARK INTER:                  -7.287
REMARK INTRA:                  -0.869
REMARK UNBOUND:                -0.681
REMARK  Name = /home/qwerty/github/datacon2025hack/step_04_hit_selection/docking/ligands/lig_253.pdb
REMARK  7 active torsions:
REMARK  status: ('A' for Active; 'I' for Inactive)
REMARK    1  A    between atoms: C1_1  and  C2_2
REMARK    2  A    between atoms: C2_2  and  C3_3
REMARK    3  A    between atoms: C2_2  and  C4_4
REMARK    4  A    between atoms: C4_4  and  C5_5
REMARK    5  A    between atoms: C5_5  and  C6_6
REMARK    6  A    between atoms: C5_5  and  N1_7
REMARK    7  A    between atoms: C11_14  and  C12_15
REMARK                            x       y       z     vdW  Elec       q    Type
REMARK                         _______ _______ _______ _____ _____    ______ ____
ROOT
ATOM      1  N1  UNL     1      22.261   1.672  30.253  0.00  0.00    -0.297 N 
ATOM      2  C7  UNL     1      21.763   2.994  30.521  0.00  0.00    +0.303 C 
ATOM      3  O1  UNL     1      21.794   3.870  29.613  0.00  0.00    -0.253 OA
ATOM      4  N2  UNL     1      21.232   3.335  31.816  0.00  0.00    -0.277 N 
ATOM      5  C8  UNL     1      21.132   2.402  32.926  0.00  0.00    +0.110 C 
ATOM      6  C9  UNL     1      20.593   3.211  34.100  0.00  0.00    +0.021 C 
ATOM      7  C10 UNL     1      20.021   4.493  33.499  0.00  0.00    +0.031 C 
ATOM      8  C11 UNL     1      20.699   4.652  32.137  0.00  0.00    +0.133 C 
ATOM      9  H14 UNL     1      22.168   0.936  30.988  0.00  0.00    +0.151 HD
ENDROOT
BRANCH   8  10
ATOM     10  C12 UNL     1      21.804   5.669  32.189  0.00  0.00    +0.100 A 
ATOM     11  N3  UNL     1      21.775   6.825  31.481  0.00  0.00    -0.242 NA
ATOM     12  C13 UNL     1      22.875   7.580  31.732  0.00  0.00    +0.079 A 
ATOM     13  C14 UNL     1      23.130   8.821  31.147  0.00  0.00    +0.029 A 
ATOM     14  C15 UNL     1      24.309   9.502  31.497  0.00  0.00    +0.002 A 
ATOM     15  C16 UNL     1      25.213   8.939  32.421  0.00  0.00    +0.001 A 
ATOM     16  C17 UNL     1      24.945   7.689  33.004  0.00  0.00    +0.017 A 
ATOM     17  C18 UNL     1      23.770   7.036  32.641  0.00  0.00    +0.039 A 
ATOM     18  S1  UNL     1      23.190   5.553  33.166  0.00  0.00    -0.070 S 
ENDBRANCH   8  10
BRANCH   1  19
ATOM     19  C5  UNL     1      22.914   1.324  28.984  0.00  0.00    +0.072 C 
ATOM     20  C6  UNL     1      24.260   0.652  29.281  0.00  0.00    +0.028 C 
BRANCH  19  21
ATOM     21  C4  UNL     1      21.965   0.422  28.150  0.00  0.00    +0.025 C 
BRANCH  21  23
ATOM     22  C1  UNL     1      21.684   2.340  26.450  0.00  0.00    +0.007 C 
ATOM     23  C2  UNL     1      21.040   1.113  27.109  0.00  0.00    -0.015 C 
ATOM     24  C3  UNL     1      19.640   1.437  27.648  0.00  0.00    +0.007 C 
ENDBRANCH  21  23
ENDBRANCH  19  21
ENDBRANCH   1  19
TORSDOF 4
ENDMDL
MODEL 5
REMARK VINA RESULT:    -6.038      2.046      3.107
REMARK INTER + INTRA:          -8.131
REMARK INTER:                  -7.372
REMARK INTRA:                  -0.758
REMARK UNBOUND:                -0.681
REMARK  Name = /home/qwerty/github/datacon2025hack/step_04_hit_selection/docking/ligands/lig_253.pdb
REMARK  7 active torsions:
REMARK  status: ('A' for Active; 'I' for Inactive)
REMARK    1  A    between atoms: C1_1  and  C2_2
REMARK    2  A    between atoms: C2_2  and  C3_3
REMARK    3  A    between atoms: C2_2  and  C4_4
REMARK    4  A    between atoms: C4_4  and  C5_5
REMARK    5  A    between atoms: C5_5  and  C6_6
REMARK    6  A    between atoms: C5_5  and  N1_7
REMARK    7  A    between atoms: C11_14  and  C12_15
REMARK                            x       y       z     vdW  Elec       q    Type
REMARK                         _______ _______ _______ _____ _____    ______ ____
ROOT
ATOM      1  N1  UNL     1      21.836   6.588  29.982  0.00  0.00    -0.297 N 
ATOM      2  C7  UNL     1      22.642   6.567  31.172  0.00  0.00    +0.303 C 
ATOM      3  O1  UNL     1      22.662   5.534  31.897  0.00  0.00    -0.253 OA
ATOM      4  N2  UNL     1      23.426   7.714  31.554  0.00  0.00    -0.277 N 
ATOM      5  C8  UNL     1      23.492   8.947  30.786  0.00  0.00    +0.110 C 
ATOM      6  C9  UNL     1      24.366   9.895  31.599  0.00  0.00    +0.021 C 
ATOM      7  C10 UNL     1      25.101   9.023  32.613  0.00  0.00    +0.031 C 
ATOM      8  C11 UNL     1      24.273   7.743  32.738  0.00  0.00    +0.133 C 
ATOM      9  H14 UNL     1      21.880   7.421  29.354  0.00  0.00    +0.151 HD
ENDROOT
BRANCH   8  10
ATOM     10  C12 UNL     1      23.434   7.751  33.986  0.00  0.00    +0.100 A 
ATOM     11  N3  UNL     1      22.424   8.633  34.187  0.00  0.00    -0.242 NA
ATOM     12  C13 UNL     1      21.806   8.405  35.374  0.00  0.00    +0.079 A 
ATOM     13  C14 UNL     1      20.734   9.153  35.861  0.00  0.00    +0.029 A 
ATOM     14  C15 UNL     1      20.183   8.810  37.108  0.00  0.00    +0.002 A 
ATOM     15  C16 UNL     1      20.706   7.729  37.848  0.00  0.00    +0.001 A 
ATOM     16  C17 UNL     1      21.785   6.983  37.347  0.00  0.00    +0.017 A 
ATOM     17  C18 UNL     1      22.312   7.344  36.109  0.00  0.00    +0.039 A 
ATOM     18  S1  UNL     1      23.583   6.647  35.267  0.00  0.00    -0.070 S 
ENDBRANCH   8  10
BRANCH   1  19
ATOM     19  C5  UNL     1      20.938   5.482  29.626  0.00  0.00    +0.072 C 
ATOM     20  C6  UNL     1      19.534   6.042  29.364  0.00  0.00    +0.028 C 
BRANCH  19  21
ATOM     21  C4  UNL     1      21.518   4.723  28.404  0.00  0.00    +0.025 C 
BRANCH  21  23
ATOM     22  C1  UNL     1      21.766   2.633  29.894  0.00  0.00    +0.007 C 
ATOM     23  C2  UNL     1      21.562   3.171  28.471  0.00  0.00    -0.015 C 
ATOM     24  C3  UNL     1      22.556   2.539  27.487  0.00  0.00    +0.007 C 
ENDBRANCH  21  23
ENDBRANCH  19  21
ENDBRANCH   1  19
TORSDOF 4
ENDMDL
MODEL 6
REMARK VINA RESULT:    -5.965      7.015     11.719
REMARK INTER + INTRA:          -8.041
REMARK INTER:                  -7.287
REMARK INTRA:                  -0.754
REMARK UNBOUND:                -0.681
REMARK  Name = /home/qwerty/github/datacon2025hack/step_04_hit_selection/docking/ligands/lig_253.pdb
REMARK  7 active torsions:
REMARK  status: ('A' for Active; 'I' for Inactive)
REMARK    1  A    between atoms: C1_1  and  C2_2
REMARK    2  A    between atoms: C2_2  and  C3_3
REMARK    3  A    between atoms: C2_2  and  C4_4
REMARK    4  A    between atoms: C4_4  and  C5_5
REMARK    5  A    between atoms: C5_5  and  C6_6
REMARK    6  A    between atoms: C5_5  and  N1_7
REMARK    7  A    between atoms: C11_14  and  C12_15
REMARK                            x       y       z     vdW  Elec       q    Type
REMARK                         _______ _______ _______ _____ _____    ______ ____
ROOT
ATOM      1  N1  UNL     1      20.017   1.779  26.692  0.00  0.00    -0.297 N 
ATOM      2  C7  UNL     1      19.250   0.671  26.191  0.00  0.00    +0.303 C 
ATOM      3  O1  UNL     1      19.820  -0.232  25.518  0.00  0.00    -0.253 OA
ATOM      4  N2  UNL     1      17.834   0.577  26.444  0.00  0.00    -0.277 N 
ATOM      5  C8  UNL     1      17.080   1.548  27.220  0.00  0.00    +0.110 C 
ATOM      6  C9  UNL     1      15.628   1.092  27.156  0.00  0.00    +0.021 C 
ATOM      7  C10 UNL     1      15.664  -0.357  26.678  0.00  0.00    +0.031 C 
ATOM      8  C11 UNL     1      17.012  -0.530  25.977  0.00  0.00    +0.133 C 
ATOM      9  H14 UNL     1      19.550   2.484  27.305  0.00  0.00    +0.151 HD
ENDROOT
BRANCH   8  10
ATOM     10  C12 UNL     1      16.864  -0.481  24.481  0.00  0.00    +0.100 A 
ATOM     11  N3  UNL     1      16.576   0.660  23.806  0.00  0.00    -0.242 NA
ATOM     12  C13 UNL     1      16.531   0.438  22.469  0.00  0.00    +0.079 A 
ATOM     13  C14 UNL     1      16.253   1.418  21.515  0.00  0.00    +0.029 A 
ATOM     14  C15 UNL     1      16.239   1.054  20.157  0.00  0.00    +0.002 A 
ATOM     15  C16 UNL     1      16.504  -0.275  19.770  0.00  0.00    +0.001 A 
ATOM     16  C17 UNL     1      16.784  -1.253  20.739  0.00  0.00    +0.017 A 
ATOM     17  C18 UNL     1      16.791  -0.867  22.077  0.00  0.00    +0.039 A 
ATOM     18  S1  UNL     1      17.090  -1.801  23.436  0.00  0.00    -0.070 S 
ENDBRANCH   8  10
BRANCH   1  19
ATOM     19  C5  UNL     1      21.435   1.964  26.356  0.00  0.00    +0.072 C 
ATOM     20  C6  UNL     1      21.571   3.151  25.394  0.00  0.00    +0.028 C 
BRANCH  19  21
ATOM     21  C4  UNL     1      22.250   2.155  27.663  0.00  0.00    +0.025 C 
BRANCH  21  23
ATOM     22  C1  UNL     1      22.379   1.790  30.212  0.00  0.00    +0.007 C 
ATOM     23  C2  UNL     1      21.925   1.220  28.861  0.00  0.00    -0.015 C 
ATOM     24  C3  UNL     1      22.416  -0.221  28.669  0.00  0.00    +0.007 C 
ENDBRANCH  21  23
ENDBRANCH  19  21
ENDBRANCH   1  19
TORSDOF 4
ENDMDL
MODEL 7
REMARK VINA RESULT:    -5.806     14.246     17.089
REMARK INTER + INTRA:          -7.844
REMARK INTER:                  -6.916
REMARK INTRA:                  -0.928
REMARK UNBOUND:                -0.681
REMARK  Name = /home/qwerty/github/datacon2025hack/step_04_hit_selection/docking/ligands/lig_253.pdb
REMARK  7 active torsions:
REMARK  status: ('A' for Active; 'I' for Inactive)
REMARK    1  A    between atoms: C1_1  and  C2_2
REMARK    2  A    between atoms: C2_2  and  C3_3
REMARK    3  A    between atoms: C2_2  and  C4_4
REMARK    4  A    between atoms: C4_4  and  C5_5
REMARK    5  A    between atoms: C5_5  and  C6_6
REMARK    6  A    between atoms: C5_5  and  N1_7
REMARK    7  A    between atoms: C11_14  and  C12_15
REMARK                            x       y       z     vdW  Elec       q    Type
REMARK                         _______ _______ _______ _____ _____    ______ ____
ROOT
ATOM      1  N1  UNL     1       8.308  11.941  27.644  0.00  0.00    -0.297 N 
ATOM      2  C7  UNL     1       9.259  11.048  27.040  0.00  0.00    +0.303 C 
ATOM      3  O1  UNL     1      10.428  11.453  26.791  0.00  0.00    -0.253 OA
ATOM      4  N2  UNL     1       8.896   9.693  26.710  0.00  0.00    -0.277 N 
ATOM      5  C8  UNL     1       7.586   9.116  26.968  0.00  0.00    +0.110 C 
ATOM      6  C9  UNL     1       7.632   7.707  26.388  0.00  0.00    +0.021 C 
ATOM      7  C10 UNL     1       9.111   7.389  26.178  0.00  0.00    +0.031 C 
ATOM      8  C11 UNL     1       9.822   8.741  26.114  0.00  0.00    +0.133 C 
ATOM      9  H14 UNL     1       7.366  11.576  27.908  0.00  0.00    +0.151 HD
ENDROOT
BRANCH   8  10
ATOM     10  C12 UNL     1      10.137   9.130  24.696  0.00  0.00    +0.100 A 
ATOM     11  N3  UNL     1       9.180   9.454  23.791  0.00  0.00    -0.242 NA
ATOM     12  C13 UNL     1       9.731   9.798  22.600  0.00  0.00    +0.079 A 
ATOM     13  C14 UNL     1       8.999  10.174  21.472  0.00  0.00    +0.029 A 
ATOM     14  C15 UNL     1       9.695  10.509  20.297  0.00  0.00    +0.002 A 
ATOM     15  C16 UNL     1      11.104  10.465  20.263  0.00  0.00    +0.001 A 
ATOM     16  C17 UNL     1      11.829  10.085  21.405  0.00  0.00    +0.017 A 
ATOM     17  C18 UNL     1      11.116   9.758  22.555  0.00  0.00    +0.039 A 
ATOM     18  S1  UNL     1      11.701   9.277  24.051  0.00  0.00    -0.070 S 
ENDBRANCH   8  10
BRANCH   1  19
ATOM     19  C5  UNL     1       8.610  13.358  27.887  0.00  0.00    +0.072 C 
ATOM     20  C6  UNL     1       7.490  14.218  27.286  0.00  0.00    +0.028 C 
BRANCH  19  21
ATOM     21  C4  UNL     1       8.791  13.589  29.410  0.00  0.00    +0.025 C 
BRANCH  21  23
ATOM     22  C1  UNL     1      11.292  14.094  29.033  0.00  0.00    +0.007 C 
ATOM     23  C2  UNL     1      10.234  13.520  29.985  0.00  0.00    -0.015 C 
ATOM     24  C3  UNL     1      10.631  12.125  30.487  0.00  0.00    +0.007 C 
ENDBRANCH  21  23
ENDBRANCH  19  21
ENDBRANCH   1  19
TORSDOF 4
ENDMDL
MODEL 8
REMARK VINA RESULT:    -5.691     13.731     15.975
REMARK INTER + INTRA:          -7.703
REMARK INTER:                  -7.047
REMARK INTRA:                  -0.655
REMARK UNBOUND:                -0.681
REMARK  Name = /home/qwerty/github/datacon2025hack/step_04_hit_selection/docking/ligands/lig_253.pdb
REMARK  7 active torsions:
REMARK  status: ('A' for Active; 'I' for Inactive)
REMARK    1  A    between atoms: C1_1  and  C2_2
REMARK    2  A    between atoms: C2_2  and  C3_3
REMARK    3  A    between atoms: C2_2  and  C4_4
REMARK    4  A    between atoms: C4_4  and  C5_5
REMARK    5  A    between atoms: C5_5  and  C6_6
REMARK    6  A    between atoms: C5_5  and  N1_7
REMARK    7  A    between atoms: C11_14  and  C12_15
REMARK                            x       y       z     vdW  Elec       q    Type
REMARK                         _______ _______ _______ _____ _____    ______ ____
ROOT
ATOM      1  N1  UNL     1      12.240   2.325  22.207  0.00  0.00    -0.297 N 
ATOM      2  C7  UNL     1      11.526   3.300  21.428  0.00  0.00    +0.303 C 
ATOM      3  O1  UNL     1      12.101   3.870  20.460  0.00  0.00    -0.253 OA
ATOM      4  N2  UNL     1      10.162   3.641  21.740  0.00  0.00    -0.277 N 
ATOM      5  C8  UNL     1       9.398   3.035  22.819  0.00  0.00    +0.110 C 
ATOM      6  C9  UNL     1       8.052   3.749  22.825  0.00  0.00    +0.021 C 
ATOM      7  C10 UNL     1       7.949   4.464  21.480  0.00  0.00    +0.031 C 
ATOM      8  C11 UNL     1       9.386   4.607  20.975  0.00  0.00    +0.133 C 
ATOM      9  H14 UNL     1      11.735   1.810  22.961  0.00  0.00    +0.151 HD
ENDROOT
BRANCH   8  10
ATOM     10  C12 UNL     1       9.910   5.999  21.199  0.00  0.00    +0.100 A 
ATOM     11  N3  UNL     1      10.254   6.828  20.183  0.00  0.00    -0.242 NA
ATOM     12  C13 UNL     1      10.664   8.033  20.653  0.00  0.00    +0.079 A 
ATOM     13  C14 UNL     1      11.087   9.091  19.848  0.00  0.00    +0.029 A 
ATOM     14  C15 UNL     1      11.485  10.291  20.464  0.00  0.00    +0.002 A 
ATOM     15  C16 UNL     1      11.455  10.418  21.868  0.00  0.00    +0.001 A 
ATOM     16  C17 UNL     1      11.027   9.345  22.668  0.00  0.00    +0.017 A 
ATOM     17  C18 UNL     1      10.638   8.169  22.032  0.00  0.00    +0.039 A 
ATOM     18  S1  UNL     1      10.086   6.741  22.717  0.00  0.00    -0.070 S 
ENDBRANCH   8  10
BRANCH   1  19
ATOM     19  C5  UNL     1      13.664   2.039  21.989  0.00  0.00    +0.072 C 
ATOM     20  C6  UNL     1      14.258   1.444  23.272  0.00  0.00    +0.028 C 
BRANCH  19  21
ATOM     21  C4  UNL     1      13.817   1.098  20.764  0.00  0.00    +0.025 C 
BRANCH  21  23
ATOM     22  C1  UNL     1      16.178   0.234  20.192  0.00  0.00    +0.007 C 
ATOM     23  C2  UNL     1      15.083   1.264  19.879  0.00  0.00    -0.015 C 
ATOM     24  C3  UNL     1      15.645   2.692  19.867  0.00  0.00    +0.007 C 
ENDBRANCH  21  23
ENDBRANCH  19  21
ENDBRANCH   1  19
TORSDOF 4
ENDMDL
MODEL 9
REMARK VINA RESULT:    -5.508     12.885     14.635
REMARK INTER + INTRA:          -7.478
REMARK INTER:                  -6.681
REMARK INTRA:                  -0.797
REMARK UNBOUND:                -0.681
REMARK  Name = /home/qwerty/github/datacon2025hack/step_04_hit_selection/docking/ligands/lig_253.pdb
REMARK  7 active torsions:
REMARK  status: ('A' for Active; 'I' for Inactive)
REMARK    1  A    between atoms: C1_1  and  C2_2
REMARK    2  A    between atoms: C2_2  and  C3_3
REMARK    3  A    between atoms: C2_2  and  C4_4
REMARK    4  A    between atoms: C4_4  and  C5_5
REMARK    5  A    between atoms: C5_5  and  C6_6
REMARK    6  A    between atoms: C5_5  and  N1_7
REMARK    7  A    between atoms: C11_14  and  C12_15
REMARK                            x       y       z     vdW  Elec       q    Type
REMARK                         _______ _______ _______ _____ _____    ______ ____
ROOT
ATOM      1  N1  UNL     1      20.334  12.644  19.298  0.00  0.00    -0.297 N 
ATOM      2  C7  UNL     1      21.613  12.890  19.909  0.00  0.00    +0.303 C 
ATOM      3  O1  UNL     1      22.085  12.056  20.729  0.00  0.00    -0.253 OA
ATOM      4  N2  UNL     1      22.363  14.081  19.600  0.00  0.00    -0.277 N 
ATOM      5  C8  UNL     1      21.923  15.098  18.658  0.00  0.00    +0.110 C 
ATOM      6  C9  UNL     1      22.980  16.196  18.711  0.00  0.00    +0.021 C 
ATOM      7  C10 UNL     1      24.198  15.573  19.389  0.00  0.00    +0.031 C 
ATOM      8  C11 UNL     1      23.668  14.373  20.175  0.00  0.00    +0.133 C 
ATOM      9  H14 UNL     1      19.984  13.306  18.570  0.00  0.00    +0.151 HD
ENDROOT
BRANCH   8  10
ATOM     10  C12 UNL     1      23.540  14.688  21.639  0.00  0.00    +0.100 A 
ATOM     11  N3  UNL     1      22.709  15.647  22.116  0.00  0.00    -0.242 NA
ATOM     12  C13 UNL     1      22.758  15.707  23.471  0.00  0.00    +0.079 A 
ATOM     13  C14 UNL     1      22.018  16.599  24.248  0.00  0.00    +0.029 A 
ATOM     14  C15 UNL     1      22.160  16.555  25.646  0.00  0.00    +0.002 A 
ATOM     15  C16 UNL     1      23.034  15.625  26.247  0.00  0.00    +0.001 A 
ATOM     16  C17 UNL     1      23.773  14.732  25.454  0.00  0.00    +0.017 A 
ATOM     17  C18 UNL     1      23.613  14.797  24.072  0.00  0.00    +0.039 A 
ATOM     18  S1  UNL     1      24.352  13.869  22.886  0.00  0.00    -0.070 S 
ENDBRANCH   8  10
BRANCH   1  19
ATOM     19  C5  UNL     1      19.493  11.501  19.677  0.00  0.00    +0.072 C 
ATOM     20  C6  UNL     1      18.018  11.906  19.566  0.00  0.00    +0.028 C 
BRANCH  19  21
ATOM     21  C4  UNL     1      19.849  10.284  18.782  0.00  0.00    +0.025 C 
BRANCH  21  23
ATOM     22  C1  UNL     1      19.050   7.856  19.118  0.00  0.00    +0.007 C 
ATOM     23  C2  UNL     1      20.096   8.919  19.482  0.00  0.00    -0.015 C 
ATOM     24  C3  UNL     1      20.274   9.029  21.002  0.00  0.00    +0.007 C 
ENDBRANCH  21  23
ENDBRANCH  19  21
ENDBRANCH   1  19
TORSDOF 4
ENDMDL
