MODEL 1
REMARK VINA RESULT:    -5.621      0.000      0.000
REMARK INTER + INTRA:          -8.067
REMARK INTER:                  -7.264
REMARK INTRA:                  -0.802
REMARK UNBOUND:                -0.802
REMARK  Name = /home/qwerty/github/datacon2025hack/step_04_hit_selection/docking/ligands/lig_683.pdb
REMARK  9 active torsions:
REMARK  status: ('A' for Active; 'I' for Inactive)
REMARK    1  A    between atoms: C1_1  and  C2_2
REMARK    2  A    between atoms: C6_8  and  C7_9
REMARK    3  A    between atoms: N2_11  and  C8_12
REMARK    4  A    between atoms: C8_12  and  C9_13
REMARK    5  A    between atoms: C9_13  and  C10_14
REMARK    6  A    between atoms: C9_13  and  N3_15
REMARK    7  A    between atoms: C11_16  and  C12_18
REMARK    8  A    between atoms: N4_21  and  C15_22
REMARK    9  A    between atoms: C16_23  and  C17_24
REMARK                            x       y       z     vdW  Elec       q    Type
REMARK                         _______ _______ _______ _____ _____    ______ ____
ROOT
ATOM      1  C8  UNL     1      15.247   0.249  19.310  0.00  0.00    +0.126 C 
ENDROOT
BRANCH   1   4
ATOM      2  C7  UNL     1      14.590   2.622  19.930  0.00  0.00    +0.234 C 
ATOM      3  O2  UNL     1      13.606   2.207  20.601  0.00  0.00    -0.274 OA
ATOM      4  N2  UNL     1      15.408   1.698  19.200  0.00  0.00    -0.312 N 
ATOM      5  H11 UNL     1      16.128   2.068  18.541  0.00  0.00    +0.149 HD
BRANCH   2  13
ATOM      6  C1  UNL     1      17.342   3.461  21.539  0.00  0.00    +0.109 C 
ATOM      7  C2  UNL     1      16.270   4.406  21.987  0.00  0.00    +0.213 C 
ATOM      8  O1  UNL     1      16.389   4.974  23.107  0.00  0.00    -0.276 OA
ATOM      9  N1  UNL     1      15.101   4.652  21.183  0.00  0.00    -0.290 N 
ATOM     10  C3  UNL     1      14.040   5.552  21.604  0.00  0.00    +0.108 C 
ATOM     11  C4  UNL     1      12.977   5.476  20.516  0.00  0.00    +0.021 C 
ATOM     12  C5  UNL     1      13.669   4.864  19.301  0.00  0.00    +0.033 C 
ATOM     13  C6  UNL     1      14.874   4.100  19.853  0.00  0.00    +0.162 C 
ENDBRANCH   2  13
ENDBRANCH   1   4
BRANCH   1  14
ATOM     14  C9  UNL     1      16.406  -0.381  20.107  0.00  0.00    +0.087 C 
ATOM     15  C10 UNL     1      17.231  -1.325  19.222  0.00  0.00    +0.029 C 
BRANCH  14  16
ATOM     16  N3  UNL     1      15.882  -1.121  21.260  0.00  0.00    -0.307 N 
ATOM     17  C11 UNL     1      15.745  -0.519  22.556  0.00  0.00    +0.246 C 
ATOM     18  O3  UNL     1      15.813   0.734  22.677  0.00  0.00    -0.270 OA
ATOM     19  H18 UNL     1      15.533  -2.097  21.126  0.00  0.00    +0.149 HD
BRANCH  17  20
ATOM     20  C12 UNL     1      15.480  -1.343  23.752  0.00  0.00    +0.057 A 
ATOM     21  C13 UNL     1      16.179  -2.488  24.095  0.00  0.00    +0.032 A 
ATOM     22  C14 UNL     1      15.623  -2.951  25.269  0.00  0.00    +0.086 A 
ATOM     23  N4  UNL     1      14.616  -2.143  25.654  0.00  0.00    -0.353 N 
ATOM     24  C15 UNL     1      13.766  -2.349  26.824  0.00  0.00    +0.148 C 
ATOM     25  C16 UNL     1      14.497  -1.172  24.721  0.00  0.00    +0.027 A 
ATOM     26  C17 UNL     1      13.439  -0.106  24.743  0.00  0.00    +0.064 C 
ENDBRANCH  17  20
ENDBRANCH  14  16
ENDBRANCH   1  14
TORSDOF 5
ENDMDL
MODEL 2
REMARK VINA RESULT:    -5.427      7.448     10.861
REMARK INTER + INTRA:          -7.815
REMARK INTER:                  -7.139
REMARK INTRA:                  -0.676
REMARK UNBOUND:                -0.802
REMARK  Name = /home/qwerty/github/datacon2025hack/step_04_hit_selection/docking/ligands/lig_683.pdb
REMARK  9 active torsions:
REMARK  status: ('A' for Active; 'I' for Inactive)
REMARK    1  A    between atoms: C1_1  and  C2_2
REMARK    2  A    between atoms: C6_8  and  C7_9
REMARK    3  A    between atoms: N2_11  and  C8_12
REMARK    4  A    between atoms: C8_12  and  C9_13
REMARK    5  A    between atoms: C9_13  and  C10_14
REMARK    6  A    between atoms: C9_13  and  N3_15
REMARK    7  A    between atoms: C11_16  and  C12_18
REMARK    8  A    between atoms: N4_21  and  C15_22
REMARK    9  A    between atoms: C16_23  and  C17_24
REMARK                            x       y       z     vdW  Elec       q    Type
REMARK                         _______ _______ _______ _____ _____    ______ ____
ROOT
ATOM      1  C8  UNL     1      10.797   8.028  22.682  0.00  0.00    +0.126 C 
ENDROOT
BRANCH   1   4
ATOM      2  C7  UNL     1      10.112   6.235  21.020  0.00  0.00    +0.234 C 
ATOM      3  O2  UNL     1      10.236   7.039  20.056  0.00  0.00    -0.274 OA
ATOM      4  N2  UNL     1      10.308   6.686  22.367  0.00  0.00    -0.312 N 
ATOM      5  H11 UNL     1      10.065   6.048  23.157  0.00  0.00    +0.149 HD
BRANCH   2  13
ATOM      6  C1  UNL     1       6.842   5.820  21.109  0.00  0.00    +0.109 C 
ATOM      7  C2  UNL     1       7.441   4.750  21.970  0.00  0.00    +0.213 C 
ATOM      8  O1  UNL     1       6.734   4.233  22.878  0.00  0.00    -0.276 OA
ATOM      9  N1  UNL     1       8.807   4.327  21.802  0.00  0.00    -0.290 N 
ATOM     10  C3  UNL     1       9.415   3.304  22.636  0.00  0.00    +0.108 C 
ATOM     11  C4  UNL     1      10.865   3.206  22.181  0.00  0.00    +0.021 C 
ATOM     12  C5  UNL     1      10.915   3.873  20.809  0.00  0.00    +0.033 C 
ATOM     13  C6  UNL     1       9.705   4.807  20.758  0.00  0.00    +0.162 C 
ENDBRANCH   2  13
ENDBRANCH   1   4
BRANCH   1  14
ATOM     14  C9  UNL     1       9.628   9.002  22.932  0.00  0.00    +0.087 C 
ATOM     15  C10 UNL     1       9.963  10.404  22.408  0.00  0.00    +0.029 C 
BRANCH  14  16
ATOM     16  N3  UNL     1       9.328   9.071  24.366  0.00  0.00    -0.307 N 
ATOM     17  C11 UNL     1       8.134   9.693  24.867  0.00  0.00    +0.246 C 
ATOM     18  O3  UNL     1       7.183   9.952  24.081  0.00  0.00    -0.270 OA
ATOM     19  H18 UNL     1       9.964   8.598  25.045  0.00  0.00    +0.149 HD
BRANCH  17  20
ATOM     20  C12 UNL     1       7.981   9.995  26.303  0.00  0.00    +0.057 A 
ATOM     21  C13 UNL     1       8.353  11.185  26.906  0.00  0.00    +0.032 A 
ATOM     22  C14 UNL     1       8.045  11.062  28.244  0.00  0.00    +0.086 A 
ATOM     23  N4  UNL     1       7.506   9.851  28.485  0.00  0.00    -0.353 N 
ATOM     24  C15 UNL     1       7.103   9.349  29.796  0.00  0.00    +0.148 C 
ATOM     25  C16 UNL     1       7.487   9.176  27.313  0.00  0.00    +0.027 A 
ATOM     26  C17 UNL     1       7.026   7.754  27.166  0.00  0.00    +0.064 C 
ENDBRANCH  17  20
ENDBRANCH  14  16
ENDBRANCH   1  14
TORSDOF 5
ENDMDL
MODEL 3
REMARK VINA RESULT:    -5.426     15.946     17.840
REMARK INTER + INTRA:          -7.815
REMARK INTER:                  -7.074
REMARK INTRA:                  -0.740
REMARK UNBOUND:                -0.802
REMARK  Name = /home/qwerty/github/datacon2025hack/step_04_hit_selection/docking/ligands/lig_683.pdb
REMARK  9 active torsions:
REMARK  status: ('A' for Active; 'I' for Inactive)
REMARK    1  A    between atoms: C1_1  and  C2_2
REMARK    2  A    between atoms: C6_8  and  C7_9
REMARK    3  A    between atoms: N2_11  and  C8_12
REMARK    4  A    between atoms: C8_12  and  C9_13
REMARK    5  A    between atoms: C9_13  and  C10_14
REMARK    6  A    between atoms: C9_13  and  N3_15
REMARK    7  A    between atoms: C11_16  and  C12_18
REMARK    8  A    between atoms: N4_21  and  C15_22
REMARK    9  A    between atoms: C16_23  and  C17_24
REMARK                            x       y       z     vdW  Elec       q    Type
REMARK                         _______ _______ _______ _____ _____    ______ ____
ROOT
ATOM      1  C8  UNL     1      18.905  12.172  36.451  0.00  0.00    +0.126 C 
ENDROOT
BRANCH   1   4
ATOM      2  C7  UNL     1      16.594  13.200  36.230  0.00  0.00    +0.234 C 
ATOM      3  O2  UNL     1      16.667  13.167  34.970  0.00  0.00    -0.274 OA
ATOM      4  N2  UNL     1      17.709  12.783  37.029  0.00  0.00    -0.312 N 
ATOM      5  H11 UNL     1      17.685  12.948  38.060  0.00  0.00    +0.149 HD
BRANCH   2  13
ATOM      6  C1  UNL     1      14.377  10.830  36.813  0.00  0.00    +0.109 C 
ATOM      7  C2  UNL     1      13.647  11.955  36.146  0.00  0.00    +0.213 C 
ATOM      8  O1  UNL     1      12.577  11.703  35.526  0.00  0.00    -0.276 OA
ATOM      9  N1  UNL     1      14.157  13.302  36.170  0.00  0.00    -0.290 N 
ATOM     10  C3  UNL     1      13.475  14.406  35.516  0.00  0.00    +0.108 C 
ATOM     11  C4  UNL     1      14.367  15.624  35.722  0.00  0.00    +0.021 C 
ATOM     12  C5  UNL     1      15.314  15.256  36.862  0.00  0.00    +0.033 C 
ATOM     13  C6  UNL     1      15.349  13.728  36.895  0.00  0.00    +0.162 C 
ENDBRANCH   2  13
ENDBRANCH   1   4
BRANCH   1  14
ATOM     14  C9  UNL     1      18.841  10.634  36.537  0.00  0.00    +0.087 C 
ATOM     15  C10 UNL     1      18.412  10.182  37.939  0.00  0.00    +0.029 C 
BRANCH  14  16
ATOM     16  N3  UNL     1      20.150  10.057  36.213  0.00  0.00    -0.307 N 
ATOM     17  C11 UNL     1      20.283   8.830  35.479  0.00  0.00    +0.246 C 
ATOM     18  O3  UNL     1      19.292   8.360  34.857  0.00  0.00    -0.270 OA
ATOM     19  H18 UNL     1      21.017  10.582  36.464  0.00  0.00    +0.149 HD
BRANCH  17  20
ATOM     20  C12 UNL     1      21.578   8.128  35.401  0.00  0.00    +0.057 A 
ATOM     21  C13 UNL     1      22.138   7.383  36.424  0.00  0.00    +0.032 A 
ATOM     22  C14 UNL     1      23.340   6.901  35.950  0.00  0.00    +0.086 A 
ATOM     23  N4  UNL     1      23.539   7.322  34.686  0.00  0.00    -0.353 N 
ATOM     24  C15 UNL     1      24.727   7.048  33.881  0.00  0.00    +0.148 C 
ATOM     25  C16 UNL     1      22.485   8.097  34.346  0.00  0.00    +0.027 A 
ATOM     26  C17 UNL     1      22.358   8.821  33.036  0.00  0.00    +0.064 C 
ENDBRANCH  17  20
ENDBRANCH  14  16
ENDBRANCH   1  14
TORSDOF 5
ENDMDL
MODEL 4
REMARK VINA RESULT:    -5.419      4.631      9.139
REMARK INTER + INTRA:          -7.806
REMARK INTER:                  -6.796
REMARK INTRA:                  -1.010
REMARK UNBOUND:                -0.802
REMARK  Name = /home/qwerty/github/datacon2025hack/step_04_hit_selection/docking/ligands/lig_683.pdb
REMARK  9 active torsions:
REMARK  status: ('A' for Active; 'I' for Inactive)
REMARK    1  A    between atoms: C1_1  and  C2_2
REMARK    2  A    between atoms: C6_8  and  C7_9
REMARK    3  A    between atoms: N2_11  and  C8_12
REMARK    4  A    between atoms: C8_12  and  C9_13
REMARK    5  A    between atoms: C9_13  and  C10_14
REMARK    6  A    between atoms: C9_13  and  N3_15
REMARK    7  A    between atoms: C11_16  and  C12_18
REMARK    8  A    between atoms: N4_21  and  C15_22
REMARK    9  A    between atoms: C16_23  and  C17_24
REMARK                            x       y       z     vdW  Elec       q    Type
REMARK                         _______ _______ _______ _____ _____    ______ ____
ROOT
ATOM      1  C8  UNL     1       9.797   4.015  23.598  0.00  0.00    +0.126 C 
ENDROOT
BRANCH   1   4
ATOM      2  C7  UNL     1      11.648   3.856  21.867  0.00  0.00    +0.234 C 
ATOM      3  O2  UNL     1      12.412   4.569  22.574  0.00  0.00    -0.274 OA
ATOM      4  N2  UNL     1      10.301   3.602  22.289  0.00  0.00    -0.312 N 
ATOM      5  H11 UNL     1       9.642   3.132  21.629  0.00  0.00    +0.149 HD
BRANCH   2  13
ATOM      6  C1  UNL     1      12.482   0.671  22.047  0.00  0.00    +0.109 C 
ATOM      7  C2  UNL     1      13.615   1.381  21.372  0.00  0.00    +0.213 C 
ATOM      8  O1  UNL     1      14.766   0.866  21.414  0.00  0.00    -0.276 OA
ATOM      9  N1  UNL     1      13.423   2.646  20.710  0.00  0.00    -0.290 N 
ATOM     10  C3  UNL     1      14.510   3.361  20.064  0.00  0.00    +0.108 C 
ATOM     11  C4  UNL     1      13.904   4.663  19.555  0.00  0.00    +0.021 C 
ATOM     12  C5  UNL     1      12.394   4.444  19.551  0.00  0.00    +0.033 C 
ATOM     13  C6  UNL     1      12.136   3.314  20.548  0.00  0.00    +0.162 C 
ENDBRANCH   2  13
ENDBRANCH   1   4
BRANCH   1  14
ATOM     14  C9  UNL     1       8.565   4.931  23.457  0.00  0.00    +0.087 C 
ATOM     15  C10 UNL     1       7.356   4.146  22.932  0.00  0.00    +0.029 C 
BRANCH  14  16
ATOM     16  N3  UNL     1       8.864   6.041  22.546  0.00  0.00    -0.307 N 
ATOM     17  C11 UNL     1       9.187   7.356  23.025  0.00  0.00    +0.246 C 
ATOM     18  O3  UNL     1       9.491   7.527  24.236  0.00  0.00    -0.270 OA
ATOM     19  H18 UNL     1       8.911   5.861  21.518  0.00  0.00    +0.149 HD
BRANCH  17  20
ATOM     20  C12 UNL     1       9.214   8.512  22.108  0.00  0.00    +0.057 A 
ATOM     21  C13 UNL     1       8.255   9.509  22.063  0.00  0.00    +0.032 A 
ATOM     22  C14 UNL     1       8.650  10.392  21.080  0.00  0.00    +0.086 A 
ATOM     23  N4  UNL     1       9.803   9.976  20.521  0.00  0.00    -0.353 N 
ATOM     24  C15 UNL     1      10.492  10.633  19.414  0.00  0.00    +0.148 C 
ATOM     25  C16 UNL     1      10.146   8.813  21.120  0.00  0.00    +0.027 A 
ATOM     26  C17 UNL     1      11.337   7.984  20.732  0.00  0.00    +0.064 C 
ENDBRANCH  17  20
ENDBRANCH  14  16
ENDBRANCH   1  14
TORSDOF 5
ENDMDL
MODEL 5
REMARK VINA RESULT:    -5.389     14.925     17.281
REMARK INTER + INTRA:          -7.766
REMARK INTER:                  -6.613
REMARK INTRA:                  -1.154
REMARK UNBOUND:                -0.802
REMARK  Name = /home/qwerty/github/datacon2025hack/step_04_hit_selection/docking/ligands/lig_683.pdb
REMARK  9 active torsions:
REMARK  status: ('A' for Active; 'I' for Inactive)
REMARK    1  A    between atoms: C1_1  and  C2_2
REMARK    2  A    between atoms: C6_8  and  C7_9
REMARK    3  A    between atoms: N2_11  and  C8_12
REMARK    4  A    between atoms: C8_12  and  C9_13
REMARK    5  A    between atoms: C9_13  and  C10_14
REMARK    6  A    between atoms: C9_13  and  N3_15
REMARK    7  A    between atoms: C11_16  and  C12_18
REMARK    8  A    between atoms: N4_21  and  C15_22
REMARK    9  A    between atoms: C16_23  and  C17_24
REMARK                            x       y       z     vdW  Elec       q    Type
REMARK                         _______ _______ _______ _____ _____    ______ ____
ROOT
ATOM      1  C8  UNL     1      21.874   7.305  37.638  0.00  0.00    +0.126 C 
ENDROOT
BRANCH   1   4
ATOM      2  C7  UNL     1      22.777   7.109  35.273  0.00  0.00    +0.234 C 
ATOM      3  O2  UNL     1      22.492   5.881  35.233  0.00  0.00    -0.274 OA
ATOM      4  N2  UNL     1      22.560   7.863  36.473  0.00  0.00    -0.312 N 
ATOM      5  H11 UNL     1      22.929   8.838  36.535  0.00  0.00    +0.149 HD
BRANCH   2  13
ATOM      6  C1  UNL     1      20.620   8.963  33.606  0.00  0.00    +0.109 C 
ATOM      7  C2  UNL     1      21.314   8.094  32.603  0.00  0.00    +0.213 C 
ATOM      8  O1  UNL     1      20.735   7.844  31.511  0.00  0.00    -0.276 OA
ATOM      9  N1  UNL     1      22.606   7.517  32.874  0.00  0.00    -0.290 N 
ATOM     10  C3  UNL     1      23.291   6.657  31.923  0.00  0.00    +0.108 C 
ATOM     11  C4  UNL     1      24.573   6.214  32.615  0.00  0.00    +0.021 C 
ATOM     12  C5  UNL     1      24.779   7.189  33.772  0.00  0.00    +0.033 C 
ATOM     13  C6  UNL     1      23.398   7.774  34.071  0.00  0.00    +0.162 C 
ENDBRANCH   2  13
ENDBRANCH   1   4
BRANCH   1  14
ATOM     14  C9  UNL     1      20.396   7.742  37.676  0.00  0.00    +0.087 C 
ATOM     15  C10 UNL     1      19.495   6.685  37.022  0.00  0.00    +0.029 C 
BRANCH  14  16
ATOM     16  N3  UNL     1      20.232   9.025  36.984  0.00  0.00    -0.307 N 
ATOM     17  C11 UNL     1      19.121   9.897  37.246  0.00  0.00    +0.246 C 
ATOM     18  O3  UNL     1      18.407   9.715  38.269  0.00  0.00    -0.270 OA
ATOM     19  H18 UNL     1      20.975   9.350  36.328  0.00  0.00    +0.149 HD
BRANCH  17  20
ATOM     20  C12 UNL     1      18.826  11.037  36.357  0.00  0.00    +0.057 A 
ATOM     21  C13 UNL     1      19.547  12.218  36.319  0.00  0.00    +0.032 A 
ATOM     22  C14 UNL     1      18.950  13.014  35.365  0.00  0.00    +0.086 A 
ATOM     23  N4  UNL     1      17.896  12.374  34.823  0.00  0.00    -0.353 N 
ATOM     24  C15 UNL     1      16.996  12.928  33.815  0.00  0.00    +0.148 C 
ATOM     25  C16 UNL     1      17.789  11.176  35.440  0.00  0.00    +0.027 A 
ATOM     26  C17 UNL     1      16.693  10.184  35.173  0.00  0.00    +0.064 C 
ENDBRANCH  17  20
ENDBRANCH  14  16
ENDBRANCH   1  14
TORSDOF 5
ENDMDL
MODEL 6
REMARK VINA RESULT:    -5.347      8.153      9.645
REMARK INTER + INTRA:          -7.712
REMARK INTER:                  -6.981
REMARK INTRA:                  -0.732
REMARK UNBOUND:                -0.802
REMARK  Name = /home/qwerty/github/datacon2025hack/step_04_hit_selection/docking/ligands/lig_683.pdb
REMARK  9 active torsions:
REMARK  status: ('A' for Active; 'I' for Inactive)
REMARK    1  A    between atoms: C1_1  and  C2_2
REMARK    2  A    between atoms: C6_8  and  C7_9
REMARK    3  A    between atoms: N2_11  and  C8_12
REMARK    4  A    between atoms: C8_12  and  C9_13
REMARK    5  A    between atoms: C9_13  and  C10_14
REMARK    6  A    between atoms: C9_13  and  N3_15
REMARK    7  A    between atoms: C11_16  and  C12_18
REMARK    8  A    between atoms: N4_21  and  C15_22
REMARK    9  A    between atoms: C16_23  and  C17_24
REMARK                            x       y       z     vdW  Elec       q    Type
REMARK                         _______ _______ _______ _____ _____    ______ ____
ROOT
ATOM      1  C8  UNL     1      21.871   0.749  27.708  0.00  0.00    +0.126 C 
ENDROOT
BRANCH   1   4
ATOM      2  C7  UNL     1      21.775   2.987  26.512  0.00  0.00    +0.234 C 
ATOM      3  O2  UNL     1      21.158   2.474  25.538  0.00  0.00    -0.274 OA
ATOM      4  N2  UNL     1      22.224   2.164  27.597  0.00  0.00    -0.312 N 
ATOM      5  H11 UNL     1      22.852   2.577  28.321  0.00  0.00    +0.149 HD
BRANCH   2  13
ATOM      6  C1  UNL     1      19.731   4.710  28.441  0.00  0.00    +0.109 C 
ATOM      7  C2  UNL     1      19.781   5.414  27.120  0.00  0.00    +0.213 C 
ATOM      8  O1  UNL     1      18.813   6.152  26.787  0.00  0.00    -0.276 OA
ATOM      9  N1  UNL     1      20.890   5.241  26.217  0.00  0.00    -0.290 N 
ATOM     10  C3  UNL     1      20.952   5.900  24.923  0.00  0.00    +0.108 C 
ATOM     11  C4  UNL     1      22.234   5.404  24.268  0.00  0.00    +0.021 C 
ATOM     12  C5  UNL     1      23.075   4.812  25.396  0.00  0.00    +0.033 C 
ATOM     13  C6  UNL     1      22.087   4.461  26.509  0.00  0.00    +0.162 C 
ENDBRANCH   2  13
ENDBRANCH   1   4
BRANCH   1  14
ATOM     14  C9  UNL     1      22.304   0.172  29.070  0.00  0.00    +0.087 C 
ATOM     15  C10 UNL     1      22.829  -1.261  28.917  0.00  0.00    +0.029 C 
BRANCH  14  16
ATOM     16  N3  UNL     1      21.173   0.185  30.005  0.00  0.00    -0.307 N 
ATOM     17  C11 UNL     1      20.922   1.292  30.885  0.00  0.00    +0.246 C 
ATOM     18  O3  UNL     1      21.500   2.395  30.687  0.00  0.00    -0.270 OA
ATOM     19  H18 UNL     1      20.488  -0.603  29.989  0.00  0.00    +0.149 HD
BRANCH  17  20
ATOM     20  C12 UNL     1      19.959   1.175  31.996  0.00  0.00    +0.057 A 
ATOM     21  C13 UNL     1      18.815   0.396  31.973  0.00  0.00    +0.032 A 
ATOM     22  C14 UNL     1      18.198   0.565  33.195  0.00  0.00    +0.086 A 
ATOM     23  N4  UNL     1      18.912   1.414  33.959  0.00  0.00    -0.353 N 
ATOM     24  C15 UNL     1      18.539   1.866  35.297  0.00  0.00    +0.148 C 
ATOM     25  C16 UNL     1      19.976   1.818  33.230  0.00  0.00    +0.027 A 
ATOM     26  C17 UNL     1      20.985   2.828  33.697  0.00  0.00    +0.064 C 
ENDBRANCH  17  20
ENDBRANCH  14  16
ENDBRANCH   1  14
TORSDOF 5
ENDMDL
MODEL 7
REMARK VINA RESULT:    -5.313      9.539     13.129
REMARK INTER + INTRA:          -7.668
REMARK INTER:                  -6.596
REMARK INTRA:                  -1.072
REMARK UNBOUND:                -0.802
REMARK  Name = /home/qwerty/github/datacon2025hack/step_04_hit_selection/docking/ligands/lig_683.pdb
REMARK  9 active torsions:
REMARK  status: ('A' for Active; 'I' for Inactive)
REMARK    1  A    between atoms: C1_1  and  C2_2
REMARK    2  A    between atoms: C6_8  and  C7_9
REMARK    3  A    between atoms: N2_11  and  C8_12
REMARK    4  A    between atoms: C8_12  and  C9_13
REMARK    5  A    between atoms: C9_13  and  C10_14
REMARK    6  A    between atoms: C9_13  and  N3_15
REMARK    7  A    between atoms: C11_16  and  C12_18
REMARK    8  A    between atoms: N4_21  and  C15_22
REMARK    9  A    between atoms: C16_23  and  C17_24
REMARK                            x       y       z     vdW  Elec       q    Type
REMARK                         _______ _______ _______ _____ _____    ______ ____
ROOT
ATOM      1  C8  UNL     1      23.243   8.891  20.029  0.00  0.00    +0.126 C 
ENDROOT
BRANCH   1   4
ATOM      2  C7  UNL     1      20.735   8.960  19.639  0.00  0.00    +0.234 C 
ATOM      3  O2  UNL     1      20.510   8.868  20.877  0.00  0.00    -0.274 OA
ATOM      4  N2  UNL     1      22.079   8.904  19.144  0.00  0.00    -0.312 N 
ATOM      5  H11 UNL     1      22.238   8.839  18.114  0.00  0.00    +0.149 HD
BRANCH   2  13
ATOM      6  C1  UNL     1      20.061  12.090  18.853  0.00  0.00    +0.109 C 
ATOM      7  C2  UNL     1      18.762  11.445  19.229  0.00  0.00    +0.213 C 
ATOM      8  O1  UNL     1      17.815  12.176  19.631  0.00  0.00    -0.276 OA
ATOM      9  N1  UNL     1      18.587  10.017  19.171  0.00  0.00    -0.290 N 
ATOM     10  C3  UNL     1      17.342   9.368  19.548  0.00  0.00    +0.108 C 
ATOM     11  C4  UNL     1      17.596   7.873  19.408  0.00  0.00    +0.021 C 
ATOM     12  C5  UNL     1      18.844   7.744  18.539  0.00  0.00    +0.033 C 
ATOM     13  C6  UNL     1      19.583   9.075  18.674  0.00  0.00    +0.162 C 
ENDBRANCH   2  13
ENDBRANCH   1   4
BRANCH   1  14
ATOM     14  C9  UNL     1      24.016  10.223  19.952  0.00  0.00    +0.087 C 
ATOM     15  C10 UNL     1      25.529   9.984  20.039  0.00  0.00    +0.029 C 
BRANCH  14  16
ATOM     16  N3  UNL     1      23.595  11.112  21.039  0.00  0.00    -0.307 N 
ATOM     17  C11 UNL     1      23.553  12.540  20.885  0.00  0.00    +0.246 C 
ATOM     18  O3  UNL     1      23.612  13.049  19.734  0.00  0.00    -0.270 OA
ATOM     19  H18 UNL     1      23.250  10.699  21.934  0.00  0.00    +0.149 HD
BRANCH  17  20
ATOM     20  C12 UNL     1      23.395  13.425  22.055  0.00  0.00    +0.057 A 
ATOM     21  C13 UNL     1      24.408  13.759  22.937  0.00  0.00    +0.032 A 
ATOM     22  C14 UNL     1      23.850  14.598  23.879  0.00  0.00    +0.086 A 
ATOM     23  N4  UNL     1      22.543  14.787  23.612  0.00  0.00    -0.353 N 
ATOM     24  C15 UNL     1      21.620  15.577  24.423  0.00  0.00    +0.148 C 
ATOM     25  C16 UNL     1      22.243  14.053  22.517  0.00  0.00    +0.027 A 
ATOM     26  C17 UNL     1      20.864  13.933  21.934  0.00  0.00    +0.064 C 
ENDBRANCH  17  20
ENDBRANCH  14  16
ENDBRANCH   1  14
TORSDOF 5
ENDMDL
MODEL 8
REMARK VINA RESULT:    -5.282     15.813     17.539
REMARK INTER + INTRA:          -7.628
REMARK INTER:                  -7.057
REMARK INTRA:                  -0.571
REMARK UNBOUND:                -0.802
REMARK  Name = /home/qwerty/github/datacon2025hack/step_04_hit_selection/docking/ligands/lig_683.pdb
REMARK  9 active torsions:
REMARK  status: ('A' for Active; 'I' for Inactive)
REMARK    1  A    between atoms: C1_1  and  C2_2
REMARK    2  A    between atoms: C6_8  and  C7_9
REMARK    3  A    between atoms: N2_11  and  C8_12
REMARK    4  A    between atoms: C8_12  and  C9_13
REMARK    5  A    between atoms: C9_13  and  C10_14
REMARK    6  A    between atoms: C9_13  and  N3_15
REMARK    7  A    between atoms: C11_16  and  C12_18
REMARK    8  A    between atoms: N4_21  and  C15_22
REMARK    9  A    between atoms: C16_23  and  C17_24
REMARK                            x       y       z     vdW  Elec       q    Type
REMARK                         _______ _______ _______ _____ _____    ______ ____
ROOT
ATOM      1  C8  UNL     1      15.799   9.090  36.729  0.00  0.00    +0.126 C 
ENDROOT
BRANCH   1   4
ATOM      2  C7  UNL     1      14.592  11.300  36.405  0.00  0.00    +0.234 C 
ATOM      3  O2  UNL     1      14.321  11.011  35.208  0.00  0.00    -0.274 OA
ATOM      4  N2  UNL     1      15.391  10.413  37.199  0.00  0.00    -0.312 N 
ATOM      5  H11 UNL     1      15.723  10.730  38.137  0.00  0.00    +0.149 HD
BRANCH   2  13
ATOM      6  C1  UNL     1      11.488  11.137  37.505  0.00  0.00    +0.109 C 
ATOM      7  C2  UNL     1      11.583  12.362  36.649  0.00  0.00    +0.213 C 
ATOM      8  O1  UNL     1      10.532  12.818  36.121  0.00  0.00    -0.276 OA
ATOM      9  N1  UNL     1      12.847  13.005  36.394  0.00  0.00    -0.290 N 
ATOM     10  C3  UNL     1      12.966  14.184  35.553  0.00  0.00    +0.108 C 
ATOM     11  C4  UNL     1      14.455  14.499  35.491  0.00  0.00    +0.021 C 
ATOM     12  C5  UNL     1      15.088  13.741  36.654  0.00  0.00    +0.033 C 
ATOM     13  C6  UNL     1      14.118  12.607  36.987  0.00  0.00    +0.162 C 
ENDBRANCH   2  13
ENDBRANCH   1   4
BRANCH   1  14
ATOM     14  C9  UNL     1      17.001   8.558  37.534  0.00  0.00    +0.087 C 
ATOM     15  C10 UNL     1      17.578   9.652  38.442  0.00  0.00    +0.029 C 
BRANCH  14  16
ATOM     16  N3  UNL     1      18.043   8.074  36.623  0.00  0.00    -0.307 N 
ATOM     17  C11 UNL     1      18.902   6.974  36.961  0.00  0.00    +0.246 C 
ATOM     18  O3  UNL     1      18.607   6.220  37.928  0.00  0.00    -0.270 OA
ATOM     19  H18 UNL     1      18.126   8.495  35.671  0.00  0.00    +0.149 HD
BRANCH  17  20
ATOM     20  C12 UNL     1      20.109   6.680  36.164  0.00  0.00    +0.057 A 
ATOM     21  C13 UNL     1      20.102   6.255  34.847  0.00  0.00    +0.032 A 
ATOM     22  C14 UNL     1      21.422   6.095  34.478  0.00  0.00    +0.086 A 
ATOM     23  N4  UNL     1      22.230   6.399  35.511  0.00  0.00    -0.353 N 
ATOM     24  C15 UNL     1      23.687   6.298  35.504  0.00  0.00    +0.148 C 
ATOM     25  C16 UNL     1      21.442   6.730  36.559  0.00  0.00    +0.027 A 
ATOM     26  C17 UNL     1      21.956   7.067  37.929  0.00  0.00    +0.064 C 
ENDBRANCH  17  20
ENDBRANCH  14  16
ENDBRANCH   1  14
TORSDOF 5
ENDMDL
MODEL 9
REMARK VINA RESULT:    -5.263     15.059     18.157
REMARK INTER + INTRA:          -7.604
REMARK INTER:                  -6.460
REMARK INTRA:                  -1.144
REMARK UNBOUND:                -0.802
REMARK  Name = /home/qwerty/github/datacon2025hack/step_04_hit_selection/docking/ligands/lig_683.pdb
REMARK  9 active torsions:
REMARK  status: ('A' for Active; 'I' for Inactive)
REMARK    1  A    between atoms: C1_1  and  C2_2
REMARK    2  A    between atoms: C6_8  and  C7_9
REMARK    3  A    between atoms: N2_11  and  C8_12
REMARK    4  A    between atoms: C8_12  and  C9_13
REMARK    5  A    between atoms: C9_13  and  C10_14
REMARK    6  A    between atoms: C9_13  and  N3_15
REMARK    7  A    between atoms: C11_16  and  C12_18
REMARK    8  A    between atoms: N4_21  and  C15_22
REMARK    9  A    between atoms: C16_23  and  C17_24
REMARK                            x       y       z     vdW  Elec       q    Type
REMARK                         _______ _______ _______ _____ _____    ______ ____
ROOT
ATOM      1  C8  UNL     1      11.860  12.197  36.649  0.00  0.00    +0.126 C 
ENDROOT
BRANCH   1   4
ATOM      2  C7  UNL     1      14.373  11.895  36.446  0.00  0.00    +0.234 C 
ATOM      3  O2  UNL     1      14.247  11.353  35.314  0.00  0.00    -0.274 OA
ATOM      4  N2  UNL     1      13.213  12.275  37.198  0.00  0.00    -0.312 N 
ATOM      5  H11 UNL     1      13.329  12.591  38.186  0.00  0.00    +0.149 HD
BRANCH   2  13
ATOM      6  C1  UNL     1      15.540  14.931  35.904  0.00  0.00    +0.109 C 
ATOM      7  C2  UNL     1      16.620  13.972  35.508  0.00  0.00    +0.213 C 
ATOM      8  O1  UNL     1      17.492  14.348  34.677  0.00  0.00    -0.276 OA
ATOM      9  N1  UNL     1      16.662  12.630  36.029  0.00  0.00    -0.290 N 
ATOM     10  C3  UNL     1      17.690  11.676  35.646  0.00  0.00    +0.108 C 
ATOM     11  C4  UNL     1      17.336  10.378  36.359  0.00  0.00    +0.021 C 
ATOM     12  C5  UNL     1      16.360  10.765  37.467  0.00  0.00    +0.033 C 
ATOM     13  C6  UNL     1      15.747  12.097  37.031  0.00  0.00    +0.162 C 
ENDBRANCH   2  13
ENDBRANCH   1   4
BRANCH   1  14
ATOM     14  C9  UNL     1      11.557  13.407  35.742  0.00  0.00    +0.087 C 
ATOM     15  C10 UNL     1      10.157  13.967  36.026  0.00  0.00    +0.029 C 
BRANCH  14  16
ATOM     16  N3  UNL     1      11.654  13.016  34.332  0.00  0.00    -0.307 N 
ATOM     17  C11 UNL     1      12.235  13.876  33.339  0.00  0.00    +0.246 C 
ATOM     18  O3  UNL     1      12.922  14.871  33.695  0.00  0.00    -0.270 OA
ATOM     19  H18 UNL     1      11.354  12.058  34.045  0.00  0.00    +0.149 HD
BRANCH  17  20
ATOM     20  C12 UNL     1      12.078  13.589  31.900  0.00  0.00    +0.057 A 
ATOM     21  C13 UNL     1      10.896  13.719  31.192  0.00  0.00    +0.032 A 
ATOM     22  C14 UNL     1      11.175  13.356  29.891  0.00  0.00    +0.086 A 
ATOM     23  N4  UNL     1      12.471  13.007  29.776  0.00  0.00    -0.353 N 
ATOM     24  C15 UNL     1      13.111  12.520  28.557  0.00  0.00    +0.148 C 
ATOM     25  C16 UNL     1      13.030  13.117  31.002  0.00  0.00    +0.027 A 
ATOM     26  C17 UNL     1      14.451  12.748  31.318  0.00  0.00    +0.064 C 
ENDBRANCH  17  20
ENDBRANCH  14  16
ENDBRANCH   1  14
TORSDOF 5
ENDMDL
