MODEL 1
REMARK VINA RESULT:    -6.602      0.000      0.000
REMARK INTER + INTRA:          -9.744
REMARK INTER:                  -8.532
REMARK INTRA:                  -1.212
REMARK UNBOUND:                -1.212
REMARK  Name = /home/qwerty/github/datacon2025hack/step_04_hit_selection/docking/ligands/lig_736.pdb
REMARK  8 active torsions:
REMARK  status: ('A' for Active; 'I' for Inactive)
REMARK    1  A    between atoms: C1_1  and  C2_2
REMARK    2  A    between atoms: C2_2  and  C3_3
REMARK    3  A    between atoms: C2_2  and  C4_4
REMARK    4  A    between atoms: C2_2  and  C5_5
REMARK    5  A    between atoms: C9_14  and  C10_15
REMARK    6  A    between atoms: C13_18  and  C14_19
REMARK    7  A    between atoms: N6_23  and  C17_24
REMARK    8  A    between atoms: C17_24  and  C18_25
REMARK                            x       y       z     vdW  Elec       q    Type
REMARK                         _______ _______ _______ _____ _____    ______ ____
ROOT
ATOM      1  C5  UNL     1      12.796  13.572  35.476  0.00  0.00    +0.221 C 
ATOM      2  O1  UNL     1      13.283  14.702  35.758  0.00  0.00    -0.275 OA
ATOM      3  N1  UNL     1      13.639  12.414  35.589  0.00  0.00    -0.298 N 
ATOM      4  C6  UNL     1      14.203  12.071  36.898  0.00  0.00    +0.127 C 
ATOM      5  C7  UNL     1      15.731  12.106  36.824  0.00  0.00    +0.127 C 
ATOM      6  N2  UNL     1      16.224  11.361  35.657  0.00  0.00    -0.297 N 
ATOM      7  C8  UNL     1      17.642  11.223  35.476  0.00  0.00    +0.220 A 
ATOM      8  N3  UNL     1      18.501  12.249  35.629  0.00  0.00    -0.113 NA
ATOM      9  N4  UNL     1      19.718  11.754  35.470  0.00  0.00    -0.128 NA
ATOM     10  C9  UNL     1      19.584  10.435  35.227  0.00  0.00    +0.165 A 
ATOM     11  N6  UNL     1      18.284  10.057  35.230  0.00  0.00    -0.295 N 
ATOM     12  C24 UNL     1      15.285  10.782  34.688  0.00  0.00    +0.127 C 
ATOM     13  C25 UNL     1      14.162  11.779  34.372  0.00  0.00    +0.127 C 
ENDROOT
BRANCH  10  14
ATOM     14  C10 UNL     1      20.742   9.541  35.033  0.00  0.00    +0.019 A 
ATOM     15  C11 UNL     1      21.365   8.928  36.132  0.00  0.00    +0.013 A 
ATOM     16  C12 UNL     1      22.460   8.079  35.939  0.00  0.00    +0.019 A 
ATOM     17  C13 UNL     1      22.929   7.822  34.644  0.00  0.00    +0.052 A 
ATOM     18  C15 UNL     1      22.293   8.409  33.544  0.00  0.00    +0.019 A 
ATOM     19  C16 UNL     1      21.200   9.259  33.737  0.00  0.00    +0.013 A 
BRANCH  17  20
ATOM     20  C14 UNL     1      24.055   6.948  34.446  0.00  0.00    +0.099 C 
ATOM     21  N5  UNL     1      24.961   6.246  34.286  0.00  0.00    -0.191 NA
ENDBRANCH  17  20
ENDBRANCH  10  14
BRANCH   1  23
ATOM     22  C1  UNL     1      10.912  11.996  34.891  0.00  0.00    +0.020 C 
ATOM     23  C2  UNL     1      11.356  13.471  34.988  0.00  0.00    +0.039 C 
ATOM     24  C3  UNL     1      11.237  14.143  33.607  0.00  0.00    +0.020 C 
ATOM     25  C4  UNL     1      10.415  14.192  35.978  0.00  0.00    +0.020 C 
ENDBRANCH   1  23
BRANCH  11  26
ATOM     26  C17 UNL     1      17.736   8.694  35.310  0.00  0.00    +0.130 C 
BRANCH  26  27
ATOM     27  C18 UNL     1      17.846   8.123  36.741  0.00  0.00    +0.009 C 
ATOM     28  C19 UNL     1      18.532   6.729  36.733  0.00  0.00    +0.005 C 
ATOM     29  C20 UNL     1      18.162   5.911  37.973  0.00  0.00    +0.000 C 
ATOM     30  C21 UNL     1      16.646   5.635  38.040  0.00  0.00    +0.000 C 
ATOM     31  C22 UNL     1      15.796   6.716  37.343  0.00  0.00    +0.000 C 
ATOM     32  C23 UNL     1      16.457   8.096  37.436  0.00  0.00    +0.005 C 
ENDBRANCH  26  27
ENDBRANCH  11  26
TORSDOF 5
ENDMDL
MODEL 2
REMARK VINA RESULT:    -6.290     14.901     17.641
REMARK INTER + INTRA:          -9.341
REMARK INTER:                  -8.061
REMARK INTRA:                  -1.280
REMARK UNBOUND:                -1.212
REMARK  Name = /home/qwerty/github/datacon2025hack/step_04_hit_selection/docking/ligands/lig_736.pdb
REMARK  8 active torsions:
REMARK  status: ('A' for Active; 'I' for Inactive)
REMARK    1  A    between atoms: C1_1  and  C2_2
REMARK    2  A    between atoms: C2_2  and  C3_3
REMARK    3  A    between atoms: C2_2  and  C4_4
REMARK    4  A    between atoms: C2_2  and  C5_5
REMARK    5  A    between atoms: C9_14  and  C10_15
REMARK    6  A    between atoms: C13_18  and  C14_19
REMARK    7  A    between atoms: N6_23  and  C17_24
REMARK    8  A    between atoms: C17_24  and  C18_25
REMARK                            x       y       z     vdW  Elec       q    Type
REMARK                         _______ _______ _______ _____ _____    ______ ____
ROOT
ATOM      1  C5  UNL     1      16.410  -0.782  23.437  0.00  0.00    +0.221 C 
ATOM      2  O1  UNL     1      16.909  -0.961  22.291  0.00  0.00    -0.275 OA
ATOM      3  N1  UNL     1      15.290   0.108  23.566  0.00  0.00    -0.298 N 
ATOM      4  C6  UNL     1      14.048  -0.205  22.850  0.00  0.00    +0.127 C 
ATOM      5  C7  UNL     1      13.724   0.922  21.867  0.00  0.00    +0.127 C 
ATOM      6  N2  UNL     1      13.820   2.237  22.515  0.00  0.00    -0.297 N 
ATOM      7  C8  UNL     1      13.470   3.406  21.758  0.00  0.00    +0.220 A 
ATOM      8  N3  UNL     1      13.882   3.606  20.491  0.00  0.00    -0.113 NA
ATOM      9  N4  UNL     1      13.314   4.728  20.078  0.00  0.00    -0.128 NA
ATOM     10  C9  UNL     1      12.563   5.193  21.096  0.00  0.00    +0.165 A 
ATOM     11  N6  UNL     1      12.629   4.380  22.177  0.00  0.00    -0.295 N 
ATOM     12  C24 UNL     1      14.278   2.354  23.905  0.00  0.00    +0.127 C 
ATOM     13  C25 UNL     1      15.489   1.443  24.147  0.00  0.00    +0.127 C 
ENDROOT
BRANCH  10  14
ATOM     14  C10 UNL     1      11.748   6.419  20.987  0.00  0.00    +0.019 A 
ATOM     15  C11 UNL     1      10.494   6.391  20.356  0.00  0.00    +0.013 A 
ATOM     16  C12 UNL     1       9.727   7.556  20.260  0.00  0.00    +0.019 A 
ATOM     17  C13 UNL     1      10.199   8.755  20.809  0.00  0.00    +0.052 A 
ATOM     18  C15 UNL     1      11.437   8.781  21.464  0.00  0.00    +0.019 A 
ATOM     19  C16 UNL     1      12.205   7.616  21.558  0.00  0.00    +0.013 A 
BRANCH  17  20
ATOM     20  C14 UNL     1       9.410   9.953  20.711  0.00  0.00    +0.099 C 
ATOM     21  N5  UNL     1       8.774  10.918  20.631  0.00  0.00    -0.191 NA
ENDBRANCH  17  20
ENDBRANCH  10  14
BRANCH   1  23
ATOM     22  C1  UNL     1      16.025  -1.529  25.818  0.00  0.00    +0.020 C 
ATOM     23  C2  UNL     1      17.028  -1.472  24.646  0.00  0.00    +0.039 C 
ATOM     24  C3  UNL     1      18.293  -0.706  25.080  0.00  0.00    +0.020 C 
ATOM     25  C4  UNL     1      17.422  -2.920  24.280  0.00  0.00    +0.020 C 
ENDBRANCH   1  23
BRANCH  11  26
ATOM     26  C17 UNL     1      11.744   4.361  23.352  0.00  0.00    +0.130 C 
BRANCH  26  27
ATOM     27  C18 UNL     1      10.324   3.877  22.984  0.00  0.00    +0.009 C 
ATOM     28  C19 UNL     1       9.254   4.920  23.407  0.00  0.00    +0.005 C 
ATOM     29  C20 UNL     1       7.877   4.274  23.587  0.00  0.00    +0.000 C 
ATOM     30  C21 UNL     1       7.891   3.207  24.701  0.00  0.00    +0.000 C 
ATOM     31  C22 UNL     1       9.270   2.544  24.897  0.00  0.00    +0.000 C 
ATOM     32  C23 UNL     1      10.048   2.468  23.577  0.00  0.00    +0.005 C 
ENDBRANCH  26  27
ENDBRANCH  11  26
TORSDOF 5
ENDMDL
MODEL 3
REMARK VINA RESULT:    -6.245     14.733     15.934
REMARK INTER + INTRA:          -9.283
REMARK INTER:                  -8.210
REMARK INTRA:                  -1.073
REMARK UNBOUND:                -1.212
REMARK  Name = /home/qwerty/github/datacon2025hack/step_04_hit_selection/docking/ligands/lig_736.pdb
REMARK  8 active torsions:
REMARK  status: ('A' for Active; 'I' for Inactive)
REMARK    1  A    between atoms: C1_1  and  C2_2
REMARK    2  A    between atoms: C2_2  and  C3_3
REMARK    3  A    between atoms: C2_2  and  C4_4
REMARK    4  A    between atoms: C2_2  and  C5_5
REMARK    5  A    between atoms: C9_14  and  C10_15
REMARK    6  A    between atoms: C13_18  and  C14_19
REMARK    7  A    between atoms: N6_23  and  C17_24
REMARK    8  A    between atoms: C17_24  and  C18_25
REMARK                            x       y       z     vdW  Elec       q    Type
REMARK                         _______ _______ _______ _____ _____    ______ ____
ROOT
ATOM      1  C5  UNL     1       8.674   8.369  22.024  0.00  0.00    +0.221 C 
ATOM      2  O1  UNL     1       7.596   7.778  21.737  0.00  0.00    -0.275 OA
ATOM      3  N1  UNL     1       9.895   7.613  22.015  0.00  0.00    -0.298 N 
ATOM      4  C6  UNL     1      10.334   6.985  20.765  0.00  0.00    +0.127 C 
ATOM      5  C7  UNL     1      10.410   5.468  20.950  0.00  0.00    +0.127 C 
ATOM      6  N2  UNL     1      11.139   5.118  22.176  0.00  0.00    -0.297 N 
ATOM      7  C8  UNL     1      11.374   3.731  22.466  0.00  0.00    +0.220 A 
ATOM      8  N3  UNL     1      10.423   2.787  22.339  0.00  0.00    -0.113 NA
ATOM      9  N4  UNL     1      10.999   1.626  22.605  0.00  0.00    -0.128 NA
ATOM     10  C9  UNL     1      12.293   1.879  22.886  0.00  0.00    +0.165 A 
ATOM     11  N6  UNL     1      12.573   3.200  22.801  0.00  0.00    -0.295 N 
ATOM     12  C24 UNL     1      11.606   6.165  23.094  0.00  0.00    +0.127 C 
ATOM     13  C25 UNL     1      10.515   7.227  23.291  0.00  0.00    +0.127 C 
ENDROOT
BRANCH  10  14
ATOM     14  C10 UNL     1      13.262   0.810  23.197  0.00  0.00    +0.019 A 
ATOM     15  C11 UNL     1      14.117   0.306  22.203  0.00  0.00    +0.013 A 
ATOM     16  C12 UNL     1      15.034  -0.705  22.507  0.00  0.00    +0.019 A 
ATOM     17  C13 UNL     1      15.117  -1.208  23.812  0.00  0.00    +0.052 A 
ATOM     18  C15 UNL     1      14.286  -0.689  24.813  0.00  0.00    +0.019 A 
ATOM     19  C16 UNL     1      13.368   0.320  24.508  0.00  0.00    +0.013 A 
BRANCH  17  20
ATOM     20  C14 UNL     1      16.062  -2.247  24.125  0.00  0.00    +0.099 C 
ATOM     21  N5  UNL     1      16.822  -3.083  24.378  0.00  0.00    -0.191 NA
ENDBRANCH  17  20
ENDBRANCH  10  14
BRANCH   1  23
ATOM     22  C1  UNL     1       7.931  10.046  23.760  0.00  0.00    +0.020 C 
ATOM     23  C2  UNL     1       8.647   9.843  22.408  0.00  0.00    +0.039 C 
ATOM     24  C3  UNL     1       7.922  10.644  21.309  0.00  0.00    +0.020 C 
ATOM     25  C4  UNL     1      10.090  10.377  22.545  0.00  0.00    +0.020 C 
ENDBRANCH   1  23
BRANCH  11  26
ATOM     26  C17 UNL     1      13.894   3.845  22.731  0.00  0.00    +0.130 C 
BRANCH  26  27
ATOM     27  C18 UNL     1      14.397   3.947  21.274  0.00  0.00    +0.009 C 
ATOM     28  C19 UNL     1      15.747   3.199  21.098  0.00  0.00    +0.005 C 
ATOM     29  C20 UNL     1      16.533   3.730  19.896  0.00  0.00    +0.000 C 
ATOM     30  C21 UNL     1      16.895   5.219  20.066  0.00  0.00    +0.000 C 
ATOM     31  C22 UNL     1      15.897   5.995  20.949  0.00  0.00    +0.000 C 
ATOM     32  C23 UNL     1      14.477   5.431  20.819  0.00  0.00    +0.005 C 
ENDBRANCH  26  27
ENDBRANCH  11  26
TORSDOF 5
ENDMDL
MODEL 4
REMARK VINA RESULT:    -6.179      5.461     10.303
REMARK INTER + INTRA:          -9.196
REMARK INTER:                  -7.867
REMARK INTRA:                  -1.330
REMARK UNBOUND:                -1.212
REMARK  Name = /home/qwerty/github/datacon2025hack/step_04_hit_selection/docking/ligands/lig_736.pdb
REMARK  8 active torsions:
REMARK  status: ('A' for Active; 'I' for Inactive)
REMARK    1  A    between atoms: C1_1  and  C2_2
REMARK    2  A    between atoms: C2_2  and  C3_3
REMARK    3  A    between atoms: C2_2  and  C4_4
REMARK    4  A    between atoms: C2_2  and  C5_5
REMARK    5  A    between atoms: C9_14  and  C10_15
REMARK    6  A    between atoms: C13_18  and  C14_19
REMARK    7  A    between atoms: N6_23  and  C17_24
REMARK    8  A    between atoms: C17_24  and  C18_25
REMARK                            x       y       z     vdW  Elec       q    Type
REMARK                         _______ _______ _______ _____ _____    ______ ____
ROOT
ATOM      1  C5  UNL     1      21.370   1.323  29.881  0.00  0.00    +0.221 C 
ATOM      2  O1  UNL     1      20.274   0.702  29.798  0.00  0.00    -0.275 OA
ATOM      3  N1  UNL     1      21.474   2.410  30.814  0.00  0.00    -0.298 N 
ATOM      4  C6  UNL     1      21.285   2.140  32.243  0.00  0.00    +0.127 C 
ATOM      5  C7  UNL     1      20.093   2.945  32.765  0.00  0.00    +0.127 C 
ATOM      6  N2  UNL     1      20.177   4.351  32.346  0.00  0.00    -0.297 N 
ATOM      7  C8  UNL     1      19.178   5.271  32.815  0.00  0.00    +0.220 A 
ATOM      8  N3  UNL     1      17.864   4.982  32.820  0.00  0.00    -0.113 NA
ATOM      9  N4  UNL     1      17.249   6.008  33.386  0.00  0.00    -0.128 NA
ATOM     10  C9  UNL     1      18.198   6.905  33.722  0.00  0.00    +0.165 A 
ATOM     11  N6  UNL     1      19.435   6.472  33.384  0.00  0.00    -0.295 N 
ATOM     12  C24 UNL     1      21.252   4.803  31.454  0.00  0.00    +0.127 C 
ATOM     13  C25 UNL     1      21.463   3.793  30.318  0.00  0.00    +0.127 C 
ENDROOT
BRANCH  10  14
ATOM     14  C10 UNL     1      17.886   8.170  34.415  0.00  0.00    +0.019 A 
ATOM     15  C11 UNL     1      17.643   8.189  35.798  0.00  0.00    +0.013 A 
ATOM     16  C12 UNL     1      17.351   9.393  36.447  0.00  0.00    +0.019 A 
ATOM     17  C13 UNL     1      17.317  10.590  35.721  0.00  0.00    +0.052 A 
ATOM     18  C15 UNL     1      17.586  10.580  34.347  0.00  0.00    +0.019 A 
ATOM     19  C16 UNL     1      17.876   9.376  33.698  0.00  0.00    +0.013 A 
BRANCH  17  20
ATOM     20  C14 UNL     1      17.018  11.829  36.389  0.00  0.00    +0.099 C 
ATOM     21  N5  UNL     1      16.777  12.826  36.925  0.00  0.00    -0.191 NA
ENDBRANCH  17  20
ENDBRANCH  10  14
BRANCH   1  23
ATOM     22  C1  UNL     1      22.501   1.762  27.666  0.00  0.00    +0.020 C 
ATOM     23  C2  UNL     1      22.528   0.936  28.969  0.00  0.00    +0.039 C 
ATOM     24  C3  UNL     1      22.436  -0.565  28.637  0.00  0.00    +0.020 C 
ATOM     25  C4  UNL     1      23.871   1.209  29.682  0.00  0.00    +0.020 C 
ENDBRANCH   1  23
BRANCH  11  26
ATOM     26  C17 UNL     1      20.734   6.994  33.839  0.00  0.00    +0.130 C 
BRANCH  26  27
ATOM     27  C18 UNL     1      21.166   6.349  35.175  0.00  0.00    +0.009 C 
ATOM     28  C19 UNL     1      21.208   7.405  36.314  0.00  0.00    +0.005 C 
ATOM     29  C20 UNL     1      22.135   6.970  37.452  0.00  0.00    +0.000 C 
ATOM     30  C21 UNL     1      23.591   6.812  36.970  0.00  0.00    +0.000 C 
ATOM     31  C22 UNL     1      23.705   6.444  35.476  0.00  0.00    +0.000 C 
ATOM     32  C23 UNL     1      22.514   5.595  35.016  0.00  0.00    +0.005 C 
ENDBRANCH  26  27
ENDBRANCH  11  26
TORSDOF 5
ENDMDL
MODEL 5
REMARK VINA RESULT:    -6.148     11.984     14.195
REMARK INTER + INTRA:          -9.157
REMARK INTER:                  -7.892
REMARK INTRA:                  -1.265
REMARK UNBOUND:                -1.212
REMARK  Name = /home/qwerty/github/datacon2025hack/step_04_hit_selection/docking/ligands/lig_736.pdb
REMARK  8 active torsions:
REMARK  status: ('A' for Active; 'I' for Inactive)
REMARK    1  A    between atoms: C1_1  and  C2_2
REMARK    2  A    between atoms: C2_2  and  C3_3
REMARK    3  A    between atoms: C2_2  and  C4_4
REMARK    4  A    between atoms: C2_2  and  C5_5
REMARK    5  A    between atoms: C9_14  and  C10_15
REMARK    6  A    between atoms: C13_18  and  C14_19
REMARK    7  A    between atoms: N6_23  and  C17_24
REMARK    8  A    between atoms: C17_24  and  C18_25
REMARK                            x       y       z     vdW  Elec       q    Type
REMARK                         _______ _______ _______ _____ _____    ______ ____
ROOT
ATOM      1  C5  UNL     1       8.413  11.471  28.358  0.00  0.00    +0.221 C 
ATOM      2  O1  UNL     1       7.474  10.803  28.872  0.00  0.00    -0.275 OA
ATOM      3  N1  UNL     1       9.080  10.940  27.202  0.00  0.00    -0.298 N 
ATOM      4  C6  UNL     1       8.305  10.704  25.979  0.00  0.00    +0.127 C 
ATOM      5  C7  UNL     1       8.353   9.218  25.619  0.00  0.00    +0.127 C 
ATOM      6  N2  UNL     1       9.729   8.706  25.658  0.00  0.00    -0.297 N 
ATOM      7  C8  UNL     1       9.969   7.344  25.267  0.00  0.00    +0.220 A 
ATOM      8  N3  UNL     1       9.199   6.320  25.680  0.00  0.00    -0.113 NA
ATOM      9  N4  UNL     1       9.650   5.234  25.072  0.00  0.00    -0.128 NA
ATOM     10  C9  UNL     1      10.685   5.613  24.296  0.00  0.00    +0.165 A 
ATOM     11  N6  UNL     1      10.914   6.944  24.385  0.00  0.00    -0.295 N 
ATOM     12  C24 UNL     1      10.835   9.564  26.100  0.00  0.00    +0.127 C 
ATOM     13  C25 UNL     1      10.425  10.364  27.344  0.00  0.00    +0.127 C 
ENDROOT
BRANCH  10  14
ATOM     14  C10 UNL     1      11.419   4.667  23.433  0.00  0.00    +0.019 A 
ATOM     15  C11 UNL     1      12.610   4.069  23.877  0.00  0.00    +0.013 A 
ATOM     16  C12 UNL     1      13.297   3.171  23.054  0.00  0.00    +0.019 A 
ATOM     17  C13 UNL     1      12.790   2.850  21.788  0.00  0.00    +0.052 A 
ATOM     18  C15 UNL     1      11.589   3.423  21.353  0.00  0.00    +0.019 A 
ATOM     19  C16 UNL     1      10.903   4.322  22.175  0.00  0.00    +0.013 A 
BRANCH  17  20
ATOM     20  C14 UNL     1      13.497   1.926  20.942  0.00  0.00    +0.099 C 
ATOM     21  N5  UNL     1      14.066   1.182  20.262  0.00  0.00    -0.191 NA
ENDBRANCH  17  20
ENDBRANCH  10  14
BRANCH   1  23
ATOM     22  C1  UNL     1       9.442  13.739  27.937  0.00  0.00    +0.020 C 
ATOM     23  C2  UNL     1       8.839  12.788  28.994  0.00  0.00    +0.039 C 
ATOM     24  C3  UNL     1       9.877  12.510  30.097  0.00  0.00    +0.020 C 
ATOM     25  C4  UNL     1       7.614  13.487  29.624  0.00  0.00    +0.020 C 
ENDBRANCH   1  23
BRANCH  11  26
ATOM     26  C17 UNL     1      11.727   7.786  23.493  0.00  0.00    +0.130 C 
BRANCH  26  27
ATOM     27  C18 UNL     1      10.865   8.433  22.386  0.00  0.00    +0.009 C 
ATOM     28  C19 UNL     1      11.204   7.833  20.994  0.00  0.00    +0.005 C 
ATOM     29  C20 UNL     1      10.824   8.788  19.860  0.00  0.00    +0.000 C 
ATOM     30  C21 UNL     1      11.606  10.115  19.948  0.00  0.00    +0.000 C 
ATOM     31  C22 UNL     1      12.021  10.486  21.386  0.00  0.00    +0.000 C 
ATOM     32  C23 UNL     1      10.999   9.981  22.413  0.00  0.00    +0.005 C 
ENDBRANCH  26  27
ENDBRANCH  11  26
TORSDOF 5
ENDMDL
MODEL 6
REMARK VINA RESULT:    -6.089     14.426     17.479
REMARK INTER + INTRA:          -9.081
REMARK INTER:                  -7.989
REMARK INTRA:                  -1.092
REMARK UNBOUND:                -1.212
REMARK  Name = /home/qwerty/github/datacon2025hack/step_04_hit_selection/docking/ligands/lig_736.pdb
REMARK  8 active torsions:
REMARK  status: ('A' for Active; 'I' for Inactive)
REMARK    1  A    between atoms: C1_1  and  C2_2
REMARK    2  A    between atoms: C2_2  and  C3_3
REMARK    3  A    between atoms: C2_2  and  C4_4
REMARK    4  A    between atoms: C2_2  and  C5_5
REMARK    5  A    between atoms: C9_14  and  C10_15
REMARK    6  A    between atoms: C13_18  and  C14_19
REMARK    7  A    between atoms: N6_23  and  C17_24
REMARK    8  A    between atoms: C17_24  and  C18_25
REMARK                            x       y       z     vdW  Elec       q    Type
REMARK                         _______ _______ _______ _____ _____    ______ ____
ROOT
ATOM      1  C5  UNL     1      16.308   1.096  22.723  0.00  0.00    +0.221 C 
ATOM      2  O1  UNL     1      17.383   1.749  22.618  0.00  0.00    -0.275 OA
ATOM      3  N1  UNL     1      15.078   1.733  22.347  0.00  0.00    -0.298 N 
ATOM      4  C6  UNL     1      14.906   2.184  20.962  0.00  0.00    +0.127 C 
ATOM      5  C7  UNL     1      14.692   3.699  20.938  0.00  0.00    +0.127 C 
ATOM      6  N2  UNL     1      13.674   4.108  21.915  0.00  0.00    -0.297 N 
ATOM      7  C8  UNL     1      13.289   5.491  21.972  0.00  0.00    +0.220 A 
ATOM      8  N3  UNL     1      14.181   6.498  21.949  0.00  0.00    -0.113 NA
ATOM      9  N4  UNL     1      13.485   7.624  21.933  0.00  0.00    -0.128 NA
ATOM     10  C9  UNL     1      12.180   7.286  21.943  0.00  0.00    +0.165 A 
ATOM     11  N6  UNL     1      12.013   5.943  21.959  0.00  0.00    -0.295 N 
ATOM     12  C24 UNL     1      13.073   3.125  22.825  0.00  0.00    +0.127 C 
ATOM     13  C25 UNL     1      14.152   2.193  23.391  0.00  0.00    +0.127 C 
ENDROOT
BRANCH  10  14
ATOM     14  C10 UNL     1      11.099   8.289  21.893  0.00  0.00    +0.019 A 
ATOM     15  C11 UNL     1      10.473   8.608  20.677  0.00  0.00    +0.013 A 
ATOM     16  C12 UNL     1       9.447   9.557  20.640  0.00  0.00    +0.019 A 
ATOM     17  C13 UNL     1       9.027  10.183  21.820  0.00  0.00    +0.052 A 
ATOM     18  C15 UNL     1       9.629   9.848  23.039  0.00  0.00    +0.019 A 
ATOM     19  C16 UNL     1      10.656   8.901  23.076  0.00  0.00    +0.013 A 
BRANCH  17  20
ATOM     20  C14 UNL     1       7.970  11.160  21.782  0.00  0.00    +0.099 C 
ATOM     21  N5  UNL     1       7.121  11.946  21.751  0.00  0.00    -0.191 NA
ENDBRANCH  17  20
ENDBRANCH  10  14
BRANCH   1  23
ATOM     22  C1  UNL     1      16.805  -0.323  24.753  0.00  0.00    +0.020 C 
ATOM     23  C2  UNL     1      16.338  -0.322  23.281  0.00  0.00    +0.039 C 
ATOM     24  C3  UNL     1      17.292  -1.185  22.432  0.00  0.00    +0.020 C 
ATOM     25  C4  UNL     1      14.923  -0.938  23.226  0.00  0.00    +0.020 C 
ENDBRANCH   1  23
BRANCH  11  26
ATOM     26  C17 UNL     1      10.790   5.178  21.672  0.00  0.00    +0.130 C 
BRANCH  26  27
ATOM     27  C18 UNL     1       9.817   5.193  22.873  0.00  0.00    +0.009 C 
ATOM     28  C19 UNL     1       9.551   3.753  23.391  0.00  0.00    +0.005 C 
ATOM     29  C20 UNL     1       8.226   3.664  24.152  0.00  0.00    +0.000 C 
ATOM     30  C21 UNL     1       7.026   4.016  23.249  0.00  0.00    +0.000 C 
ATOM     31  C22 UNL     1       7.386   4.985  22.104  0.00  0.00    +0.000 C 
ATOM     32  C23 UNL     1       8.507   5.947  22.514  0.00  0.00    +0.005 C 
ENDBRANCH  26  27
ENDBRANCH  11  26
TORSDOF 5
ENDMDL
MODEL 7
REMARK VINA RESULT:    -5.977     15.092     16.749
REMARK INTER + INTRA:          -8.936
REMARK INTER:                  -7.939
REMARK INTRA:                  -0.997
REMARK UNBOUND:                -1.212
REMARK  Name = /home/qwerty/github/datacon2025hack/step_04_hit_selection/docking/ligands/lig_736.pdb
REMARK  8 active torsions:
REMARK  status: ('A' for Active; 'I' for Inactive)
REMARK    1  A    between atoms: C1_1  and  C2_2
REMARK    2  A    between atoms: C2_2  and  C3_3
REMARK    3  A    between atoms: C2_2  and  C4_4
REMARK    4  A    between atoms: C2_2  and  C5_5
REMARK    5  A    between atoms: C9_14  and  C10_15
REMARK    6  A    between atoms: C13_18  and  C14_19
REMARK    7  A    between atoms: N6_23  and  C17_24
REMARK    8  A    between atoms: C17_24  and  C18_25
REMARK                            x       y       z     vdW  Elec       q    Type
REMARK                         _______ _______ _______ _____ _____    ______ ____
ROOT
ATOM      1  C5  UNL     1      21.065  13.576  20.418  0.00  0.00    +0.221 C 
ATOM      2  O1  UNL     1      20.020  14.188  20.773  0.00  0.00    -0.275 OA
ATOM      3  N1  UNL     1      20.946  12.215  19.976  0.00  0.00    -0.298 N 
ATOM      4  C6  UNL     1      20.128  11.919  18.795  0.00  0.00    +0.127 C 
ATOM      5  C7  UNL     1      18.983  10.982  19.186  0.00  0.00    +0.127 C 
ATOM      6  N2  UNL     1      19.473   9.843  19.973  0.00  0.00    -0.297 N 
ATOM      7  C8  UNL     1      18.541   8.819  20.357  0.00  0.00    +0.220 A 
ATOM      8  N3  UNL     1      17.320   9.092  20.854  0.00  0.00    -0.113 NA
ATOM      9  N4  UNL     1      16.707   7.931  21.019  0.00  0.00    -0.128 NA
ATOM     10  C9  UNL     1      17.562   6.968  20.618  0.00  0.00    +0.165 A 
ATOM     11  N6  UNL     1      18.733   7.490  20.184  0.00  0.00    -0.295 N 
ATOM     12  C24 UNL     1      20.884   9.760  20.370  0.00  0.00    +0.127 C 
ATOM     13  C25 UNL     1      21.381  11.125  20.862  0.00  0.00    +0.127 C 
ENDROOT
BRANCH  10  14
ATOM     14  C10 UNL     1      17.205   5.536  20.624  0.00  0.00    +0.019 A 
ATOM     15  C11 UNL     1      16.485   4.973  19.559  0.00  0.00    +0.013 A 
ATOM     16  C12 UNL     1      16.155   3.614  19.571  0.00  0.00    +0.019 A 
ATOM     17  C13 UNL     1      16.556   2.804  20.641  0.00  0.00    +0.052 A 
ATOM     18  C15 UNL     1      17.298   3.356  21.693  0.00  0.00    +0.019 A 
ATOM     19  C16 UNL     1      17.627   4.715  21.681  0.00  0.00    +0.013 A 
BRANCH  17  20
ATOM     20  C14 UNL     1      16.216   1.406  20.654  0.00  0.00    +0.099 C 
ATOM     21  N5  UNL     1      15.943   0.281  20.664  0.00  0.00    -0.191 NA
ENDBRANCH  17  20
ENDBRANCH  10  14
BRANCH   1  23
ATOM     22  C1  UNL     1      23.055  14.061  21.895  0.00  0.00    +0.020 C 
ATOM     23  C2  UNL     1      22.416  14.275  20.507  0.00  0.00    +0.039 C 
ATOM     24  C3  UNL     1      22.229  15.782  20.246  0.00  0.00    +0.020 C 
ATOM     25  C4  UNL     1      23.376  13.699  19.443  0.00  0.00    +0.020 C 
ENDBRANCH   1  23
BRANCH  11  26
ATOM     26  C17 UNL     1      19.785   6.827  19.397  0.00  0.00    +0.130 C 
BRANCH  26  27
ATOM     27  C18 UNL     1      20.723   5.993  20.297  0.00  0.00    +0.009 C 
ATOM     28  C19 UNL     1      20.801   6.594  21.727  0.00  0.00    +0.005 C 
ATOM     29  C20 UNL     1      22.088   6.177  22.445  0.00  0.00    +0.000 C 
ATOM     30  C21 UNL     1      23.342   6.686  21.704  0.00  0.00    +0.000 C 
ATOM     31  C22 UNL     1      23.129   6.858  20.187  0.00  0.00    +0.000 C 
ATOM     32  C23 UNL     1      22.123   5.836  19.642  0.00  0.00    +0.005 C 
ENDBRANCH  26  27
ENDBRANCH  11  26
TORSDOF 5
ENDMDL
MODEL 8
REMARK VINA RESULT:    -5.874     12.922     16.048
REMARK INTER + INTRA:          -8.803
REMARK INTER:                  -7.521
REMARK INTRA:                  -1.282
REMARK UNBOUND:                -1.212
REMARK  Name = /home/qwerty/github/datacon2025hack/step_04_hit_selection/docking/ligands/lig_736.pdb
REMARK  8 active torsions:
REMARK  status: ('A' for Active; 'I' for Inactive)
REMARK    1  A    between atoms: C1_1  and  C2_2
REMARK    2  A    between atoms: C2_2  and  C3_3
REMARK    3  A    between atoms: C2_2  and  C4_4
REMARK    4  A    between atoms: C2_2  and  C5_5
REMARK    5  A    between atoms: C9_14  and  C10_15
REMARK    6  A    between atoms: C13_18  and  C14_19
REMARK    7  A    between atoms: N6_23  and  C17_24
REMARK    8  A    between atoms: C17_24  and  C18_25
REMARK                            x       y       z     vdW  Elec       q    Type
REMARK                         _______ _______ _______ _____ _____    ______ ____
ROOT
ATOM      1  C5  UNL     1      21.754   1.898  28.095  0.00  0.00    +0.221 C 
ATOM      2  O1  UNL     1      22.184   3.084  28.146  0.00  0.00    -0.275 OA
ATOM      3  N1  UNL     1      20.715   1.584  27.154  0.00  0.00    -0.298 N 
ATOM      4  C6  UNL     1      20.974   1.767  25.723  0.00  0.00    +0.127 C 
ATOM      5  C7  UNL     1      19.992   2.791  25.150  0.00  0.00    +0.127 C 
ATOM      6  N2  UNL     1      18.612   2.489  25.556  0.00  0.00    -0.297 N 
ATOM      7  C8  UNL     1      17.548   3.304  25.041  0.00  0.00    +0.220 A 
ATOM      8  N3  UNL     1      17.616   4.648  24.992  0.00  0.00    -0.113 NA
ATOM      9  N4  UNL     1      16.512   5.064  24.393  0.00  0.00    -0.128 NA
ATOM     10  C9  UNL     1      15.790   3.969  24.081  0.00  0.00    +0.165 A 
ATOM     11  N6  UNL     1      16.415   2.833  24.468  0.00  0.00    -0.295 N 
ATOM     12  C24 UNL     1      18.329   1.384  26.481  0.00  0.00    +0.127 C 
ATOM     13  C25 UNL     1      19.341   1.382  27.635  0.00  0.00    +0.127 C 
ENDROOT
BRANCH  10  14
ATOM     14  C10 UNL     1      14.502   4.044  23.364  0.00  0.00    +0.019 A 
ATOM     15  C11 UNL     1      13.296   3.766  24.026  0.00  0.00    +0.013 A 
ATOM     16  C12 UNL     1      12.080   3.842  23.339  0.00  0.00    +0.019 A 
ATOM     17  C13 UNL     1      12.059   4.214  21.989  0.00  0.00    +0.052 A 
ATOM     18  C15 UNL     1      13.258   4.519  21.332  0.00  0.00    +0.019 A 
ATOM     19  C16 UNL     1      14.473   4.441  22.018  0.00  0.00    +0.013 A 
BRANCH  17  20
ATOM     20  C14 UNL     1      10.808   4.293  21.282  0.00  0.00    +0.099 C 
ATOM     21  N5  UNL     1       9.802   4.358  20.713  0.00  0.00    -0.191 NA
ENDBRANCH  17  20
ENDBRANCH  10  14
BRANCH   1  23
ATOM     22  C1  UNL     1      21.544   0.867  30.391  0.00  0.00    +0.020 C 
ATOM     23  C2  UNL     1      22.311   0.851  29.052  0.00  0.00    +0.039 C 
ATOM     24  C3  UNL     1      23.805   1.135  29.305  0.00  0.00    +0.020 C 
ATOM     25  C4  UNL     1      22.168  -0.556  28.433  0.00  0.00    +0.020 C 
ENDBRANCH   1  23
BRANCH  11  26
ATOM     26  C17 UNL     1      16.124   1.451  24.055  0.00  0.00    +0.130 C 
BRANCH  26  27
ATOM     27  C18 UNL     1      16.864   1.083  22.750  0.00  0.00    +0.009 C 
ATOM     28  C19 UNL     1      15.895   1.105  21.536  0.00  0.00    +0.005 C 
ATOM     29  C20 UNL     1      16.410   0.233  20.387  0.00  0.00    +0.000 C 
ATOM     30  C21 UNL     1      16.528  -1.247  20.806  0.00  0.00    +0.000 C 
ATOM     31  C22 UNL     1      16.784  -1.438  22.315  0.00  0.00    +0.000 C 
ATOM     32  C23 UNL     1      17.601  -0.277  22.896  0.00  0.00    +0.005 C 
ENDBRANCH  26  27
ENDBRANCH  11  26
TORSDOF 5
ENDMDL
MODEL 9
REMARK VINA RESULT:    -5.826      3.763      5.899
REMARK INTER + INTRA:          -8.741
REMARK INTER:                  -7.538
REMARK INTRA:                  -1.203
REMARK UNBOUND:                -1.212
REMARK  Name = /home/qwerty/github/datacon2025hack/step_04_hit_selection/docking/ligands/lig_736.pdb
REMARK  8 active torsions:
REMARK  status: ('A' for Active; 'I' for Inactive)
REMARK    1  A    between atoms: C1_1  and  C2_2
REMARK    2  A    between atoms: C2_2  and  C3_3
REMARK    3  A    between atoms: C2_2  and  C4_4
REMARK    4  A    between atoms: C2_2  and  C5_5
REMARK    5  A    between atoms: C9_14  and  C10_15
REMARK    6  A    between atoms: C13_18  and  C14_19
REMARK    7  A    between atoms: N6_23  and  C17_24
REMARK    8  A    between atoms: C17_24  and  C18_25
REMARK                            x       y       z     vdW  Elec       q    Type
REMARK                         _______ _______ _______ _____ _____    ______ ____
ROOT
ATOM      1  C5  UNL     1      10.146  13.436  28.846  0.00  0.00    +0.221 C 
ATOM      2  O1  UNL     1      10.767  14.407  28.331  0.00  0.00    -0.275 OA
ATOM      3  N1  UNL     1      10.686  12.827  30.030  0.00  0.00    -0.298 N 
ATOM      4  C6  UNL     1      10.835  13.638  31.242  0.00  0.00    +0.127 C 
ATOM      5  C7  UNL     1      12.310  13.695  31.644  0.00  0.00    +0.127 C 
ATOM      6  N2  UNL     1      12.912  12.354  31.648  0.00  0.00    -0.297 N 
ATOM      7  C8  UNL     1      14.275  12.211  32.080  0.00  0.00    +0.220 A 
ATOM      8  N3  UNL     1      15.258  13.038  31.679  0.00  0.00    -0.113 NA
ATOM      9  N4  UNL     1      16.353  12.671  32.326  0.00  0.00    -0.128 NA
ATOM     10  C9  UNL     1      16.020  11.628  33.113  0.00  0.00    +0.165 A 
ATOM     11  N6  UNL     1      14.709  11.311  32.992  0.00  0.00    -0.295 N 
ATOM     12  C24 UNL     1      12.140  11.186  31.205  0.00  0.00    +0.127 C 
ATOM     13  C25 UNL     1      11.351  11.520  29.932  0.00  0.00    +0.127 C 
ENDROOT
BRANCH  10  14
ATOM     14  C10 UNL     1      16.986  10.974  34.016  0.00  0.00    +0.019 A 
ATOM     15  C11 UNL     1      17.223  11.484  35.303  0.00  0.00    +0.013 A 
ATOM     16  C12 UNL     1      18.139  10.855  36.153  0.00  0.00    +0.019 A 
ATOM     17  C13 UNL     1      18.811   9.701  35.730  0.00  0.00    +0.052 A 
ATOM     18  C15 UNL     1      18.556   9.173  34.459  0.00  0.00    +0.019 A 
ATOM     19  C16 UNL     1      17.643   9.803  33.608  0.00  0.00    +0.013 A 
BRANCH  17  20
ATOM     20  C14 UNL     1      19.752   9.054  36.605  0.00  0.00    +0.099 C 
ATOM     21  N5  UNL     1      20.509   8.532  37.309  0.00  0.00    -0.191 NA
ENDBRANCH  17  20
ENDBRANCH  10  14
BRANCH   1  23
ATOM     22  C1  UNL     1       9.206  11.788  27.179  0.00  0.00    +0.020 C 
ATOM     23  C2  UNL     1       8.878  12.913  28.183  0.00  0.00    +0.039 C 
ATOM     24  C3  UNL     1       8.168  14.071  27.455  0.00  0.00    +0.020 C 
ATOM     25  C4  UNL     1       7.925  12.337  29.254  0.00  0.00    +0.020 C 
ENDBRANCH   1  23
BRANCH  11  26
ATOM     26  C17 UNL     1      13.896  10.462  33.878  0.00  0.00    +0.130 C 
BRANCH  26  27
ATOM     27  C18 UNL     1      13.120  11.306  34.914  0.00  0.00    +0.009 C 
ATOM     28  C19 UNL     1      13.625  11.021  36.354  0.00  0.00    +0.005 C 
ATOM     29  C20 UNL     1      12.565  11.367  37.403  0.00  0.00    +0.000 C 
ATOM     30  C21 UNL     1      11.292  10.514  37.226  0.00  0.00    +0.000 C 
ATOM     31  C22 UNL     1      11.058  10.058  35.772  0.00  0.00    +0.000 C 
ATOM     32  C23 UNL     1      11.588  11.088  34.768  0.00  0.00    +0.005 C 
ENDBRANCH  26  27
ENDBRANCH  11  26
TORSDOF 5
ENDMDL
