MODEL 1
REMARK VINA RESULT:    -6.621      0.000      0.000
REMARK INTER + INTRA:          -9.021
REMARK INTER:                  -8.170
REMARK INTRA:                  -0.851
REMARK UNBOUND:                -0.851
REMARK  Name = /home/qwerty/github/datacon2025hack/step_04_hit_selection/docking/ligands/lig_297.pdb
REMARK  5 active torsions:
REMARK  status: ('A' for Active; 'I' for Inactive)
REMARK    1  A    between atoms: C1_1  and  C2_2
REMARK    2  A    between atoms: C5_5  and  C6_6
REMARK    3  A    between atoms: C7_8  and  C8_9
REMARK    4  A    between atoms: C8_9  and  C9_10
REMARK    5  A    between atoms: C12_15  and  C13_16
REMARK                            x       y       z     vdW  Elec       q    Type
REMARK                         _______ _______ _______ _____ _____    ______ ____
ROOT
ATOM      1  C9  UNL     1      20.158   8.286  37.120  0.00  0.00    +0.224 C 
ATOM      2  O1  UNL     1      19.132   7.686  36.702  0.00  0.00    -0.275 OA
ATOM      3  N2  UNL     1      20.220   9.721  37.130  0.00  0.00    -0.267 N 
ATOM      4  C10 UNL     1      19.102  10.590  36.897  0.00  0.00    +0.168 A 
ATOM      5  C11 UNL     1      17.761  10.256  36.942  0.00  0.00    +0.097 A 
ATOM      6  C12 UNL     1      17.130  11.459  36.698  0.00  0.00    +0.176 A 
ATOM      7  O2  UNL     1      18.038  12.394  36.537  0.00  0.00    -0.352 OA
ATOM      8  N3  UNL     1      19.240  11.909  36.656  0.00  0.00    -0.062 NA
ATOM      9  H8  UNL     1      21.151  10.170  37.285  0.00  0.00    +0.156 HD
ENDROOT
BRANCH   6  10
ATOM     10  C13 UNL     1      15.683  11.696  36.630  0.00  0.00    +0.059 A 
ATOM     11  C14 UNL     1      14.680  10.759  36.865  0.00  0.00    +0.021 A 
ATOM     12  C15 UNL     1      13.390  11.285  36.724  0.00  0.00    +0.028 A 
ATOM     13  C16 UNL     1      13.386  12.629  36.378  0.00  0.00    +0.079 A 
ATOM     14 CL1  UNL     1      11.960  13.612  36.118  0.00  0.00    -0.076 Cl
ATOM     15  S1  UNL     1      14.970  13.172  36.248  0.00  0.00    -0.074 S 
ENDBRANCH   6  10
BRANCH   1  16
ATOM     16  C8  UNL     1      21.355   7.486  37.531  0.00  0.00    +0.152 C 
BRANCH  16  19
ATOM     17  C6  UNL     1      23.217   7.941  34.412  0.00  0.00    +0.144 A 
ATOM     18  N1  UNL     1      22.314   8.266  35.363  0.00  0.00    -0.240 NA
ATOM     19  C7  UNL     1      22.309   7.366  36.384  0.00  0.00    +0.058 A 
ATOM     20  C17 UNL     1      23.199   6.305  36.242  0.00  0.00    +0.071 A 
ATOM     21  S2  UNL     1      24.030   6.521  34.797  0.00  0.00    -0.072 S 
BRANCH  17  26
ATOM     22  C1  UNL     1      22.249  10.634  30.428  0.00  0.00    +0.086 C 
ATOM     23  C2  UNL     1      23.022   9.892  31.464  0.00  0.00    +0.103 A 
ATOM     24  C3  UNL     1      24.399   9.798  31.527  0.00  0.00    +0.045 A 
ATOM     25  C4  UNL     1      24.670   9.044  32.650  0.00  0.00    +0.052 A 
ATOM     26  C5  UNL     1      23.441   8.731  33.198  0.00  0.00    +0.160 A 
ATOM     27  O3  UNL     1      22.477   9.251  32.473  0.00  0.00    -0.458 OA
ENDBRANCH  17  26
ENDBRANCH  16  19
ENDBRANCH   1  16
TORSDOF 4
ENDMDL
MODEL 2
REMARK VINA RESULT:    -6.566      6.144      9.850
REMARK INTER + INTRA:          -8.953
REMARK INTER:                  -8.127
REMARK INTRA:                  -0.826
REMARK UNBOUND:                -0.851
REMARK  Name = /home/qwerty/github/datacon2025hack/step_04_hit_selection/docking/ligands/lig_297.pdb
REMARK  5 active torsions:
REMARK  status: ('A' for Active; 'I' for Inactive)
REMARK    1  A    between atoms: C1_1  and  C2_2
REMARK    2  A    between atoms: C5_5  and  C6_6
REMARK    3  A    between atoms: C7_8  and  C8_9
REMARK    4  A    between atoms: C8_9  and  C9_10
REMARK    5  A    between atoms: C12_15  and  C13_16
REMARK                            x       y       z     vdW  Elec       q    Type
REMARK                         _______ _______ _______ _____ _____    ______ ____
ROOT
ATOM      1  C9  UNL     1      23.252   5.716  33.719  0.00  0.00    +0.224 C 
ATOM      2  O1  UNL     1      23.215   6.109  32.522  0.00  0.00    -0.275 OA
ATOM      3  N2  UNL     1      22.602   4.498  34.115  0.00  0.00    -0.267 N 
ATOM      4  C10 UNL     1      22.066   3.524  33.207  0.00  0.00    +0.168 A 
ATOM      5  C11 UNL     1      22.338   3.402  31.857  0.00  0.00    +0.097 A 
ATOM      6  C12 UNL     1      21.610   2.288  31.491  0.00  0.00    +0.176 A 
ATOM      7  O2  UNL     1      20.987   1.817  32.547  0.00  0.00    -0.352 OA
ATOM      8  N3  UNL     1      21.243   2.534  33.602  0.00  0.00    -0.062 NA
ATOM      9  H8  UNL     1      22.480   4.318  35.137  0.00  0.00    +0.156 HD
ENDROOT
BRANCH   6  10
ATOM     10  C13 UNL     1      21.528   1.692  30.152  0.00  0.00    +0.059 A 
ATOM     11  C14 UNL     1      22.335   0.674  29.649  0.00  0.00    +0.021 A 
ATOM     12  C15 UNL     1      22.015   0.315  28.334  0.00  0.00    +0.028 A 
ATOM     13  C16 UNL     1      20.961   1.051  27.811  0.00  0.00    +0.079 A 
ATOM     14 CL1  UNL     1      20.293   0.876  26.202  0.00  0.00    -0.076 Cl
ATOM     15  S1  UNL     1      20.421   2.144  28.967  0.00  0.00    -0.074 S 
ENDBRANCH   6  10
BRANCH   1  16
ATOM     16  C8  UNL     1      23.910   6.579  34.751  0.00  0.00    +0.152 C 
BRANCH  16  19
ATOM     17  C6  UNL     1      21.113   7.010  37.073  0.00  0.00    +0.144 A 
ATOM     18  N1  UNL     1      21.697   6.899  35.860  0.00  0.00    -0.240 NA
ATOM     19  C7  UNL     1      23.037   6.684  35.962  0.00  0.00    +0.058 A 
ATOM     20  C17 UNL     1      23.533   6.641  37.263  0.00  0.00    +0.071 A 
ATOM     21  S2  UNL     1      22.238   6.860  38.313  0.00  0.00    -0.072 S 
BRANCH  17  26
ATOM     22  C1  UNL     1      16.917   9.376  37.998  0.00  0.00    +0.086 C 
ATOM     23  C2  UNL     1      17.859   8.266  37.678  0.00  0.00    +0.103 A 
ATOM     24  C3  UNL     1      17.501   6.958  37.413  0.00  0.00    +0.045 A 
ATOM     25  C4  UNL     1      18.681   6.294  37.150  0.00  0.00    +0.052 A 
ATOM     26  C5  UNL     1      19.679   7.243  37.268  0.00  0.00    +0.160 A 
ATOM     27  O3  UNL     1      19.160   8.409  37.580  0.00  0.00    -0.458 OA
ENDBRANCH  17  26
ENDBRANCH  16  19
ENDBRANCH   1  16
TORSDOF 4
ENDMDL
MODEL 3
REMARK VINA RESULT:    -6.514     13.764     16.204
REMARK INTER + INTRA:          -8.889
REMARK INTER:                  -8.239
REMARK INTRA:                  -0.650
REMARK UNBOUND:                -0.851
REMARK  Name = /home/qwerty/github/datacon2025hack/step_04_hit_selection/docking/ligands/lig_297.pdb
REMARK  5 active torsions:
REMARK  status: ('A' for Active; 'I' for Inactive)
REMARK    1  A    between atoms: C1_1  and  C2_2
REMARK    2  A    between atoms: C5_5  and  C6_6
REMARK    3  A    between atoms: C7_8  and  C8_9
REMARK    4  A    between atoms: C8_9  and  C9_10
REMARK    5  A    between atoms: C12_15  and  C13_16
REMARK                            x       y       z     vdW  Elec       q    Type
REMARK                         _______ _______ _______ _____ _____    ______ ____
ROOT
ATOM      1  C9  UNL     1      17.605  -1.142  24.298  0.00  0.00    +0.224 C 
ATOM      2  O1  UNL     1      17.270  -1.234  25.509  0.00  0.00    -0.275 OA
ATOM      3  N2  UNL     1      18.614  -0.207  23.880  0.00  0.00    -0.267 N 
ATOM      4  C10 UNL     1      19.472   0.521  24.770  0.00  0.00    +0.168 A 
ATOM      5  C11 UNL     1      19.717   0.249  26.104  0.00  0.00    +0.097 A 
ATOM      6  C12 UNL     1      20.640   1.214  26.455  0.00  0.00    +0.176 A 
ATOM      7  O2  UNL     1      20.900   1.961  25.406  0.00  0.00    -0.352 OA
ATOM      8  N3  UNL     1      20.217   1.569  24.370  0.00  0.00    -0.062 NA
ATOM      9  H8  UNL     1      18.712  -0.018  22.858  0.00  0.00    +0.156 HD
ENDROOT
BRANCH   6  10
ATOM     10  C13 UNL     1      21.260   1.400  27.773  0.00  0.00    +0.059 A 
ATOM     11  C14 UNL     1      22.176   0.546  28.383  0.00  0.00    +0.021 A 
ATOM     12  C15 UNL     1      22.590   0.993  29.644  0.00  0.00    +0.028 A 
ATOM     13  C16 UNL     1      21.998   2.192  30.018  0.00  0.00    +0.079 A 
ATOM     14 CL1  UNL     1      22.277   3.042  31.523  0.00  0.00    -0.076 Cl
ATOM     15  S1  UNL     1      20.965   2.704  28.796  0.00  0.00    -0.074 S 
ENDBRANCH   6  10
BRANCH   1  16
ATOM     16  C8  UNL     1      16.879  -1.960  23.275  0.00  0.00    +0.152 C 
BRANCH  16  19
ATOM     17  C6  UNL     1      15.324   0.480  21.031  0.00  0.00    +0.144 A 
ATOM     18  N1  UNL     1      15.543  -0.139  22.212  0.00  0.00    -0.240 NA
ATOM     19  C7  UNL     1      16.499  -1.101  22.109  0.00  0.00    +0.058 A 
ATOM     20  C17 UNL     1      17.038  -1.267  20.835  0.00  0.00    +0.071 A 
ATOM     21  S2  UNL     1      16.299  -0.152  19.816  0.00  0.00    -0.072 S 
BRANCH  17  26
ATOM     22  C1  UNL     1      13.233   4.537  19.236  0.00  0.00    +0.086 C 
ATOM     23  C2  UNL     1      13.445   3.324  20.075  0.00  0.00    +0.103 A 
ATOM     24  C3  UNL     1      12.573   2.846  21.034  0.00  0.00    +0.045 A 
ATOM     25  C4  UNL     1      13.160   1.703  21.535  0.00  0.00    +0.052 A 
ATOM     26  C5  UNL     1      14.349   1.559  20.846  0.00  0.00    +0.160 A 
ATOM     27  O3  UNL     1      14.492   2.537  19.981  0.00  0.00    -0.458 OA
ENDBRANCH  17  26
ENDBRANCH  16  19
ENDBRANCH   1  16
TORSDOF 4
ENDMDL
MODEL 4
REMARK VINA RESULT:    -6.425     16.028     17.392
REMARK INTER + INTRA:          -8.779
REMARK INTER:                  -7.926
REMARK INTRA:                  -0.853
REMARK UNBOUND:                -0.851
REMARK  Name = /home/qwerty/github/datacon2025hack/step_04_hit_selection/docking/ligands/lig_297.pdb
REMARK  5 active torsions:
REMARK  status: ('A' for Active; 'I' for Inactive)
REMARK    1  A    between atoms: C1_1  and  C2_2
REMARK    2  A    between atoms: C5_5  and  C6_6
REMARK    3  A    between atoms: C7_8  and  C8_9
REMARK    4  A    between atoms: C8_9  and  C9_10
REMARK    5  A    between atoms: C12_15  and  C13_16
REMARK                            x       y       z     vdW  Elec       q    Type
REMARK                         _______ _______ _______ _____ _____    ______ ____
ROOT
ATOM      1  C9  UNL     1      14.341   1.953  20.332  0.00  0.00    +0.224 C 
ATOM      2  O1  UNL     1      14.869   3.087  20.485  0.00  0.00    -0.275 OA
ATOM      3  N2  UNL     1      12.952   1.740  20.634  0.00  0.00    -0.267 N 
ATOM      4  C10 UNL     1      12.004   2.784  20.903  0.00  0.00    +0.168 A 
ATOM      5  C11 UNL     1      12.143   4.131  20.624  0.00  0.00    +0.097 A 
ATOM      6  C12 UNL     1      10.937   4.661  21.036  0.00  0.00    +0.176 A 
ATOM      7  O2  UNL     1      10.180   3.694  21.501  0.00  0.00    -0.352 OA
ATOM      8  N3  UNL     1      10.788   2.546  21.432  0.00  0.00    -0.062 NA
ATOM      9  H8  UNL     1      12.609   0.755  20.692  0.00  0.00    +0.156 HD
ENDROOT
BRANCH   6  10
ATOM     10  C13 UNL     1      10.528   6.070  20.974  0.00  0.00    +0.059 A 
ATOM     11  C14 UNL     1      11.274   7.125  20.452  0.00  0.00    +0.021 A 
ATOM     12  C15 UNL     1      10.616   8.358  20.533  0.00  0.00    +0.028 A 
ATOM     13  C16 UNL     1       9.360   8.267  21.116  0.00  0.00    +0.079 A 
ATOM     14 CL1  UNL     1       8.257   9.602  21.380  0.00  0.00    -0.076 Cl
ATOM     15  S1  UNL     1       9.057   6.668  21.532  0.00  0.00    -0.074 S 
ENDBRANCH   6  10
BRANCH   1  16
ATOM     16  C8  UNL     1      15.197   0.798  19.914  0.00  0.00    +0.152 C 
BRANCH  16  19
ATOM     17  C6  UNL     1      15.275  -0.858  23.178  0.00  0.00    +0.144 A 
ATOM     18  N1  UNL     1      14.747  -0.084  22.204  0.00  0.00    -0.240 NA
ATOM     19  C7  UNL     1      15.547  -0.038  21.105  0.00  0.00    +0.058 A 
ATOM     20  C17 UNL     1      16.731  -0.764  21.203  0.00  0.00    +0.071 A 
ATOM     21  S2  UNL     1      16.758  -1.501  22.714  0.00  0.00    -0.072 S 
BRANCH  17  26
ATOM     22  C1  UNL     1      12.736   0.025  27.280  0.00  0.00    +0.086 C 
ATOM     23  C2  UNL     1      13.537  -0.706  26.258  0.00  0.00    +0.103 A 
ATOM     24  C3  UNL     1      13.887  -2.042  26.314  0.00  0.00    +0.045 A 
ATOM     25  C4  UNL     1      14.598  -2.290  25.158  0.00  0.00    +0.052 A 
ATOM     26  C5  UNL     1      14.630  -1.091  24.473  0.00  0.00    +0.160 A 
ATOM     27  O3  UNL     1      13.988  -0.165  25.150  0.00  0.00    -0.458 OA
ENDBRANCH  17  26
ENDBRANCH  16  19
ENDBRANCH   1  16
TORSDOF 4
ENDMDL
MODEL 5
REMARK VINA RESULT:    -6.328     16.941     18.849
REMARK INTER + INTRA:          -8.659
REMARK INTER:                  -7.868
REMARK INTRA:                  -0.791
REMARK UNBOUND:                -0.851
REMARK  Name = /home/qwerty/github/datacon2025hack/step_04_hit_selection/docking/ligands/lig_297.pdb
REMARK  5 active torsions:
REMARK  status: ('A' for Active; 'I' for Inactive)
REMARK    1  A    between atoms: C1_1  and  C2_2
REMARK    2  A    between atoms: C5_5  and  C6_6
REMARK    3  A    between atoms: C7_8  and  C8_9
REMARK    4  A    between atoms: C8_9  and  C9_10
REMARK    5  A    between atoms: C12_15  and  C13_16
REMARK                            x       y       z     vdW  Elec       q    Type
REMARK                         _______ _______ _______ _____ _____    ______ ____
ROOT
ATOM      1  C9  UNL     1      10.286   3.401  21.612  0.00  0.00    +0.224 C 
ATOM      2  O1  UNL     1      10.573   2.756  22.656  0.00  0.00    -0.275 OA
ATOM      3  N2  UNL     1      11.273   3.632  20.593  0.00  0.00    -0.267 N 
ATOM      4  C10 UNL     1      12.557   2.993  20.538  0.00  0.00    +0.168 A 
ATOM      5  C11 UNL     1      12.954   1.858  21.219  0.00  0.00    +0.097 A 
ATOM      6  C12 UNL     1      14.243   1.657  20.767  0.00  0.00    +0.176 A 
ATOM      7  O2  UNL     1      14.544   2.596  19.898  0.00  0.00    -0.352 OA
ATOM      8  N3  UNL     1      13.548   3.417  19.731  0.00  0.00    -0.062 NA
ATOM      9  H8  UNL     1      11.057   4.338  19.854  0.00  0.00    +0.156 HD
ENDROOT
BRANCH   6  10
ATOM     10  C13 UNL     1      15.157   0.578  21.162  0.00  0.00    +0.059 A 
ATOM     11  C14 UNL     1      16.136  -0.009  20.364  0.00  0.00    +0.021 A 
ATOM     12  C15 UNL     1      16.851  -1.017  21.022  0.00  0.00    +0.028 A 
ATOM     13  C16 UNL     1      16.431  -1.217  22.329  0.00  0.00    +0.079 A 
ATOM     14 CL1  UNL     1      17.095  -2.391  23.446  0.00  0.00    -0.076 Cl
ATOM     15  S1  UNL     1      15.180  -0.153  22.678  0.00  0.00    -0.074 S 
ENDBRANCH   6  10
BRANCH   1  16
ATOM     16  C8  UNL     1       8.923   4.006  21.479  0.00  0.00    +0.152 C 
BRANCH  16  19
ATOM     17  C6  UNL     1       9.694   7.584  21.566  0.00  0.00    +0.144 A 
ATOM     18  N1  UNL     1       9.756   6.325  21.080  0.00  0.00    -0.240 NA
ATOM     19  C7  UNL     1       8.978   5.468  21.796  0.00  0.00    +0.058 A 
ATOM     20  C17 UNL     1       8.304   6.039  22.873  0.00  0.00    +0.071 A 
ATOM     21  S2  UNL     1       8.685   7.676  22.908  0.00  0.00    -0.072 S 
BRANCH  17  26
ATOM     22  C1  UNL     1      13.415  10.606  20.526  0.00  0.00    +0.086 C 
ATOM     23  C2  UNL     1      12.040  10.032  20.547  0.00  0.00    +0.103 A 
ATOM     24  C3  UNL     1      10.948  10.533  19.864  0.00  0.00    +0.045 A 
ATOM     25  C4  UNL     1       9.904   9.680  20.154  0.00  0.00    +0.052 A 
ATOM     26  C5  UNL     1      10.429   8.715  20.991  0.00  0.00    +0.160 A 
ATOM     27  O3  UNL     1      11.704   8.947  21.207  0.00  0.00    -0.458 OA
ENDBRANCH  17  26
ENDBRANCH  16  19
ENDBRANCH   1  16
TORSDOF 4
ENDMDL
MODEL 6
REMARK VINA RESULT:    -6.244     11.230     13.867
REMARK INTER + INTRA:          -8.555
REMARK INTER:                  -8.075
REMARK INTRA:                  -0.480
REMARK UNBOUND:                -0.851
REMARK  Name = /home/qwerty/github/datacon2025hack/step_04_hit_selection/docking/ligands/lig_297.pdb
REMARK  5 active torsions:
REMARK  status: ('A' for Active; 'I' for Inactive)
REMARK    1  A    between atoms: C1_1  and  C2_2
REMARK    2  A    between atoms: C5_5  and  C6_6
REMARK    3  A    between atoms: C7_8  and  C8_9
REMARK    4  A    between atoms: C8_9  and  C9_10
REMARK    5  A    between atoms: C12_15  and  C13_16
REMARK                            x       y       z     vdW  Elec       q    Type
REMARK                         _______ _______ _______ _____ _____    ______ ____
ROOT
ATOM      1  C9  UNL     1      23.460  12.375  21.177  0.00  0.00    +0.224 C 
ATOM      2  O1  UNL     1      22.318  12.256  21.696  0.00  0.00    -0.275 OA
ATOM      3  N2  UNL     1      24.410  13.322  21.691  0.00  0.00    -0.267 N 
ATOM      4  C10 UNL     1      24.265  14.036  22.928  0.00  0.00    +0.168 A 
ATOM      5  C11 UNL     1      23.406  13.737  23.969  0.00  0.00    +0.097 A 
ATOM      6  C12 UNL     1      23.712  14.697  24.912  0.00  0.00    +0.176 A 
ATOM      7  O2  UNL     1      24.668  15.468  24.446  0.00  0.00    -0.352 OA
ATOM      8  N3  UNL     1      25.032  15.095  23.253  0.00  0.00    -0.062 NA
ATOM      9  H8  UNL     1      25.253  13.534  21.112  0.00  0.00    +0.156 HD
ENDROOT
BRANCH   6  10
ATOM     10  C13 UNL     1      23.097  14.859  26.236  0.00  0.00    +0.059 A 
ATOM     11  C14 UNL     1      23.236  13.998  27.322  0.00  0.00    +0.021 A 
ATOM     12  C15 UNL     1      22.526  14.419  28.453  0.00  0.00    +0.028 A 
ATOM     13  C16 UNL     1      21.834  15.605  28.250  0.00  0.00    +0.079 A 
ATOM     14 CL1  UNL     1      20.843  16.424  29.439  0.00  0.00    -0.076 Cl
ATOM     15  S1  UNL     1      22.096  16.137  26.679  0.00  0.00    -0.074 S 
ENDBRANCH   6  10
BRANCH   1  16
ATOM     16  C8  UNL     1      23.793  11.576  19.954  0.00  0.00    +0.152 C 
BRANCH  16  19
ATOM     17  C6  UNL     1      23.590   8.066  20.972  0.00  0.00    +0.144 A 
ATOM     18  N1  UNL     1      23.098   9.269  20.603  0.00  0.00    -0.240 NA
ATOM     19  C7  UNL     1      24.091  10.160  20.334  0.00  0.00    +0.058 A 
ATOM     20  C17 UNL     1      25.385   9.674  20.505  0.00  0.00    +0.071 A 
ATOM     21  S2  UNL     1      25.271   8.068  20.990  0.00  0.00    -0.072 S 
BRANCH  17  26
ATOM     22  C1  UNL     1      21.163   4.797  23.708  0.00  0.00    +0.086 C 
ATOM     23  C2  UNL     1      21.705   5.491  22.506  0.00  0.00    +0.103 A 
ATOM     24  C3  UNL     1      21.455   5.140  21.193  0.00  0.00    +0.045 A 
ATOM     25  C4  UNL     1      22.134   6.062  20.424  0.00  0.00    +0.052 A 
ATOM     26  C5  UNL     1      22.750   6.915  21.320  0.00  0.00    +0.160 A 
ATOM     27  O3  UNL     1      22.475   6.553  22.552  0.00  0.00    -0.458 OA
ENDBRANCH  17  26
ENDBRANCH  16  19
ENDBRANCH   1  16
TORSDOF 4
ENDMDL
MODEL 7
REMARK VINA RESULT:    -6.187      9.586     11.311
REMARK INTER + INTRA:          -8.485
REMARK INTER:                  -7.696
REMARK INTRA:                  -0.790
REMARK UNBOUND:                -0.851
REMARK  Name = /home/qwerty/github/datacon2025hack/step_04_hit_selection/docking/ligands/lig_297.pdb
REMARK  5 active torsions:
REMARK  status: ('A' for Active; 'I' for Inactive)
REMARK    1  A    between atoms: C1_1  and  C2_2
REMARK    2  A    between atoms: C5_5  and  C6_6
REMARK    3  A    between atoms: C7_8  and  C8_9
REMARK    4  A    between atoms: C8_9  and  C9_10
REMARK    5  A    between atoms: C12_15  and  C13_16
REMARK                            x       y       z     vdW  Elec       q    Type
REMARK                         _______ _______ _______ _____ _____    ______ ____
ROOT
ATOM      1  C9  UNL     1      22.281   1.395  30.085  0.00  0.00    +0.224 C 
ATOM      2  O1  UNL     1      22.767   2.212  30.912  0.00  0.00    -0.275 OA
ATOM      3  N2  UNL     1      21.148   0.582  30.431  0.00  0.00    -0.267 N 
ATOM      4  C10 UNL     1      20.340   0.761  31.603  0.00  0.00    +0.168 A 
ATOM      5  C11 UNL     1      20.283   1.878  32.415  0.00  0.00    +0.097 A 
ATOM      6  C12 UNL     1      19.324   1.538  33.348  0.00  0.00    +0.176 A 
ATOM      7  O2  UNL     1      18.872   0.335  33.079  0.00  0.00    -0.352 OA
ATOM      8  N3  UNL     1      19.458  -0.164  32.029  0.00  0.00    -0.062 NA
ATOM      9  H8  UNL     1      20.910  -0.218  29.802  0.00  0.00    +0.156 HD
ENDROOT
BRANCH   6  10
ATOM     10  C13 UNL     1      18.852   2.364  34.466  0.00  0.00    +0.059 A 
ATOM     11  C14 UNL     1      18.188   1.912  35.605  0.00  0.00    +0.021 A 
ATOM     12  C15 UNL     1      17.864   2.940  36.498  0.00  0.00    +0.028 A 
ATOM     13  C16 UNL     1      18.273   4.192  36.058  0.00  0.00    +0.079 A 
ATOM     14 CL1  UNL     1      18.036   5.702  36.913  0.00  0.00    -0.076 Cl
ATOM     15  S1  UNL     1      19.035   4.034  34.570  0.00  0.00    -0.074 S 
ENDBRANCH   6  10
BRANCH   1  16
ATOM     16  C8  UNL     1      22.952   1.212  28.759  0.00  0.00    +0.152 C 
BRANCH  16  19
ATOM     17  C6  UNL     1      20.198   1.050  26.353  0.00  0.00    +0.144 A 
ATOM     18  N1  UNL     1      20.915   0.657  27.428  0.00  0.00    -0.240 NA
ATOM     19  C7  UNL     1      21.979   1.475  27.652  0.00  0.00    +0.058 A 
ATOM     20  C17 UNL     1      22.126   2.519  26.742  0.00  0.00    +0.071 A 
ATOM     21  S2  UNL     1      20.864   2.416  25.635  0.00  0.00    -0.072 S 
BRANCH  17  26
ATOM     22  C1  UNL     1      17.397  -2.314  24.139  0.00  0.00    +0.086 C 
ATOM     23  C2  UNL     1      17.781  -1.097  24.910  0.00  0.00    +0.103 A 
ATOM     24  C3  UNL     1      16.903  -0.196  25.482  0.00  0.00    +0.045 A 
ATOM     25  C4  UNL     1      17.692   0.747  26.108  0.00  0.00    +0.052 A 
ATOM     26  C5  UNL     1      18.997   0.356  25.878  0.00  0.00    +0.160 A 
ATOM     27  O3  UNL     1      19.020  -0.746  25.164  0.00  0.00    -0.458 OA
ENDBRANCH  17  26
ENDBRANCH  16  19
ENDBRANCH   1  16
TORSDOF 4
ENDMDL
MODEL 8
REMARK VINA RESULT:    -6.113     10.080     12.918
REMARK INTER + INTRA:          -8.394
REMARK INTER:                  -7.539
REMARK INTRA:                  -0.854
REMARK UNBOUND:                -0.851
REMARK  Name = /home/qwerty/github/datacon2025hack/step_04_hit_selection/docking/ligands/lig_297.pdb
REMARK  5 active torsions:
REMARK  status: ('A' for Active; 'I' for Inactive)
REMARK    1  A    between atoms: C1_1  and  C2_2
REMARK    2  A    between atoms: C5_5  and  C6_6
REMARK    3  A    between atoms: C7_8  and  C8_9
REMARK    4  A    between atoms: C8_9  and  C9_10
REMARK    5  A    between atoms: C12_15  and  C13_16
REMARK                            x       y       z     vdW  Elec       q    Type
REMARK                         _______ _______ _______ _____ _____    ______ ____
ROOT
ATOM      1  C9  UNL     1      22.354   4.191  26.455  0.00  0.00    +0.224 C 
ATOM      2  O1  UNL     1      21.775   4.928  27.299  0.00  0.00    -0.275 OA
ATOM      3  N2  UNL     1      22.891   2.914  26.837  0.00  0.00    -0.267 N 
ATOM      4  C10 UNL     1      22.640   2.263  28.091  0.00  0.00    +0.168 A 
ATOM      5  C11 UNL     1      21.636   2.553  28.996  0.00  0.00    +0.097 A 
ATOM      6  C12 UNL     1      21.823   1.606  29.983  0.00  0.00    +0.176 A 
ATOM      7  O2  UNL     1      22.841   0.842  29.658  0.00  0.00    -0.352 OA
ATOM      8  N3  UNL     1      23.356   1.205  28.519  0.00  0.00    -0.062 NA
ATOM      9  H8  UNL     1      23.535   2.435  26.168  0.00  0.00    +0.156 HD
ENDROOT
BRANCH   6  10
ATOM     10  C13 UNL     1      21.029   1.442  31.207  0.00  0.00    +0.059 A 
ATOM     11  C14 UNL     1      20.274   0.326  31.559  0.00  0.00    +0.021 A 
ATOM     12  C15 UNL     1      19.624   0.466  32.792  0.00  0.00    +0.028 A 
ATOM     13  C16 UNL     1      19.870   1.689  33.400  0.00  0.00    +0.079 A 
ATOM     14 CL1  UNL     1      19.226   2.210  34.943  0.00  0.00    -0.076 Cl
ATOM     15  S1  UNL     1      20.889   2.599  32.422  0.00  0.00    -0.074 S 
ENDBRANCH   6  10
BRANCH   1  16
ATOM     16  C8  UNL     1      22.557   4.698  25.061  0.00  0.00    +0.152 C 
BRANCH  16  19
ATOM     17  C6  UNL     1      19.586   3.145  23.590  0.00  0.00    +0.144 A 
ATOM     18  N1  UNL     1      20.562   3.302  24.511  0.00  0.00    -0.240 NA
ATOM     19  C7  UNL     1      21.371   4.356  24.214  0.00  0.00    +0.058 A 
ATOM     20  C17 UNL     1      21.052   5.036  23.041  0.00  0.00    +0.071 A 
ATOM     21  S2  UNL     1      19.699   4.297  22.371  0.00  0.00    -0.072 S 
BRANCH  17  26
ATOM     22  C1  UNL     1      17.509  -1.196  24.540  0.00  0.00    +0.086 C 
ATOM     23  C2  UNL     1      17.670   0.205  24.057  0.00  0.00    +0.103 A 
ATOM     24  C3  UNL     1      16.681   0.974  23.474  0.00  0.00    +0.045 A 
ATOM     25  C4  UNL     1      17.265   2.195  23.211  0.00  0.00    +0.052 A 
ATOM     26  C5  UNL     1      18.569   2.090  23.654  0.00  0.00    +0.160 A 
ATOM     27  O3  UNL     1      18.782   0.895  24.156  0.00  0.00    -0.458 OA
ENDBRANCH  17  26
ENDBRANCH  16  19
ENDBRANCH   1  16
TORSDOF 4
ENDMDL
MODEL 9
REMARK VINA RESULT:    -6.076      6.266      9.285
REMARK INTER + INTRA:          -8.348
REMARK INTER:                  -7.651
REMARK INTRA:                  -0.697
REMARK UNBOUND:                -0.851
REMARK  Name = /home/qwerty/github/datacon2025hack/step_04_hit_selection/docking/ligands/lig_297.pdb
REMARK  5 active torsions:
REMARK  status: ('A' for Active; 'I' for Inactive)
REMARK    1  A    between atoms: C1_1  and  C2_2
REMARK    2  A    between atoms: C5_5  and  C6_6
REMARK    3  A    between atoms: C7_8  and  C8_9
REMARK    4  A    between atoms: C8_9  and  C9_10
REMARK    5  A    between atoms: C12_15  and  C13_16
REMARK                            x       y       z     vdW  Elec       q    Type
REMARK                         _______ _______ _______ _____ _____    ______ ____
ROOT
ATOM      1  C9  UNL     1      12.242  13.882  34.310  0.00  0.00    +0.224 C 
ATOM      2  O1  UNL     1      11.579  12.816  34.205  0.00  0.00    -0.275 OA
ATOM      3  N2  UNL     1      12.644  14.619  33.143  0.00  0.00    -0.267 N 
ATOM      4  C10 UNL     1      12.165  14.368  31.813  0.00  0.00    +0.168 A 
ATOM      5  C11 UNL     1      11.049  13.638  31.451  0.00  0.00    +0.097 A 
ATOM      6  C12 UNL     1      11.027  13.760  30.076  0.00  0.00    +0.176 A 
ATOM      7  O2  UNL     1      12.041  14.504  29.696  0.00  0.00    -0.352 OA
ATOM      8  N3  UNL     1      12.747  14.894  30.718  0.00  0.00    -0.062 NA
ATOM      9  H8  UNL     1      13.358  15.371  33.261  0.00  0.00    +0.156 HD
ENDROOT
BRANCH   6  10
ATOM     10  C13 UNL     1      10.043  13.177  29.156  0.00  0.00    +0.059 A 
ATOM     11  C14 UNL     1       8.715  13.569  29.009  0.00  0.00    +0.021 A 
ATOM     12  C15 UNL     1       8.023  12.822  28.049  0.00  0.00    +0.028 A 
ATOM     13  C16 UNL     1       8.808  11.848  27.447  0.00  0.00    +0.079 A 
ATOM     14 CL1  UNL     1       8.278  10.731  26.207  0.00  0.00    -0.076 Cl
ATOM     15  S1  UNL     1      10.356  11.907  28.096  0.00  0.00    -0.074 S 
ENDBRANCH   6  10
BRANCH   1  16
ATOM     16  C8  UNL     1      12.688  14.335  35.666  0.00  0.00    +0.152 C 
BRANCH  16  19
ATOM     17  C6  UNL     1      16.075  12.963  35.882  0.00  0.00    +0.144 A 
ATOM     18  N1  UNL     1      15.098  13.751  35.382  0.00  0.00    -0.240 NA
ATOM     19  C7  UNL     1      13.931  13.604  36.067  0.00  0.00    +0.058 A 
ATOM     20  C17 UNL     1      13.968  12.681  37.109  0.00  0.00    +0.071 A 
ATOM     21  S2  UNL     1      15.524  12.049  37.181  0.00  0.00    -0.072 S 
BRANCH  17  26
ATOM     22  C1  UNL     1      20.948  12.424  35.725  0.00  0.00    +0.086 C 
ATOM     23  C2  UNL     1      19.552  12.692  35.275  0.00  0.00    +0.103 A 
ATOM     24  C3  UNL     1      19.166  12.984  33.981  0.00  0.00    +0.045 A 
ATOM     25  C4  UNL     1      17.795  13.131  34.026  0.00  0.00    +0.052 A 
ATOM     26  C5  UNL     1      17.437  12.916  35.343  0.00  0.00    +0.160 A 
ATOM     27  O3  UNL     1      18.503  12.653  36.064  0.00  0.00    -0.458 OA
ENDBRANCH  17  26
ENDBRANCH  16  19
ENDBRANCH   1  16
TORSDOF 4
ENDMDL
