MODEL 1
REMARK VINA RESULT:    -7.683      0.000      0.000
REMARK INTER + INTRA:         -10.332
REMARK INTER:                  -9.030
REMARK INTRA:                  -1.301
REMARK UNBOUND:                -1.301
REMARK  Name = /home/qwerty/github/datacon2025hack/step_04_hit_selection/docking/ligands/lig_516.pdb
REMARK  3 active torsions:
REMARK  status: ('A' for Active; 'I' for Inactive)
REMARK    1  A    between atoms: C1_2  and  C8_13
REMARK    2  A    between atoms: N1_3  and  C2_4
REMARK    3  A    between atoms: C13_18  and  C14_19
REMARK                            x       y       z     vdW  Elec       q    Type
REMARK                         _______ _______ _______ _____ _____    ______ ____
ROOT
ATOM      1  C8  UNL     1      14.233   1.205  21.831  0.00  0.00    +0.049 A 
ATOM      2  C9  UNL     1      14.900   0.016  22.180  0.00  0.00    +0.014 A 
ATOM      3  C10 UNL     1      16.038  -0.393  21.483  0.00  0.00    +0.001 A 
ATOM      4  C11 UNL     1      16.525   0.377  20.430  0.00  0.00    +0.001 A 
ATOM      5  C12 UNL     1      15.889   1.569  20.081  0.00  0.00    +0.014 A 
ATOM      6  C13 UNL     1      14.758   2.010  20.785  0.00  0.00    +0.049 A 
ENDROOT
BRANCH   6   7
ATOM      7  C14 UNL     1      14.181   3.328  20.440  0.00  0.00    +0.250 C 
ATOM      8  O2  UNL     1      13.304   3.402  19.535  0.00  0.00    -0.270 OA
ATOM      9  N5  UNL     1      14.656   4.518  21.086  0.00  0.00    -0.265 N 
ATOM     10  C15 UNL     1      13.913   5.743  21.122  0.00  0.00    +0.151 A 
ATOM     11  C16 UNL     1      14.314   6.884  21.806  0.00  0.00    +0.112 A 
ATOM     12  C17 UNL     1      13.217   7.702  21.701  0.00  0.00    +0.215 A 
ATOM     13  N6  UNL     1      12.267   7.104  20.971  0.00  0.00    -0.231 N 
ATOM     14  N7  UNL     1      12.662   5.889  20.632  0.00  0.00    -0.153 NA
ATOM     15  C18 UNL     1      10.949   7.678  20.719  0.00  0.00    +0.157 C 
ATOM     16  C19 UNL     1      11.002   9.214  20.937  0.00  0.00    +0.024 C 
ATOM     17  C20 UNL     1      11.528   9.994  19.725  0.00  0.00    +0.012 C 
ATOM     18  C21 UNL     1      10.182  10.692  19.596  0.00  0.00    +0.001 C 
ATOM     19  C22 UNL     1       9.645   9.906  20.786  0.00  0.00    +0.012 C 
ATOM     20  C23 UNL     1      11.747   9.572  22.248  0.00  0.00    +0.239 C 
ATOM     21  O3  UNL     1      13.040   8.962  22.271  0.00  0.00    -0.476 OA
ATOM     22  H10 UNL     1      15.555   4.471  21.616  0.00  0.00    +0.157 HD
ENDBRANCH   6   7
BRANCH   1  24
ATOM     23  O1  UNL     1      12.990   1.779  23.766  0.00  0.00    -0.270 OA
ATOM     24  C1  UNL     1      12.970   1.538  22.531  0.00  0.00    +0.249 C 
ATOM     25  N1  UNL     1      11.720   1.501  21.826  0.00  0.00    -0.280 N 
ATOM     26  H1  UNL     1      11.658   0.869  20.995  0.00  0.00    +0.155 HD
BRANCH  25  27
ATOM     27  C2  UNL     1      10.571   2.300  22.154  0.00  0.00    +0.053 A 
ATOM     28  C3  UNL     1       9.769   1.933  23.268  0.00  0.00    +0.136 A 
ATOM     29  N2  UNL     1       8.606   2.596  23.545  0.00  0.00    -0.234 NA
ATOM     30  C4  UNL     1       8.233   3.617  22.740  0.00  0.00    +0.156 A 
ATOM     31  N3  UNL     1       7.117   4.347  22.825  0.00  0.00    -0.260 N 
ATOM     32  N4  UNL     1       7.115   5.209  21.814  0.00  0.00    -0.180 NA
ATOM     33  C5  UNL     1       8.242   5.022  21.084  0.00  0.00    +0.144 A 
ATOM     34  C6  UNL     1       8.967   4.010  21.670  0.00  0.00    +0.040 A 
ATOM     35  C7  UNL     1      10.153   3.375  21.333  0.00  0.00    +0.038 A 
ATOM     36  H3  UNL     1       6.363   4.263  23.542  0.00  0.00    +0.191 HD
ENDBRANCH  25  27
ENDBRANCH   1  24
TORSDOF 3
ENDMDL
MODEL 2
REMARK VINA RESULT:    -7.495      2.634      8.415
REMARK INTER + INTRA:         -10.111
REMARK INTER:                  -8.782
REMARK INTRA:                  -1.329
REMARK UNBOUND:                -1.301
REMARK  Name = /home/qwerty/github/datacon2025hack/step_04_hit_selection/docking/ligands/lig_516.pdb
REMARK  3 active torsions:
REMARK  status: ('A' for Active; 'I' for Inactive)
REMARK    1  A    between atoms: C1_2  and  C8_13
REMARK    2  A    between atoms: N1_3  and  C2_4
REMARK    3  A    between atoms: C13_18  and  C14_19
REMARK                            x       y       z     vdW  Elec       q    Type
REMARK                         _______ _______ _______ _____ _____    ______ ____
ROOT
ATOM      1  C8  UNL     1       9.656   5.355  21.369  0.00  0.00    +0.049 A 
ATOM      2  C9  UNL     1       8.932   6.495  20.975  0.00  0.00    +0.014 A 
ATOM      3  C10 UNL     1       7.552   6.565  21.171  0.00  0.00    +0.001 A 
ATOM      4  C11 UNL     1       6.877   5.500  21.762  0.00  0.00    +0.001 A 
ATOM      5  C12 UNL     1       7.580   4.368  22.178  0.00  0.00    +0.014 A 
ATOM      6  C13 UNL     1       8.972   4.289  22.012  0.00  0.00    +0.049 A 
ENDROOT
BRANCH   6   7
ATOM      7  C14 UNL     1       9.681   3.111  22.558  0.00  0.00    +0.250 C 
ATOM      8  O2  UNL     1       9.862   2.102  21.823  0.00  0.00    -0.270 OA
ATOM      9  N5  UNL     1      10.108   3.095  23.928  0.00  0.00    -0.265 N 
ATOM     10  C15 UNL     1      11.121   2.212  24.425  0.00  0.00    +0.151 A 
ATOM     11  C16 UNL     1      11.607   2.229  25.726  0.00  0.00    +0.112 A 
ATOM     12  C17 UNL     1      12.663   1.355  25.668  0.00  0.00    +0.215 A 
ATOM     13  N6  UNL     1      12.757   0.830  24.439  0.00  0.00    -0.231 N 
ATOM     14  N7  UNL     1      11.839   1.366  23.653  0.00  0.00    -0.153 NA
ATOM     15  C18 UNL     1      13.809  -0.090  24.022  0.00  0.00    +0.157 C 
ATOM     16  C19 UNL     1      14.438  -0.760  25.274  0.00  0.00    +0.024 C 
ATOM     17  C20 UNL     1      13.646  -1.966  25.794  0.00  0.00    +0.012 C 
ATOM     18  C21 UNL     1      14.833  -2.869  25.492  0.00  0.00    +0.001 C 
ATOM     19  C22 UNL     1      15.619  -1.680  24.954  0.00  0.00    +0.012 C 
ATOM     20  C23 UNL     1      14.737   0.282  26.381  0.00  0.00    +0.239 C 
ATOM     21  O3  UNL     1      13.561   1.039  26.686  0.00  0.00    -0.476 OA
ATOM     22  H10 UNL     1       9.712   3.808  24.581  0.00  0.00    +0.157 HD
ENDBRANCH   6   7
BRANCH   1  24
ATOM     23  O1  UNL     1      11.893   6.120  21.553  0.00  0.00    -0.270 OA
ATOM     24  C1  UNL     1      11.100   5.286  21.041  0.00  0.00    +0.249 C 
ATOM     25  N1  UNL     1      11.580   4.333  20.081  0.00  0.00    -0.280 N 
ATOM     26  H1  UNL     1      10.904   4.007  19.352  0.00  0.00    +0.155 HD
BRANCH  25  27
ATOM     27  C2  UNL     1      12.901   3.768  20.078  0.00  0.00    +0.053 A 
ATOM     28  C3  UNL     1      13.982   4.538  19.573  0.00  0.00    +0.136 A 
ATOM     29  N2  UNL     1      15.231   3.998  19.446  0.00  0.00    -0.234 NA
ATOM     30  C4  UNL     1      15.423   2.711  19.818  0.00  0.00    +0.156 A 
ATOM     31  N3  UNL     1      16.553   2.004  19.727  0.00  0.00    -0.260 N 
ATOM     32  N4  UNL     1      16.297   0.771  20.153  0.00  0.00    -0.180 NA
ATOM     33  C5  UNL     1      14.995   0.701  20.519  0.00  0.00    +0.144 A 
ATOM     34  C6  UNL     1      14.426   1.938  20.314  0.00  0.00    +0.040 A 
ATOM     35  C7  UNL     1      13.137   2.425  20.462  0.00  0.00    +0.038 A 
ATOM     36  H3  UNL     1      17.477   2.336  19.376  0.00  0.00    +0.191 HD
ENDBRANCH  25  27
ENDBRANCH   1  24
TORSDOF 3
ENDMDL
MODEL 3
REMARK VINA RESULT:    -7.437     12.699     14.419
REMARK INTER + INTRA:         -10.043
REMARK INTER:                  -8.761
REMARK INTRA:                  -1.281
REMARK UNBOUND:                -1.301
REMARK  Name = /home/qwerty/github/datacon2025hack/step_04_hit_selection/docking/ligands/lig_516.pdb
REMARK  3 active torsions:
REMARK  status: ('A' for Active; 'I' for Inactive)
REMARK    1  A    between atoms: C1_2  and  C8_13
REMARK    2  A    between atoms: N1_3  and  C2_4
REMARK    3  A    between atoms: C13_18  and  C14_19
REMARK                            x       y       z     vdW  Elec       q    Type
REMARK                         _______ _______ _______ _____ _____    ______ ____
ROOT
ATOM      1  C8  UNL     1      21.646   2.852  28.352  0.00  0.00    +0.049 A 
ATOM      2  C9  UNL     1      22.046   2.198  27.173  0.00  0.00    +0.014 A 
ATOM      3  C10 UNL     1      22.216   2.912  25.986  0.00  0.00    +0.001 A 
ATOM      4  C11 UNL     1      21.990   4.286  25.959  0.00  0.00    +0.001 A 
ATOM      5  C12 UNL     1      21.611   4.956  27.124  0.00  0.00    +0.014 A 
ATOM      6  C13 UNL     1      21.458   4.260  28.333  0.00  0.00    +0.049 A 
ENDROOT
BRANCH   6   7
ATOM      7  C14 UNL     1      21.152   5.031  29.558  0.00  0.00    +0.250 C 
ATOM      8  O2  UNL     1      19.998   4.958  30.063  0.00  0.00    -0.270 OA
ATOM      9  N5  UNL     1      22.140   5.899  30.132  0.00  0.00    -0.265 N 
ATOM     10  C15 UNL     1      22.091   6.358  31.489  0.00  0.00    +0.151 A 
ATOM     11  C16 UNL     1      23.073   7.134  32.091  0.00  0.00    +0.112 A 
ATOM     12  C17 UNL     1      22.679   7.155  33.406  0.00  0.00    +0.215 A 
ATOM     13  N6  UNL     1      21.530   6.484  33.552  0.00  0.00    -0.231 N 
ATOM     14  N7  UNL     1      21.168   5.961  32.393  0.00  0.00    -0.153 NA
ATOM     15  C18 UNL     1      20.869   6.265  34.834  0.00  0.00    +0.157 C 
ATOM     16  C19 UNL     1      21.364   7.320  35.860  0.00  0.00    +0.024 C 
ATOM     17  C20 UNL     1      20.637   8.667  35.762  0.00  0.00    +0.012 C 
ATOM     18  C21 UNL     1      20.098   8.472  37.172  0.00  0.00    +0.001 C 
ATOM     19  C22 UNL     1      20.800   7.123  37.269  0.00  0.00    +0.012 C 
ATOM     20  C23 UNL     1      22.907   7.469  35.816  0.00  0.00    +0.239 C 
ATOM     21  O3  UNL     1      23.345   7.740  34.481  0.00  0.00    -0.476 OA
ATOM     22  H10 UNL     1      22.973   6.155  29.556  0.00  0.00    +0.157 HD
ENDBRANCH   6   7
BRANCH   1  24
ATOM     23  O1  UNL     1      22.338   1.543  30.204  0.00  0.00    -0.270 OA
ATOM     24  C1  UNL     1      21.375   2.032  29.557  0.00  0.00    +0.249 C 
ATOM     25  N1  UNL     1      20.025   1.725  29.935  0.00  0.00    -0.280 N 
ATOM     26  H1  UNL     1      19.305   1.718  29.177  0.00  0.00    +0.155 HD
BRANCH  25  27
ATOM     27  C2  UNL     1      19.590   1.471  31.281  0.00  0.00    +0.053 A 
ATOM     28  C3  UNL     1      18.891   0.269  31.569  0.00  0.00    +0.136 A 
ATOM     29  N2  UNL     1      18.360   0.042  32.808  0.00  0.00    -0.234 NA
ATOM     30  C4  UNL     1      18.518   0.986  33.764  0.00  0.00    +0.156 A 
ATOM     31  N3  UNL     1      18.036   0.962  35.010  0.00  0.00    -0.260 N 
ATOM     32  N4  UNL     1      18.376   2.103  35.600  0.00  0.00    -0.180 NA
ATOM     33  C5  UNL     1      19.082   2.852  34.719  0.00  0.00    +0.144 A 
ATOM     34  C6  UNL     1      19.183   2.146  33.543  0.00  0.00    +0.040 A 
ATOM     35  C7  UNL     1      19.740   2.437  32.306  0.00  0.00    +0.038 A 
ATOM     36  H3  UNL     1      17.479   0.200  35.454  0.00  0.00    +0.191 HD
ENDBRANCH  25  27
ENDBRANCH   1  24
TORSDOF 3
ENDMDL
MODEL 4
REMARK VINA RESULT:    -7.377      5.784      9.472
REMARK INTER + INTRA:          -9.973
REMARK INTER:                  -8.650
REMARK INTRA:                  -1.323
REMARK UNBOUND:                -1.301
REMARK  Name = /home/qwerty/github/datacon2025hack/step_04_hit_selection/docking/ligands/lig_516.pdb
REMARK  3 active torsions:
REMARK  status: ('A' for Active; 'I' for Inactive)
REMARK    1  A    between atoms: C1_2  and  C8_13
REMARK    2  A    between atoms: N1_3  and  C2_4
REMARK    3  A    between atoms: C13_18  and  C14_19
REMARK                            x       y       z     vdW  Elec       q    Type
REMARK                         _______ _______ _______ _____ _____    ______ ____
ROOT
ATOM      1  C8  UNL     1      10.340  12.553  27.842  0.00  0.00    +0.049 A 
ATOM      2  C9  UNL     1      10.500  13.832  28.405  0.00  0.00    +0.014 A 
ATOM      3  C10 UNL     1      11.649  14.582  28.153  0.00  0.00    +0.001 A 
ATOM      4  C11 UNL     1      12.653  14.067  27.336  0.00  0.00    +0.001 A 
ATOM      5  C12 UNL     1      12.505  12.808  26.753  0.00  0.00    +0.014 A 
ATOM      6  C13 UNL     1      11.345  12.048  26.975  0.00  0.00    +0.049 A 
ENDROOT
BRANCH   6   7
ATOM      7  C14 UNL     1      11.195  10.764  26.255  0.00  0.00    +0.250 C 
ATOM      8  O2  UNL     1      11.349   9.680  26.883  0.00  0.00    -0.270 OA
ATOM      9  N5  UNL     1      10.933  10.752  24.844  0.00  0.00    -0.265 N 
ATOM     10  C15 UNL     1      10.386   9.621  24.156  0.00  0.00    +0.151 A 
ATOM     11  C16 UNL     1      10.051   9.610  22.807  0.00  0.00    +0.112 A 
ATOM     12  C17 UNL     1       9.410   8.404  22.664  0.00  0.00    +0.215 A 
ATOM     13  N6  UNL     1       9.414   7.741  23.827  0.00  0.00    -0.231 N 
ATOM     14  N7  UNL     1       9.980   8.484  24.763  0.00  0.00    -0.153 NA
ATOM     15  C18 UNL     1       8.762   6.453  24.035  0.00  0.00    +0.157 C 
ATOM     16  C19 UNL     1       8.555   5.750  22.665  0.00  0.00    +0.024 C 
ATOM     17  C20 UNL     1       9.793   4.997  22.163  0.00  0.00    +0.012 C 
ATOM     18  C21 UNL     1       9.021   3.687  22.241  0.00  0.00    +0.001 C 
ATOM     19  C22 UNL     1       7.793   4.426  22.761  0.00  0.00    +0.012 C 
ATOM     20  C23 UNL     1       7.981   6.729  21.610  0.00  0.00    +0.239 C 
ATOM     21  O3  UNL     1       8.799   7.900  21.518  0.00  0.00    -0.476 OA
ATOM     22  H10 UNL     1      11.083  11.633  24.303  0.00  0.00    +0.157 HD
ENDBRANCH   6   7
BRANCH   1  24
ATOM     23  O1  UNL     1       8.020  12.068  27.776  0.00  0.00    -0.270 OA
ATOM     24  C1  UNL     1       9.152  11.754  28.228  0.00  0.00    +0.249 C 
ATOM     25  N1  UNL     1       9.276  10.685  29.179  0.00  0.00    -0.280 N 
ATOM     26  H1  UNL     1      10.060  10.746  29.868  0.00  0.00    +0.155 HD
BRANCH  25  27
ATOM     27  C2  UNL     1       8.430   9.524  29.219  0.00  0.00    +0.053 A 
ATOM     28  C3  UNL     1       7.826   9.149  30.449  0.00  0.00    +0.136 A 
ATOM     29  N2  UNL     1       7.110   7.990  30.556  0.00  0.00    -0.234 NA
ATOM     30  C4  UNL     1       6.979   7.204  29.464  0.00  0.00    +0.156 A 
ATOM     31  N3  UNL     1       6.359   6.023  29.387  0.00  0.00    -0.260 N 
ATOM     32  N4  UNL     1       6.508   5.563  28.149  0.00  0.00    -0.180 NA
ATOM     33  C5  UNL     1       7.226   6.465  27.437  0.00  0.00    +0.144 A 
ATOM     34  C6  UNL     1       7.530   7.521  28.265  0.00  0.00    +0.040 A 
ATOM     35  C7  UNL     1       8.271   8.679  28.093  0.00  0.00    +0.038 A 
ATOM     36  H3  UNL     1       5.854   5.527  30.154  0.00  0.00    +0.191 HD
ENDBRANCH  25  27
ENDBRANCH   1  24
TORSDOF 3
ENDMDL
MODEL 5
REMARK VINA RESULT:    -7.288      7.036     10.869
REMARK INTER + INTRA:          -9.867
REMARK INTER:                  -8.671
REMARK INTRA:                  -1.196
REMARK UNBOUND:                -1.301
REMARK  Name = /home/qwerty/github/datacon2025hack/step_04_hit_selection/docking/ligands/lig_516.pdb
REMARK  3 active torsions:
REMARK  status: ('A' for Active; 'I' for Inactive)
REMARK    1  A    between atoms: C1_2  and  C8_13
REMARK    2  A    between atoms: N1_3  and  C2_4
REMARK    3  A    between atoms: C13_18  and  C14_19
REMARK                            x       y       z     vdW  Elec       q    Type
REMARK                         _______ _______ _______ _____ _____    ______ ____
ROOT
ATOM      1  C8  UNL     1      20.413   1.499  29.342  0.00  0.00    +0.049 A 
ATOM      2  C9  UNL     1      21.123   1.315  30.542  0.00  0.00    +0.014 A 
ATOM      3  C10 UNL     1      20.448   1.074  31.739  0.00  0.00    +0.001 A 
ATOM      4  C11 UNL     1      19.056   1.013  31.755  0.00  0.00    +0.001 A 
ATOM      5  C12 UNL     1      18.335   1.174  30.571  0.00  0.00    +0.014 A 
ATOM      6  C13 UNL     1      18.997   1.393  29.352  0.00  0.00    +0.049 A 
ENDROOT
BRANCH   6   7
ATOM      7  C14 UNL     1      18.191   1.457  28.113  0.00  0.00    +0.250 C 
ATOM      8  O2  UNL     1      18.067   2.560  27.512  0.00  0.00    -0.270 OA
ATOM      9  N5  UNL     1      17.510   0.290  27.631  0.00  0.00    -0.265 N 
ATOM     10  C15 UNL     1      17.058   0.145  26.280  0.00  0.00    +0.151 A 
ATOM     11  C16 UNL     1      16.466  -1.003  25.768  0.00  0.00    +0.112 A 
ATOM     12  C17 UNL     1      16.385  -0.731  24.425  0.00  0.00    +0.215 A 
ATOM     13  N6  UNL     1      16.848   0.501  24.178  0.00  0.00    -0.231 N 
ATOM     14  N7  UNL     1      17.295   1.044  25.297  0.00  0.00    -0.153 NA
ATOM     15  C18 UNL     1      16.958   1.079  22.843  0.00  0.00    +0.157 C 
ATOM     16  C19 UNL     1      16.010   0.325  21.872  0.00  0.00    +0.024 C 
ATOM     17  C20 UNL     1      14.557   0.816  21.920  0.00  0.00    +0.012 C 
ATOM     18  C21 UNL     1      14.665   1.260  20.468  0.00  0.00    +0.001 C 
ATOM     19  C22 UNL     1      16.115   0.795  20.419  0.00  0.00    +0.012 C 
ATOM     20  C23 UNL     1      16.129  -1.210  22.046  0.00  0.00    +0.239 C 
ATOM     21  O3  UNL     1      15.930  -1.575  23.414  0.00  0.00    -0.476 OA
ATOM     22  H10 UNL     1      17.398  -0.523  28.278  0.00  0.00    +0.157 HD
ENDBRANCH   6   7
BRANCH   1  24
ATOM     23  O1  UNL     1      21.789   0.963  27.486  0.00  0.00    -0.270 OA
ATOM     24  C1  UNL     1      21.171   1.859  28.120  0.00  0.00    +0.249 C 
ATOM     25  N1  UNL     1      21.275   3.231  27.709  0.00  0.00    -0.280 N 
ATOM     26  H1  UNL     1      21.185   3.961  28.453  0.00  0.00    +0.155 HD
BRANCH  25  27
ATOM     27  C2  UNL     1      21.448   3.667  26.351  0.00  0.00    +0.053 A 
ATOM     28  C3  UNL     1      22.436   4.645  26.059  0.00  0.00    +0.136 A 
ATOM     29  N2  UNL     1      22.555   5.171  24.803  0.00  0.00    -0.234 NA
ATOM     30  C4  UNL     1      21.714   4.738  23.836  0.00  0.00    +0.156 A 
ATOM     31  N3  UNL     1      21.650   5.165  22.571  0.00  0.00    -0.260 N 
ATOM     32  N4  UNL     1      20.655   4.518  21.973  0.00  0.00    -0.180 NA
ATOM     33  C5  UNL     1      20.087   3.674  22.868  0.00  0.00    +0.144 A 
ATOM     34  C6  UNL     1      20.759   3.803  24.062  0.00  0.00    +0.040 A 
ATOM     35  C7  UNL     1      20.585   3.234  25.315  0.00  0.00    +0.038 A 
ATOM     36  H3  UNL     1      22.255   5.884  22.118  0.00  0.00    +0.191 HD
ENDBRANCH  25  27
ENDBRANCH   1  24
TORSDOF 3
ENDMDL
MODEL 6
REMARK VINA RESULT:    -7.279     10.932     14.303
REMARK INTER + INTRA:          -9.856
REMARK INTER:                  -8.611
REMARK INTRA:                  -1.246
REMARK UNBOUND:                -1.301
REMARK  Name = /home/qwerty/github/datacon2025hack/step_04_hit_selection/docking/ligands/lig_516.pdb
REMARK  3 active torsions:
REMARK  status: ('A' for Active; 'I' for Inactive)
REMARK    1  A    between atoms: C1_2  and  C8_13
REMARK    2  A    between atoms: N1_3  and  C2_4
REMARK    3  A    between atoms: C13_18  and  C14_19
REMARK                            x       y       z     vdW  Elec       q    Type
REMARK                         _______ _______ _______ _____ _____    ______ ____
ROOT
ATOM      1  C8  UNL     1       8.993  11.155  29.423  0.00  0.00    +0.049 A 
ATOM      2  C9  UNL     1       7.773  10.899  28.772  0.00  0.00    +0.014 A 
ATOM      3  C10 UNL     1       7.114   9.682  28.947  0.00  0.00    +0.001 A 
ATOM      4  C11 UNL     1       7.664   8.703  29.772  0.00  0.00    +0.001 A 
ATOM      5  C12 UNL     1       8.864   8.946  30.442  0.00  0.00    +0.014 A 
ATOM      6  C13 UNL     1       9.529  10.173  30.299  0.00  0.00    +0.049 A 
ENDROOT
BRANCH   6   7
ATOM      7  C14 UNL     1      10.745  10.416  31.107  0.00  0.00    +0.250 C 
ATOM      8  O2  UNL     1      11.871  10.435  30.539  0.00  0.00    -0.270 OA
ATOM      9  N5  UNL     1      10.649  10.570  32.530  0.00  0.00    -0.265 N 
ATOM     10  C15 UNL     1      11.667  11.190  33.325  0.00  0.00    +0.151 A 
ATOM     11  C16 UNL     1      11.565  11.421  34.691  0.00  0.00    +0.112 A 
ATOM     12  C17 UNL     1      12.676  12.183  34.953  0.00  0.00    +0.215 A 
ATOM     13  N6  UNL     1      13.397  12.344  33.836  0.00  0.00    -0.231 N 
ATOM     14  N7  UNL     1      12.779  11.769  32.819  0.00  0.00    -0.153 NA
ATOM     15  C18 UNL     1      14.608  13.154  33.756  0.00  0.00    +0.157 C 
ATOM     16  C19 UNL     1      15.205  13.336  35.178  0.00  0.00    +0.024 C 
ATOM     17  C20 UNL     1      16.073  12.159  35.640  0.00  0.00    +0.012 C 
ATOM     18  C21 UNL     1      17.283  13.080  35.698  0.00  0.00    +0.001 C 
ATOM     19  C22 UNL     1      16.432  14.250  35.218  0.00  0.00    +0.012 C 
ATOM     20  C23 UNL     1      14.108  13.712  36.206  0.00  0.00    +0.239 C 
ATOM     21  O3  UNL     1      13.040  12.761  36.168  0.00  0.00    -0.476 OA
ATOM     22  H10 UNL     1       9.764  10.279  33.003  0.00  0.00    +0.157 HD
ENDBRANCH   6   7
BRANCH   1  24
ATOM     23  O1  UNL     1       9.305  13.496  29.637  0.00  0.00    -0.270 OA
ATOM     24  C1  UNL     1       9.705  12.420  29.120  0.00  0.00    +0.249 C 
ATOM     25  N1  UNL     1      10.786  12.434  28.176  0.00  0.00    -0.280 N 
ATOM     26  H1  UNL     1      10.787  11.692  27.439  0.00  0.00    +0.155 HD
BRANCH  25  27
ATOM     27  C2  UNL     1      11.882  13.363  28.200  0.00  0.00    +0.053 A 
ATOM     28  C3  UNL     1      12.189  14.103  27.027  0.00  0.00    +0.136 A 
ATOM     29  N2  UNL     1      13.291  14.909  26.973  0.00  0.00    -0.234 NA
ATOM     30  C4  UNL     1      14.086  14.997  28.063  0.00  0.00    +0.156 A 
ATOM     31  N3  UNL     1      15.220  15.693  28.182  0.00  0.00    -0.260 N 
ATOM     32  N4  UNL     1      15.712  15.466  29.396  0.00  0.00    -0.180 NA
ATOM     33  C5  UNL     1      14.878  14.621  30.050  0.00  0.00    +0.144 A 
ATOM     34  C6  UNL     1      13.832  14.318  29.209  0.00  0.00    +0.040 A 
ATOM     35  C7  UNL     1      12.733  13.480  29.326  0.00  0.00    +0.038 A 
ATOM     36  H3  UNL     1      15.664  16.301  27.460  0.00  0.00    +0.191 HD
ENDBRANCH  25  27
ENDBRANCH   1  24
TORSDOF 3
ENDMDL
MODEL 7
REMARK VINA RESULT:    -7.254      4.653      9.061
REMARK INTER + INTRA:          -9.828
REMARK INTER:                  -8.790
REMARK INTRA:                  -1.038
REMARK UNBOUND:                -1.301
REMARK  Name = /home/qwerty/github/datacon2025hack/step_04_hit_selection/docking/ligands/lig_516.pdb
REMARK  3 active torsions:
REMARK  status: ('A' for Active; 'I' for Inactive)
REMARK    1  A    between atoms: C1_2  and  C8_13
REMARK    2  A    between atoms: N1_3  and  C2_4
REMARK    3  A    between atoms: C13_18  and  C14_19
REMARK                            x       y       z     vdW  Elec       q    Type
REMARK                         _______ _______ _______ _____ _____    ______ ____
ROOT
ATOM      1  C8  UNL     1       7.733   9.124  27.809  0.00  0.00    +0.049 A 
ATOM      2  C9  UNL     1       7.133   9.662  28.961  0.00  0.00    +0.014 A 
ATOM      3  C10 UNL     1       6.845   8.851  30.059  0.00  0.00    +0.001 A 
ATOM      4  C11 UNL     1       7.152   7.493  30.023  0.00  0.00    +0.001 A 
ATOM      5  C12 UNL     1       7.766   6.944  28.896  0.00  0.00    +0.014 A 
ATOM      6  C13 UNL     1       8.086   7.748  27.791  0.00  0.00    +0.049 A 
ENDROOT
BRANCH   6   7
ATOM      7  C14 UNL     1       8.824   7.137  26.664  0.00  0.00    +0.250 C 
ATOM      8  O2  UNL     1      10.064   7.340  26.554  0.00  0.00    -0.270 OA
ATOM      9  N5  UNL     1       8.126   6.368  25.674  0.00  0.00    -0.265 N 
ATOM     10  C15 UNL     1       8.774   5.430  24.806  0.00  0.00    +0.151 A 
ATOM     11  C16 UNL     1       8.112   4.618  23.894  0.00  0.00    +0.112 A 
ATOM     12  C17 UNL     1       9.109   3.787  23.447  0.00  0.00    +0.215 A 
ATOM     13  N6  UNL     1      10.274   4.120  24.018  0.00  0.00    -0.231 N 
ATOM     14  N7  UNL     1      10.084   5.106  24.878  0.00  0.00    -0.153 NA
ATOM     15  C18 UNL     1      11.523   3.397  23.807  0.00  0.00    +0.157 C 
ATOM     16  C19 UNL     1      11.434   2.584  22.486  0.00  0.00    +0.024 C 
ATOM     17  C20 UNL     1      11.746   3.407  21.230  0.00  0.00    +0.012 C 
ATOM     18  C21 UNL     1      12.954   2.522  20.957  0.00  0.00    +0.001 C 
ATOM     19  C22 UNL     1      12.663   1.713  22.215  0.00  0.00    +0.012 C 
ATOM     20  C23 UNL     1      10.089   1.821  22.384  0.00  0.00    +0.239 C 
ATOM     21  O3  UNL     1       8.990   2.719  22.560  0.00  0.00    -0.476 OA
ATOM     22  H10 UNL     1       7.085   6.443  25.629  0.00  0.00    +0.157 HD
ENDBRANCH   6   7
BRANCH   1  24
ATOM     23  O1  UNL     1       8.574  11.073  26.753  0.00  0.00    -0.270 OA
ATOM     24  C1  UNL     1       7.919  10.005  26.631  0.00  0.00    +0.249 C 
ATOM     25  N1  UNL     1       7.284   9.689  25.383  0.00  0.00    -0.280 N 
ATOM     26  H1  UNL     1       6.411   9.115  25.422  0.00  0.00    +0.155 HD
BRANCH  25  27
ATOM     27  C2  UNL     1       7.787  10.066  24.091  0.00  0.00    +0.053 A 
ATOM     28  C3  UNL     1       7.037  10.971  23.293  0.00  0.00    +0.136 A 
ATOM     29  N2  UNL     1       7.420  11.266  22.015  0.00  0.00    -0.234 NA
ATOM     30  C4  UNL     1       8.536  10.682  21.521  0.00  0.00    +0.156 A 
ATOM     31  N3  UNL     1       9.038  10.812  20.289  0.00  0.00    -0.260 N 
ATOM     32  N4  UNL     1      10.110  10.032  20.202  0.00  0.00    -0.180 NA
ATOM     33  C5  UNL     1      10.288   9.406  21.391  0.00  0.00    +0.144 A 
ATOM     34  C6  UNL     1       9.290   9.818  22.244  0.00  0.00    +0.040 A 
ATOM     35  C7  UNL     1       8.952   9.475  23.544  0.00  0.00    +0.038 A 
ATOM     36  H3  UNL     1       8.663  11.404  19.516  0.00  0.00    +0.191 HD
ENDBRANCH  25  27
ENDBRANCH   1  24
TORSDOF 3
ENDMDL
MODEL 8
REMARK VINA RESULT:    -6.978      1.951      7.110
REMARK INTER + INTRA:          -9.503
REMARK INTER:                  -8.070
REMARK INTRA:                  -1.434
REMARK UNBOUND:                -1.301
REMARK  Name = /home/qwerty/github/datacon2025hack/step_04_hit_selection/docking/ligands/lig_516.pdb
REMARK  3 active torsions:
REMARK  status: ('A' for Active; 'I' for Inactive)
REMARK    1  A    between atoms: C1_2  and  C8_13
REMARK    2  A    between atoms: N1_3  and  C2_4
REMARK    3  A    between atoms: C13_18  and  C14_19
REMARK                            x       y       z     vdW  Elec       q    Type
REMARK                         _______ _______ _______ _____ _____    ______ ____
ROOT
ATOM      1  C8  UNL     1       8.796   8.102  22.022  0.00  0.00    +0.049 A 
ATOM      2  C9  UNL     1       7.832   9.097  21.776  0.00  0.00    +0.014 A 
ATOM      3  C10 UNL     1       8.213  10.427  21.594  0.00  0.00    +0.001 A 
ATOM      4  C11 UNL     1       9.558  10.782  21.655  0.00  0.00    +0.001 A 
ATOM      5  C12 UNL     1      10.531   9.806  21.878  0.00  0.00    +0.014 A 
ATOM      6  C13 UNL     1      10.170   8.459  22.039  0.00  0.00    +0.049 A 
ENDROOT
BRANCH   6   7
ATOM      7  C14 UNL     1      11.246   7.452  22.175  0.00  0.00    +0.250 C 
ATOM      8  O2  UNL     1      11.797   7.282  23.297  0.00  0.00    -0.270 OA
ATOM      9  N5  UNL     1      11.697   6.716  21.028  0.00  0.00    -0.265 N 
ATOM     10  C15 UNL     1      12.416   5.480  21.120  0.00  0.00    +0.151 A 
ATOM     11  C16 UNL     1      12.796   4.710  20.028  0.00  0.00    +0.112 A 
ATOM     12  C17 UNL     1      13.275   3.566  20.615  0.00  0.00    +0.215 A 
ATOM     13  N6  UNL     1      13.224   3.678  21.949  0.00  0.00    -0.231 N 
ATOM     14  N7  UNL     1      12.672   4.833  22.279  0.00  0.00    -0.153 NA
ATOM     15  C18 UNL     1      13.602   2.614  22.873  0.00  0.00    +0.157 C 
ATOM     16  C19 UNL     1      14.531   1.604  22.147  0.00  0.00    +0.024 C 
ATOM     17  C20 UNL     1      16.003   2.035  22.107  0.00  0.00    +0.012 C 
ATOM     18  C21 UNL     1      16.377   0.817  22.940  0.00  0.00    +0.001 C 
ATOM     19  C22 UNL     1      14.914   0.394  23.004  0.00  0.00    +0.012 C 
ATOM     20  C23 UNL     1      13.978   1.232  20.748  0.00  0.00    +0.239 C 
ATOM     21  O3  UNL     1      13.730   2.412  19.979  0.00  0.00    -0.476 OA
ATOM     22  H10 UNL     1      11.430   7.062  20.079  0.00  0.00    +0.157 HD
ENDBRANCH   6   7
BRANCH   1  24
ATOM     23  O1  UNL     1       7.479   6.184  21.562  0.00  0.00    -0.270 OA
ATOM     24  C1  UNL     1       8.331   6.725  22.315  0.00  0.00    +0.249 C 
ATOM     25  N1  UNL     1       8.781   6.045  23.497  0.00  0.00    -0.280 N 
ATOM     26  H1  UNL     1       9.074   6.637  24.308  0.00  0.00    +0.155 HD
BRANCH  25  27
ATOM     27  C2  UNL     1       8.897   4.619  23.626  0.00  0.00    +0.053 A 
ATOM     28  C3  UNL     1       8.524   4.001  24.850  0.00  0.00    +0.136 A 
ATOM     29  N2  UNL     1       8.727   2.665  25.054  0.00  0.00    -0.234 NA
ATOM     30  C4  UNL     1       9.288   1.935  24.063  0.00  0.00    +0.156 A 
ATOM     31  N3  UNL     1       9.602   0.636  24.095  0.00  0.00    -0.260 N 
ATOM     32  N4  UNL     1      10.178   0.328  22.938  0.00  0.00    -0.180 NA
ATOM     33  C5  UNL     1      10.226   1.442  22.167  0.00  0.00    +0.144 A 
ATOM     34  C6  UNL     1       9.655   2.475  22.875  0.00  0.00    +0.040 A 
ATOM     35  C7  UNL     1       9.479   3.824  22.608  0.00  0.00    +0.038 A 
ATOM     36  H3  UNL     1       9.444  -0.030  24.882  0.00  0.00    +0.191 HD
ENDBRANCH  25  27
ENDBRANCH   1  24
TORSDOF 3
ENDMDL
MODEL 9
REMARK VINA RESULT:    -6.917     13.387     14.916
REMARK INTER + INTRA:          -9.431
REMARK INTER:                  -8.161
REMARK INTRA:                  -1.270
REMARK UNBOUND:                -1.301
REMARK  Name = /home/qwerty/github/datacon2025hack/step_04_hit_selection/docking/ligands/lig_516.pdb
REMARK  3 active torsions:
REMARK  status: ('A' for Active; 'I' for Inactive)
REMARK    1  A    between atoms: C1_2  and  C8_13
REMARK    2  A    between atoms: N1_3  and  C2_4
REMARK    3  A    between atoms: C13_18  and  C14_19
REMARK                            x       y       z     vdW  Elec       q    Type
REMARK                         _______ _______ _______ _____ _____    ______ ____
ROOT
ATOM      1  C8  UNL     1      20.923   1.797  30.164  0.00  0.00    +0.049 A 
ATOM      2  C9  UNL     1      21.326   0.864  29.192  0.00  0.00    +0.014 A 
ATOM      3  C10 UNL     1      21.810   1.290  27.954  0.00  0.00    +0.001 A 
ATOM      4  C11 UNL     1      21.899   2.650  27.670  0.00  0.00    +0.001 A 
ATOM      5  C12 UNL     1      21.522   3.592  28.629  0.00  0.00    +0.014 A 
ATOM      6  C13 UNL     1      21.056   3.184  29.889  0.00  0.00    +0.049 A 
ENDROOT
BRANCH   6   7
ATOM      7  C14 UNL     1      20.764   4.222  30.903  0.00  0.00    +0.250 C 
ATOM      8  O2  UNL     1      19.585   4.653  31.026  0.00  0.00    -0.270 OA
ATOM      9  N5  UNL     1      21.823   4.774  31.699  0.00  0.00    -0.265 N 
ATOM     10  C15 UNL     1      21.601   5.456  32.939  0.00  0.00    +0.151 A 
ATOM     11  C16 UNL     1      22.611   5.930  33.766  0.00  0.00    +0.112 A 
ATOM     12  C17 UNL     1      21.925   6.326  34.887  0.00  0.00    +0.215 A 
ATOM     13  N6  UNL     1      20.610   6.142  34.710  0.00  0.00    -0.231 N 
ATOM     14  N7  UNL     1      20.393   5.581  33.533  0.00  0.00    -0.153 NA
ATOM     15  C18 UNL     1      19.604   6.405  35.732  0.00  0.00    +0.157 C 
ATOM     16  C19 UNL     1      20.182   7.385  36.790  0.00  0.00    +0.024 C 
ATOM     17  C20 UNL     1      20.092   8.860  36.381  0.00  0.00    +0.012 C 
ATOM     18  C21 UNL     1      19.169   9.125  37.561  0.00  0.00    +0.001 C 
ATOM     19  C22 UNL     1      19.235   7.656  37.961  0.00  0.00    +0.012 C 
ATOM     20  C23 UNL     1      21.611   6.969  37.221  0.00  0.00    +0.239 C 
ATOM     21  O3  UNL     1      22.457   6.822  36.076  0.00  0.00    -0.476 OA
ATOM     22  H10 UNL     1      22.810   4.610  31.397  0.00  0.00    +0.157 HD
ENDBRANCH   6   7
BRANCH   1  24
ATOM     23  O1  UNL     1      21.009   0.600  32.209  0.00  0.00    -0.270 OA
ATOM     24  C1  UNL     1      20.316   1.293  31.419  0.00  0.00    +0.249 C 
ATOM     25  N1  UNL     1      18.925   1.518  31.692  0.00  0.00    -0.280 N 
ATOM     26  H1  UNL     1      18.291   1.651  30.870  0.00  0.00    +0.155 HD
BRANCH  25  27
ATOM     27  C2  UNL     1      18.354   1.616  33.007  0.00  0.00    +0.053 A 
ATOM     28  C3  UNL     1      18.557   2.801  33.763  0.00  0.00    +0.136 A 
ATOM     29  N2  UNL     1      18.131   2.890  35.059  0.00  0.00    -0.234 NA
ATOM     30  C4  UNL     1      17.503   1.827  35.611  0.00  0.00    +0.156 A 
ATOM     31  N3  UNL     1      17.059   1.712  36.866  0.00  0.00    -0.260 N 
ATOM     32  N4  UNL     1      16.553   0.492  37.009  0.00  0.00    -0.180 NA
ATOM     33  C5  UNL     1      16.676  -0.169  35.833  0.00  0.00    +0.144 A 
ATOM     34  C6  UNL     1      17.278   0.676  34.929  0.00  0.00    +0.040 A 
ATOM     35  C7  UNL     1      17.690   0.521  33.614  0.00  0.00    +0.038 A 
ATOM     36  H3  UNL     1      17.104   2.434  37.617  0.00  0.00    +0.191 HD
ENDBRANCH  25  27
ENDBRANCH   1  24
TORSDOF 3
ENDMDL
