REMARK  Name = /home/qwerty/github/datacon2025hack/step_04_hit_selection/docking/ligands/lig_636.pdb
REMARK  5 active torsions:
REMARK  status: ('A' for Active; 'I' for Inactive)
REMARK    1  A    between atoms: C1_1  and  C2_2
REMARK    2  A    between atoms: N1_4  and  C3_5
REMARK    3  A    between atoms: C6_8  and  O2_9
REMARK    4  A    between atoms: C7_10  and  C8_11
REMARK    5  A    between atoms: C11_16  and  N3_17
REMARK                            x       y       z     vdW  Elec       q    Type
REMARK                         _______ _______ _______ _____ _____    ______ ____
ROOT
ATOM      1  C3  UNL     1       4.342  -1.028   0.142  0.00  0.00    +0.034 A 
ATOM      2  C4  UNL     1       5.226  -0.395  -0.747  0.00  0.00    +0.027 A 
ATOM      3  C5  UNL     1       4.757   0.134  -1.952  0.00  0.00    +0.048 A 
ATOM      4  C6  UNL     1       3.405   0.033  -2.294  0.00  0.00    +0.129 A 
ATOM      5  C7  UNL     1       2.511  -0.619  -1.418  0.00  0.00    +0.080 A 
ATOM      6  C18 UNL     1       2.992  -1.156  -0.214  0.00  0.00    +0.040 A 
ENDROOT
BRANCH   5   7
ATOM      7  C8  UNL     1       1.085  -0.782  -1.757  0.00  0.00    +0.250 C 
ATOM      8  O3  UNL     1       0.772  -1.458  -2.775  0.00  0.00    -0.270 OA
ATOM      9  N2  UNL     1       0.054  -0.187  -0.948  0.00  0.00    -0.296 N 
ATOM     10  C9  UNL     1       0.300   0.783   0.103  0.00  0.00    +0.110 C 
ATOM     11  C10 UNL     1      -1.071   1.129   0.665  0.00  0.00    +0.039 C 
ATOM     12  C11 UNL     1      -2.090   0.710  -0.410  0.00  0.00    +0.075 C 
ATOM     13  C17 UNL     1      -1.362  -0.397  -1.191  0.00  0.00    +0.127 C 
BRANCH  12  14
ATOM     14  N3  UNL     1      -3.381   0.252   0.175  0.00  0.00    -0.298 NA
ATOM     15  C12 UNL     1      -4.074   1.337   0.930  0.00  0.00    +0.085 C 
ATOM     16  C13 UNL     1      -5.144   2.053   0.094  0.00  0.00    +0.015 C 
ATOM     17  C14 UNL     1      -6.247   1.076  -0.346  0.00  0.00    +0.002 C 
ATOM     18  C15 UNL     1      -5.734  -0.367  -0.467  0.00  0.00    +0.015 C 
ATOM     19  C16 UNL     1      -4.250  -0.390  -0.853  0.00  0.00    +0.085 C 
ENDBRANCH  12  14
ENDBRANCH   5   7
BRANCH   1  23
ATOM     20  C1  UNL     1       6.392  -1.839   3.334  0.00  0.00    +0.109 C 
ATOM     21  C2  UNL     1       5.863  -1.062   2.174  0.00  0.00    +0.214 C 
ATOM     22  O1  UNL     1       6.299   0.101   1.958  0.00  0.00    -0.276 OA
ATOM     23  N1  UNL     1       4.803  -1.607   1.375  0.00  0.00    -0.286 N 
ATOM     24  H4  UNL     1       4.279  -2.425   1.761  0.00  0.00    +0.155 HD
ENDBRANCH   1  23
BRANCH   4  25
ATOM     25  O2  UNL     1       2.980   0.599  -3.498  0.00  0.00    -0.506 OA
ATOM     26  H7  UNL     1       2.011   0.611  -3.788  0.00  0.00    +0.292 HD
ENDBRANCH   4  25
TORSDOF 4
