REMARK  Name = /home/qwerty/github/datacon2025hack/step_04_hit_selection/docking/ligands/lig_783.pdb
REMARK  6 active torsions:
REMARK  status: ('A' for Active; 'I' for Inactive)
REMARK    1  A    between atoms: C1_2  and  C9_15
REMARK    2  A    between atoms: N1_3  and  C2_4
REMARK    3  A    between atoms: C2_4  and  C3_5
REMARK    4  A    between atoms: C3_5  and  C4_6
REMARK    5  A    between atoms: C3_5  and  N2_8
REMARK    6  A    between atoms: C4_6  and  O2_7
REMARK                            x       y       z     vdW  Elec       q    Type
REMARK                         _______ _______ _______ _____ _____    ______ ____
ROOT
ATOM      1  O1  UNL     1      -0.878   1.746   1.181  0.00  0.00    -0.270 OA
ATOM      2  C1  UNL     1      -1.444   0.619   1.142  0.00  0.00    +0.244 C 
ATOM      3  N1  UNL     1      -0.784  -0.525   1.707  0.00  0.00    -0.310 N 
ATOM      4  H1  UNL     1      -1.337  -1.383   1.928  0.00  0.00    +0.149 HD
ENDROOT
BRANCH   2   5
ATOM      5  C9  UNL     1      -2.788   0.500   0.529  0.00  0.00    +0.038 A 
ATOM      6  C10 UNL     1      -3.250  -0.742   0.023  0.00  0.00    +0.015 A 
ATOM      7  C11 UNL     1      -4.521  -0.851  -0.566  0.00  0.00    +0.029 A 
ATOM      8  C12 UNL     1      -5.323   0.286  -0.653  0.00  0.00    +0.078 A 
ATOM      9  N5  UNL     1      -6.565   0.310  -1.200  0.00  0.00    -0.247 NA
ATOM     10  C13 UNL     1      -7.100   1.555  -1.148  0.00  0.00    +0.157 A 
ATOM     11  S1  UNL     1      -6.047   2.664  -0.422  0.00  0.00    -0.075 S 
ATOM     12  C14 UNL     1      -4.867   1.499  -0.169  0.00  0.00    +0.040 A 
ATOM     13  C15 UNL     1      -3.614   1.640   0.419  0.00  0.00    +0.030 A 
ENDBRANCH   2   5
BRANCH   3  14
ATOM     14  C2  UNL     1       0.629  -0.508   2.085  0.00  0.00    +0.129 C 
BRANCH  14  15
ATOM     15  C3  UNL     1       1.539  -0.501   0.840  0.00  0.00    +0.115 C 
BRANCH  15  16
ATOM     16  N2  UNL     1       2.945  -0.392   1.246  0.00  0.00    -0.307 N 
ATOM     17  C5  UNL     1       3.979   0.041   0.351  0.00  0.00    +0.215 A 
ATOM     18  N3  UNL     1       3.682   0.420  -0.922  0.00  0.00    -0.223 NA
ATOM     19  C6  UNL     1       4.655   0.834  -1.775  0.00  0.00    +0.116 A 
ATOM     20  C7  UNL     1       5.981   0.876  -1.348  0.00  0.00    +0.039 A 
ATOM     21  C8  UNL     1       6.270   0.487  -0.041  0.00  0.00    +0.116 A 
ATOM     22  N4  UNL     1       5.269   0.079   0.781  0.00  0.00    -0.223 NA
ATOM     23  H8  UNL     1       3.216  -0.623   2.229  0.00  0.00    +0.149 HD
ENDBRANCH  15  16
BRANCH  15  24
ATOM     24  C4  UNL     1       1.332  -1.760  -0.026  0.00  0.00    +0.179 C 
BRANCH  24  25
ATOM     25  O2  UNL     1       1.626  -2.926   0.696  0.00  0.00    -0.393 OA
ATOM     26  H7  UNL     1       2.614  -3.029   0.684  0.00  0.00    +0.209 HD
ENDBRANCH  24  25
ENDBRANCH  15  24
ENDBRANCH  14  15
ENDBRANCH   3  14
TORSDOF 6
