MODEL 1
REMARK VINA RESULT:    -7.070      0.000      0.000
REMARK INTER + INTRA:          -9.178
REMARK INTER:                  -8.517
REMARK INTRA:                  -0.661
REMARK UNBOUND:                -0.661
REMARK  Name = /home/qwerty/github/datacon2025hack/step_04_hit_selection/docking/ligands/lig_551.pdb
REMARK  6 active torsions:
REMARK  status: ('A' for Active; 'I' for Inactive)
REMARK    1  A    between atoms: C1_1  and  N1_2
REMARK    2  A    between atoms: N1_2  and  C2_3
REMARK    3  A    between atoms: C3_4  and  C4_6
REMARK    4  A    between atoms: C8_10  and  C9_11
REMARK    5  A    between atoms: C13_16  and  C14_17
REMARK    6  A    between atoms: C18_21  and  N3_22
REMARK                            x       y       z     vdW  Elec       q    Type
REMARK                         _______ _______ _______ _____ _____    ______ ____
ROOT
ATOM      1  C9  UNL     1      20.689   8.528  36.162  0.00  0.00    +0.072 A 
ATOM      2  C10 UNL     1      20.128   7.969  37.346  0.00  0.00    +0.030 A 
ATOM      3  C11 UNL     1      18.973   8.534  37.915  0.00  0.00    +0.030 A 
ATOM      4  C12 UNL     1      18.423   9.642  37.282  0.00  0.00    +0.065 A 
ATOM      5  N2  UNL     1      17.339  10.350  37.637  0.00  0.00    -0.353 N 
ATOM      6  C13 UNL     1      17.225  11.339  36.709  0.00  0.00    +0.049 A 
ATOM      7  C20 UNL     1      18.253  11.248  35.763  0.00  0.00    +0.056 A 
ATOM      8  C21 UNL     1      18.991  10.160  36.160  0.00  0.00    +0.090 A 
ATOM      9  N4  UNL     1      20.103   9.630  35.595  0.00  0.00    -0.245 NA
ATOM     10  H12 UNL     1      16.736  10.177  38.471  0.00  0.00    +0.166 HD
ENDROOT
BRANCH   1  15
ATOM     11  C4  UNL     1      23.667   8.016  33.841  0.00  0.00    +0.038 A 
ATOM     12  C5  UNL     1      24.241   6.867  34.405  0.00  0.00    +0.013 A 
ATOM     13  C6  UNL     1      23.657   6.263  35.520  0.00  0.00    +0.001 A 
ATOM     14  C7  UNL     1      22.498   6.802  36.084  0.00  0.00    +0.010 A 
ATOM     15  C8  UNL     1      21.910   7.958  35.541  0.00  0.00    +0.001 A 
ATOM     16  C22 UNL     1      22.516   8.569  34.426  0.00  0.00    +0.023 A 
BRANCH  11  20
ATOM     17  C1  UNL     1      22.783   7.609  30.958  0.00  0.00    +0.132 C 
ATOM     18  N1  UNL     1      23.666   8.700  31.383  0.00  0.00    -0.304 N 
ATOM     19  C2  UNL     1      24.031   9.759  30.438  0.00  0.00    +0.132 C 
ATOM     20  C3  UNL     1      24.305   8.664  32.674  0.00  0.00    +0.246 C 
ATOM     21  O1  UNL     1      25.443   9.189  32.820  0.00  0.00    -0.270 OA
ENDBRANCH  11  20
ENDBRANCH   1  15
BRANCH   6  22
ATOM     22  C14 UNL     1      16.153  12.365  36.719  0.00  0.00    +0.000 A 
ATOM     23  C15 UNL     1      14.803  11.989  36.854  0.00  0.00    +0.010 A 
ATOM     24  C16 UNL     1      13.795  12.956  36.861  0.00  0.00    +0.002 A 
ATOM     25  C17 UNL     1      14.118  14.308  36.737  0.00  0.00    +0.023 A 
ATOM     26  C18 UNL     1      15.455  14.702  36.604  0.00  0.00    +0.025 A 
ATOM     27  C19 UNL     1      16.467  13.732  36.595  0.00  0.00    +0.032 A 
BRANCH  26  28
ATOM     28  N3  UNL     1      15.786  16.089  36.482  0.00  0.00    -0.358 N 
ATOM     29  H16 UNL     1      15.082  16.828  36.704  0.00  0.00    +0.142 HD
ATOM     30  H17 UNL     1      16.737  16.386  36.172  0.00  0.00    +0.142 HD
ENDBRANCH  26  28
ENDBRANCH   6  22
TORSDOF 4
ENDMDL
MODEL 2
REMARK VINA RESULT:    -7.041     11.181     14.806
REMARK INTER + INTRA:          -9.142
REMARK INTER:                  -8.504
REMARK INTRA:                  -0.638
REMARK UNBOUND:                -0.661
REMARK  Name = /home/qwerty/github/datacon2025hack/step_04_hit_selection/docking/ligands/lig_551.pdb
REMARK  6 active torsions:
REMARK  status: ('A' for Active; 'I' for Inactive)
REMARK    1  A    between atoms: C1_1  and  N1_2
REMARK    2  A    between atoms: N1_2  and  C2_3
REMARK    3  A    between atoms: C3_4  and  C4_6
REMARK    4  A    between atoms: C8_10  and  C9_11
REMARK    5  A    between atoms: C13_16  and  C14_17
REMARK    6  A    between atoms: C18_21  and  N3_22
REMARK                            x       y       z     vdW  Elec       q    Type
REMARK                         _______ _______ _______ _____ _____    ______ ____
ROOT
ATOM      1  C9  UNL     1      19.288   1.649  24.753  0.00  0.00    +0.072 A 
ATOM      2  C10 UNL     1      18.838   0.329  24.462  0.00  0.00    +0.030 A 
ATOM      3  C11 UNL     1      17.755   0.130  23.588  0.00  0.00    +0.030 A 
ATOM      4  C12 UNL     1      17.157   1.258  23.040  0.00  0.00    +0.065 A 
ATOM      5  N2  UNL     1      16.117   1.321  22.195  0.00  0.00    -0.353 N 
ATOM      6  C13 UNL     1      15.905   2.645  21.968  0.00  0.00    +0.049 A 
ATOM      7  C20 UNL     1      16.826   3.421  22.683  0.00  0.00    +0.056 A 
ATOM      8  C21 UNL     1      17.603   2.506  23.350  0.00  0.00    +0.090 A 
ATOM      9  N4  UNL     1      18.645   2.720  24.189  0.00  0.00    -0.245 NA
ATOM     10  H12 UNL     1      15.577   0.510  21.820  0.00  0.00    +0.166 HD
ENDROOT
BRANCH   1  15
ATOM     11  C4  UNL     1      21.566   1.512  27.805  0.00  0.00    +0.038 A 
ATOM     12  C5  UNL     1      22.608   2.354  27.389  0.00  0.00    +0.013 A 
ATOM     13  C6  UNL     1      22.561   2.965  26.135  0.00  0.00    +0.001 A 
ATOM     14  C7  UNL     1      21.476   2.739  25.283  0.00  0.00    +0.010 A 
ATOM     15  C8  UNL     1      20.425   1.892  25.676  0.00  0.00    +0.001 A 
ATOM     16  C22 UNL     1      20.490   1.268  26.937  0.00  0.00    +0.023 A 
BRANCH  11  20
ATOM     17  C1  UNL     1      20.637   2.780  30.410  0.00  0.00    +0.132 C 
ATOM     18  N1  UNL     1      20.901   1.345  30.263  0.00  0.00    -0.304 N 
ATOM     19  C2  UNL     1      20.559   0.421  31.347  0.00  0.00    +0.132 C 
ATOM     20  C3  UNL     1      21.635   0.849  29.126  0.00  0.00    +0.246 C 
ATOM     21  O1  UNL     1      22.364  -0.173  29.254  0.00  0.00    -0.270 OA
ENDBRANCH  11  20
ENDBRANCH   1  15
BRANCH   6  22
ATOM     22  C14 UNL     1      14.837   3.175  21.083  0.00  0.00    +0.000 A 
ATOM     23  C15 UNL     1      15.126   4.169  20.129  0.00  0.00    +0.010 A 
ATOM     24  C16 UNL     1      14.120   4.667  19.298  0.00  0.00    +0.002 A 
ATOM     25  C17 UNL     1      12.815   4.183  19.406  0.00  0.00    +0.023 A 
ATOM     26  C18 UNL     1      12.510   3.193  20.348  0.00  0.00    +0.025 A 
ATOM     27  C19 UNL     1      13.518   2.692  21.183  0.00  0.00    +0.032 A 
BRANCH  26  28
ATOM     28  N3  UNL     1      11.173   2.691  20.453  0.00  0.00    -0.358 N 
ATOM     29  H16 UNL     1      10.356   3.288  20.193  0.00  0.00    +0.142 HD
ATOM     30  H17 UNL     1      10.992   1.720  20.791  0.00  0.00    +0.142 HD
ENDBRANCH  26  28
ENDBRANCH   6  22
TORSDOF 4
ENDMDL
MODEL 3
REMARK VINA RESULT:    -6.996     15.605     17.661
REMARK INTER + INTRA:          -9.088
REMARK INTER:                  -8.443
REMARK INTRA:                  -0.645
REMARK UNBOUND:                -0.661
REMARK  Name = /home/qwerty/github/datacon2025hack/step_04_hit_selection/docking/ligands/lig_551.pdb
REMARK  6 active torsions:
REMARK  status: ('A' for Active; 'I' for Inactive)
REMARK    1  A    between atoms: C1_1  and  N1_2
REMARK    2  A    between atoms: N1_2  and  C2_3
REMARK    3  A    between atoms: C3_4  and  C4_6
REMARK    4  A    between atoms: C8_10  and  C9_11
REMARK    5  A    between atoms: C13_16  and  C14_17
REMARK    6  A    between atoms: C18_21  and  N3_22
REMARK                            x       y       z     vdW  Elec       q    Type
REMARK                         _______ _______ _______ _____ _____    ______ ____
ROOT
ATOM      1  C9  UNL     1      14.218   2.211  20.574  0.00  0.00    +0.072 A 
ATOM      2  C10 UNL     1      14.666   3.333  19.820  0.00  0.00    +0.030 A 
ATOM      3  C11 UNL     1      13.803   4.419  19.590  0.00  0.00    +0.030 A 
ATOM      4  C12 UNL     1      12.520   4.341  20.118  0.00  0.00    +0.065 A 
ATOM      5  N2  UNL     1      11.527   5.240  20.026  0.00  0.00    -0.353 N 
ATOM      6  C13 UNL     1      10.474   4.695  20.693  0.00  0.00    +0.049 A 
ATOM      7  C20 UNL     1      10.814   3.437  21.207  0.00  0.00    +0.056 A 
ATOM      8  C21 UNL     1      12.119   3.249  20.823  0.00  0.00    +0.090 A 
ATOM      9  N4  UNL     1      12.935   2.193  21.056  0.00  0.00    -0.245 NA
ATOM     10  H12 UNL     1      11.566   6.152  19.521  0.00  0.00    +0.166 HD
ENDROOT
BRANCH   1  15
ATOM     11  C4  UNL     1      16.101  -0.582  22.356  0.00  0.00    +0.038 A 
ATOM     12  C5  UNL     1      16.765  -1.178  21.274  0.00  0.00    +0.013 A 
ATOM     13  C6  UNL     1      16.609  -0.668  19.984  0.00  0.00    +0.001 A 
ATOM     14  C7  UNL     1      15.785   0.439  19.762  0.00  0.00    +0.010 A 
ATOM     15  C8  UNL     1      15.102   1.047  20.830  0.00  0.00    +0.001 A 
ATOM     16  C22 UNL     1      15.254   0.514  22.125  0.00  0.00    +0.023 A 
BRANCH  11  20
ATOM     17  C1  UNL     1      17.983   0.533  24.471  0.00  0.00    +0.132 C 
ATOM     18  N1  UNL     1      16.898  -0.407  24.773  0.00  0.00    -0.304 N 
ATOM     19  C2  UNL     1      16.568  -0.724  26.166  0.00  0.00    +0.132 C 
ATOM     20  C3  UNL     1      16.252  -1.144  23.716  0.00  0.00    +0.246 C 
ATOM     21  O1  UNL     1      15.808  -2.302  23.947  0.00  0.00    -0.270 OA
ENDBRANCH  11  20
ENDBRANCH   1  15
BRANCH   6  22
ATOM     22  C14 UNL     1       9.154   5.356  20.841  0.00  0.00    +0.000 A 
ATOM     23  C15 UNL     1       7.964   4.635  20.628  0.00  0.00    +0.010 A 
ATOM     24  C16 UNL     1       6.722   5.259  20.767  0.00  0.00    +0.002 A 
ATOM     25  C17 UNL     1       6.649   6.608  21.119  0.00  0.00    +0.023 A 
ATOM     26  C18 UNL     1       7.822   7.341  21.337  0.00  0.00    +0.025 A 
ATOM     27  C19 UNL     1       9.069   6.716  21.197  0.00  0.00    +0.032 A 
BRANCH  26  28
ATOM     28  N3  UNL     1       7.747   8.723  21.704  0.00  0.00    -0.358 N 
ATOM     29  H16 UNL     1       7.990   9.473  21.019  0.00  0.00    +0.142 HD
ATOM     30  H17 UNL     1       7.447   9.005  22.664  0.00  0.00    +0.142 HD
ENDBRANCH  26  28
ENDBRANCH   6  22
TORSDOF 4
ENDMDL
MODEL 4
REMARK VINA RESULT:    -6.972     14.114     16.746
REMARK INTER + INTRA:          -9.060
REMARK INTER:                  -8.429
REMARK INTRA:                  -0.631
REMARK UNBOUND:                -0.661
REMARK  Name = /home/qwerty/github/datacon2025hack/step_04_hit_selection/docking/ligands/lig_551.pdb
REMARK  6 active torsions:
REMARK  status: ('A' for Active; 'I' for Inactive)
REMARK    1  A    between atoms: C1_1  and  N1_2
REMARK    2  A    between atoms: N1_2  and  C2_3
REMARK    3  A    between atoms: C3_4  and  C4_6
REMARK    4  A    between atoms: C8_10  and  C9_11
REMARK    5  A    between atoms: C13_16  and  C14_17
REMARK    6  A    between atoms: C18_21  and  N3_22
REMARK                            x       y       z     vdW  Elec       q    Type
REMARK                         _______ _______ _______ _____ _____    ______ ____
ROOT
ATOM      1  C9  UNL     1      18.744  11.753  19.702  0.00  0.00    +0.072 A 
ATOM      2  C10 UNL     1      17.409  11.833  19.212  0.00  0.00    +0.030 A 
ATOM      3  C11 UNL     1      16.598  10.685  19.182  0.00  0.00    +0.030 A 
ATOM      4  C12 UNL     1      17.154   9.496  19.639  0.00  0.00    +0.065 A 
ATOM      5  N2  UNL     1      16.584   8.282  19.701  0.00  0.00    -0.353 N 
ATOM      6  C13 UNL     1      17.538   7.453  20.205  0.00  0.00    +0.049 A 
ATOM      7  C20 UNL     1      18.720   8.159  20.459  0.00  0.00    +0.056 A 
ATOM      8  C21 UNL     1      18.437   9.451  20.089  0.00  0.00    +0.090 A 
ATOM      9  N4  UNL     1      19.235  10.545  20.126  0.00  0.00    -0.245 NA
ATOM     10  H12 UNL     1      15.616   8.039  19.397  0.00  0.00    +0.166 HD
ENDROOT
BRANCH   1  15
ATOM     11  C4  UNL     1      20.683  14.782  20.963  0.00  0.00    +0.038 A 
ATOM     12  C5  UNL     1      21.329  15.185  19.786  0.00  0.00    +0.013 A 
ATOM     13  C6  UNL     1      21.126  14.484  18.596  0.00  0.00    +0.001 A 
ATOM     14  C7  UNL     1      20.279  13.373  18.571  0.00  0.00    +0.010 A 
ATOM     15  C8  UNL     1      19.627  12.945  19.741  0.00  0.00    +0.001 A 
ATOM     16  C22 UNL     1      19.852  13.650  20.940  0.00  0.00    +0.023 A 
BRANCH  11  20
ATOM     17  C1  UNL     1      22.805  14.022  23.008  0.00  0.00    +0.132 C 
ATOM     18  N1  UNL     1      22.126  15.323  22.997  0.00  0.00    -0.304 N 
ATOM     19  C2  UNL     1      22.576  16.393  23.891  0.00  0.00    +0.132 C 
ATOM     20  C3  UNL     1      20.923  15.514  22.226  0.00  0.00    +0.246 C 
ATOM     21  O1  UNL     1      20.044  16.320  22.636  0.00  0.00    -0.270 OA
ENDBRANCH  11  20
ENDBRANCH   1  15
BRANCH   6  22
ATOM     22  C14 UNL     1      17.335   6.002  20.442  0.00  0.00    +0.000 A 
ATOM     23  C15 UNL     1      18.201   5.287  21.290  0.00  0.00    +0.010 A 
ATOM     24  C16 UNL     1      18.009   3.921  21.511  0.00  0.00    +0.002 A 
ATOM     25  C17 UNL     1      16.953   3.251  20.892  0.00  0.00    +0.023 A 
ATOM     26  C18 UNL     1      16.079   3.946  20.047  0.00  0.00    +0.025 A 
ATOM     27  C19 UNL     1      16.271   5.317  19.823  0.00  0.00    +0.032 A 
BRANCH  26  28
ATOM     28  N3  UNL     1      14.992   3.260  19.417  0.00  0.00    -0.358 N 
ATOM     29  H16 UNL     1      14.062   3.188  19.886  0.00  0.00    +0.142 HD
ATOM     30  H17 UNL     1      15.110   2.821  18.477  0.00  0.00    +0.142 HD
ENDBRANCH  26  28
ENDBRANCH   6  22
TORSDOF 4
ENDMDL
MODEL 5
REMARK VINA RESULT:    -6.917     11.404     15.126
REMARK INTER + INTRA:          -8.993
REMARK INTER:                  -8.351
REMARK INTRA:                  -0.641
REMARK UNBOUND:                -0.661
REMARK  Name = /home/qwerty/github/datacon2025hack/step_04_hit_selection/docking/ligands/lig_551.pdb
REMARK  6 active torsions:
REMARK  status: ('A' for Active; 'I' for Inactive)
REMARK    1  A    between atoms: C1_1  and  N1_2
REMARK    2  A    between atoms: N1_2  and  C2_3
REMARK    3  A    between atoms: C3_4  and  C4_6
REMARK    4  A    between atoms: C8_10  and  C9_11
REMARK    5  A    between atoms: C13_16  and  C14_17
REMARK    6  A    between atoms: C18_21  and  N3_22
REMARK                            x       y       z     vdW  Elec       q    Type
REMARK                         _______ _______ _______ _____ _____    ______ ____
ROOT
ATOM      1  C9  UNL     1      16.793   0.551  24.477  0.00  0.00    +0.072 A 
ATOM      2  C10 UNL     1      15.766   0.187  25.394  0.00  0.00    +0.030 A 
ATOM      3  C11 UNL     1      16.001   0.252  26.779  0.00  0.00    +0.030 A 
ATOM      4  C12 UNL     1      17.257   0.673  27.197  0.00  0.00    +0.065 A 
ATOM      5  N2  UNL     1      17.715   0.808  28.452  0.00  0.00    -0.353 N 
ATOM      6  C13 UNL     1      19.001   1.233  28.332  0.00  0.00    +0.049 A 
ATOM      7  C20 UNL     1      19.353   1.364  26.983  0.00  0.00    +0.056 A 
ATOM      8  C21 UNL     1      18.221   1.001  26.295  0.00  0.00    +0.090 A 
ATOM      9  N4  UNL     1      18.015   0.947  24.957  0.00  0.00    -0.245 NA
ATOM     10  H12 UNL     1      17.185   0.600  29.327  0.00  0.00    +0.166 HD
ENDROOT
BRANCH   1  15
ATOM     11  C4  UNL     1      15.986   1.556  20.891  0.00  0.00    +0.038 A 
ATOM     12  C5  UNL     1      16.207   0.341  20.226  0.00  0.00    +0.013 A 
ATOM     13  C6  UNL     1      16.602  -0.791  20.940  0.00  0.00    +0.001 A 
ATOM     14  C7  UNL     1      16.785  -0.721  22.324  0.00  0.00    +0.010 A 
ATOM     15  C8  UNL     1      16.578   0.489  23.010  0.00  0.00    +0.001 A 
ATOM     16  C22 UNL     1      16.195   1.630  22.278  0.00  0.00    +0.023 A 
BRANCH  11  20
ATOM     17  C1  UNL     1      13.109   2.453  20.471  0.00  0.00    +0.132 C 
ATOM     18  N1  UNL     1      14.267   3.318  20.220  0.00  0.00    -0.304 N 
ATOM     19  C2  UNL     1      14.070   4.736  19.908  0.00  0.00    +0.132 C 
ATOM     20  C3  UNL     1      15.592   2.758  20.124  0.00  0.00    +0.246 C 
ATOM     21  O1  UNL     1      16.441   3.296  19.362  0.00  0.00    -0.270 OA
ENDBRANCH  11  20
ENDBRANCH   1  15
BRANCH   6  22
ATOM     22  C14 UNL     1      19.894   1.511  29.484  0.00  0.00    +0.000 A 
ATOM     23  C15 UNL     1      20.914   2.476  29.383  0.00  0.00    +0.010 A 
ATOM     24  C16 UNL     1      21.754   2.735  30.469  0.00  0.00    +0.002 A 
ATOM     25  C17 UNL     1      21.589   2.039  31.668  0.00  0.00    +0.023 A 
ATOM     26  C18 UNL     1      20.578   1.077  31.787  0.00  0.00    +0.025 A 
ATOM     27  C19 UNL     1      19.735   0.816  30.698  0.00  0.00    +0.032 A 
BRANCH  26  28
ATOM     28  N3  UNL     1      20.405   0.368  33.018  0.00  0.00    -0.358 N 
ATOM     29  H16 UNL     1      20.428   0.872  33.934  0.00  0.00    +0.142 HD
ATOM     30  H17 UNL     1      20.251  -0.664  33.024  0.00  0.00    +0.142 HD
ENDBRANCH  26  28
ENDBRANCH   6  22
TORSDOF 4
ENDMDL
MODEL 6
REMARK VINA RESULT:    -6.915     12.111     14.556
REMARK INTER + INTRA:          -8.991
REMARK INTER:                  -8.373
REMARK INTRA:                  -0.619
REMARK UNBOUND:                -0.661
REMARK  Name = /home/qwerty/github/datacon2025hack/step_04_hit_selection/docking/ligands/lig_551.pdb
REMARK  6 active torsions:
REMARK  status: ('A' for Active; 'I' for Inactive)
REMARK    1  A    between atoms: C1_1  and  N1_2
REMARK    2  A    between atoms: N1_2  and  C2_3
REMARK    3  A    between atoms: C3_4  and  C4_6
REMARK    4  A    between atoms: C8_10  and  C9_11
REMARK    5  A    between atoms: C13_16  and  C14_17
REMARK    6  A    between atoms: C18_21  and  N3_22
REMARK                            x       y       z     vdW  Elec       q    Type
REMARK                         _______ _______ _______ _____ _____    ______ ____
ROOT
ATOM      1  C9  UNL     1      21.918   5.864  22.650  0.00  0.00    +0.072 A 
ATOM      2  C10 UNL     1      20.906   4.987  22.162  0.00  0.00    +0.030 A 
ATOM      3  C11 UNL     1      20.487   3.892  22.938  0.00  0.00    +0.030 A 
ATOM      4  C12 UNL     1      21.099   3.710  24.173  0.00  0.00    +0.065 A 
ATOM      5  N2  UNL     1      20.875   2.745  25.078  0.00  0.00    -0.353 N 
ATOM      6  C13 UNL     1      21.731   2.996  26.104  0.00  0.00    +0.049 A 
ATOM      7  C20 UNL     1      22.502   4.133  25.836  0.00  0.00    +0.056 A 
ATOM      8  C21 UNL     1      22.072   4.558  24.603  0.00  0.00    +0.090 A 
ATOM      9  N4  UNL     1      22.490   5.619  23.871  0.00  0.00    -0.245 NA
ATOM     10  H12 UNL     1      20.197   1.957  24.984  0.00  0.00    +0.166 HD
ENDROOT
BRANCH   1  15
ATOM     11  C4  UNL     1      21.967   9.170  20.756  0.00  0.00    +0.038 A 
ATOM     12  C5  UNL     1      23.312   9.225  20.364  0.00  0.00    +0.013 A 
ATOM     13  C6  UNL     1      24.187   8.191  20.703  0.00  0.00    +0.001 A 
ATOM     14  C7  UNL     1      23.728   7.096  21.441  0.00  0.00    +0.010 A 
ATOM     15  C8  UNL     1      22.386   7.025  21.852  0.00  0.00    +0.001 A 
ATOM     16  C22 UNL     1      21.515   8.081  21.518  0.00  0.00    +0.023 A 
BRANCH  11  20
ATOM     17  C1  UNL     1      20.015   9.125  18.422  0.00  0.00    +0.132 C 
ATOM     18  N1  UNL     1      19.937  10.097  19.518  0.00  0.00    -0.304 N 
ATOM     19  C2  UNL     1      18.788  11.001  19.617  0.00  0.00    +0.132 C 
ATOM     20  C3  UNL     1      21.052  10.281  20.414  0.00  0.00    +0.246 C 
ATOM     21  O1  UNL     1      21.264  11.419  20.916  0.00  0.00    -0.270 OA
ENDBRANCH  11  20
ENDBRANCH   1  15
BRANCH   6  22
ATOM     22  C14 UNL     1      21.823   2.164  27.331  0.00  0.00    +0.000 A 
ATOM     23  C15 UNL     1      20.657   1.720  27.983  0.00  0.00    +0.010 A 
ATOM     24  C16 UNL     1      20.745   0.939  29.137  0.00  0.00    +0.002 A 
ATOM     25  C17 UNL     1      21.993   0.588  29.655  0.00  0.00    +0.023 A 
ATOM     26  C18 UNL     1      23.163   1.018  29.018  0.00  0.00    +0.025 A 
ATOM     27  C19 UNL     1      23.077   1.803  27.860  0.00  0.00    +0.032 A 
BRANCH  26  28
ATOM     28  N3  UNL     1      24.443   0.653  29.546  0.00  0.00    -0.358 N 
ATOM     29  H16 UNL     1      24.780  -0.334  29.497  0.00  0.00    +0.142 HD
ATOM     30  H17 UNL     1      25.063   1.368  29.987  0.00  0.00    +0.142 HD
ENDBRANCH  26  28
ENDBRANCH   6  22
TORSDOF 4
ENDMDL
MODEL 7
REMARK VINA RESULT:    -6.860     16.126     19.196
REMARK INTER + INTRA:          -8.925
REMARK INTER:                  -8.239
REMARK INTRA:                  -0.686
REMARK UNBOUND:                -0.661
REMARK  Name = /home/qwerty/github/datacon2025hack/step_04_hit_selection/docking/ligands/lig_551.pdb
REMARK  6 active torsions:
REMARK  status: ('A' for Active; 'I' for Inactive)
REMARK    1  A    between atoms: C1_1  and  N1_2
REMARK    2  A    between atoms: N1_2  and  C2_3
REMARK    3  A    between atoms: C3_4  and  C4_6
REMARK    4  A    between atoms: C8_10  and  C9_11
REMARK    5  A    between atoms: C13_16  and  C14_17
REMARK    6  A    between atoms: C18_21  and  N3_22
REMARK                            x       y       z     vdW  Elec       q    Type
REMARK                         _______ _______ _______ _____ _____    ______ ____
ROOT
ATOM      1  C9  UNL     1      10.311   4.670  21.498  0.00  0.00    +0.072 A 
ATOM      2  C10 UNL     1       9.537   3.558  21.937  0.00  0.00    +0.030 A 
ATOM      3  C11 UNL     1      10.128   2.288  22.053  0.00  0.00    +0.030 A 
ATOM      4  C12 UNL     1      11.473   2.174  21.721  0.00  0.00    +0.065 A 
ATOM      5  N2  UNL     1      12.246   1.077  21.744  0.00  0.00    -0.353 N 
ATOM      6  C13 UNL     1      13.473   1.482  21.319  0.00  0.00    +0.049 A 
ATOM      7  C20 UNL     1      13.466   2.850  21.024  0.00  0.00    +0.056 A 
ATOM      8  C21 UNL     1      12.181   3.254  21.292  0.00  0.00    +0.090 A 
ATOM      9  N4  UNL     1      11.630   4.486  21.174  0.00  0.00    -0.245 NA
ATOM     10  H12 UNL     1      11.943   0.115  22.013  0.00  0.00    +0.166 HD
ENDROOT
BRANCH   1  15
ATOM     11  C4  UNL     1       9.917   8.403  20.840  0.00  0.00    +0.038 A 
ATOM     12  C5  UNL     1       8.545   8.565  21.080  0.00  0.00    +0.013 A 
ATOM     13  C6  UNL     1       7.763   7.473  21.462  0.00  0.00    +0.001 A 
ATOM     14  C7  UNL     1       8.342   6.210  21.604  0.00  0.00    +0.010 A 
ATOM     15  C8  UNL     1       9.714   6.022  21.360  0.00  0.00    +0.001 A 
ATOM     16  C22 UNL     1      10.491   7.127  20.959  0.00  0.00    +0.023 A 
BRANCH  11  20
ATOM     17  C1  UNL     1      11.348  10.291  22.750  0.00  0.00    +0.132 C 
ATOM     18  N1  UNL     1      11.642  10.222  21.315  0.00  0.00    -0.304 N 
ATOM     19  C2  UNL     1      12.780  10.962  20.763  0.00  0.00    +0.132 C 
ATOM     20  C3  UNL     1      10.734   9.559  20.412  0.00  0.00    +0.246 C 
ATOM     21  O1  UNL     1      10.622   9.976  19.227  0.00  0.00    -0.270 OA
ENDBRANCH  11  20
ENDBRANCH   1  15
BRANCH   6  22
ATOM     22  C14 UNL     1      14.645   0.580  21.189  0.00  0.00    +0.000 A 
ATOM     23  C15 UNL     1      15.457   0.623  20.041  0.00  0.00    +0.010 A 
ATOM     24  C16 UNL     1      16.559  -0.228  19.920  0.00  0.00    +0.002 A 
ATOM     25  C17 UNL     1      16.866  -1.130  20.941  0.00  0.00    +0.023 A 
ATOM     26  C18 UNL     1      16.071  -1.185  22.091  0.00  0.00    +0.025 A 
ATOM     27  C19 UNL     1      14.964  -0.332  22.214  0.00  0.00    +0.032 A 
BRANCH  26  28
ATOM     28  N3  UNL     1      16.389  -2.105  23.140  0.00  0.00    -0.358 N 
ATOM     29  H16 UNL     1      17.269  -2.668  23.109  0.00  0.00    +0.142 HD
ATOM     30  H17 UNL     1      15.750  -2.228  23.956  0.00  0.00    +0.142 HD
ENDBRANCH  26  28
ENDBRANCH   6  22
TORSDOF 4
ENDMDL
MODEL 8
REMARK VINA RESULT:    -6.695      4.306      9.597
REMARK INTER + INTRA:          -8.725
REMARK INTER:                  -8.123
REMARK INTRA:                  -0.602
REMARK UNBOUND:                -0.661
REMARK  Name = /home/qwerty/github/datacon2025hack/step_04_hit_selection/docking/ligands/lig_551.pdb
REMARK  6 active torsions:
REMARK  status: ('A' for Active; 'I' for Inactive)
REMARK    1  A    between atoms: C1_1  and  N1_2
REMARK    2  A    between atoms: N1_2  and  C2_3
REMARK    3  A    between atoms: C3_4  and  C4_6
REMARK    4  A    between atoms: C8_10  and  C9_11
REMARK    5  A    between atoms: C13_16  and  C14_17
REMARK    6  A    between atoms: C18_21  and  N3_22
REMARK                            x       y       z     vdW  Elec       q    Type
REMARK                         _______ _______ _______ _____ _____    ______ ____
ROOT
ATOM      1  C9  UNL     1      20.789   6.991  35.466  0.00  0.00    +0.072 A 
ATOM      2  C10 UNL     1      22.181   6.789  35.691  0.00  0.00    +0.030 A 
ATOM      3  C11 UNL     1      22.865   5.766  35.011  0.00  0.00    +0.030 A 
ATOM      4  C12 UNL     1      22.130   4.978  34.133  0.00  0.00    +0.065 A 
ATOM      5  N2  UNL     1      22.556   3.949  33.384  0.00  0.00    -0.353 N 
ATOM      6  C13 UNL     1      21.460   3.503  32.713  0.00  0.00    +0.049 A 
ATOM      7  C20 UNL     1      20.333   4.263  33.049  0.00  0.00    +0.056 A 
ATOM      8  C21 UNL     1      20.798   5.188  33.951  0.00  0.00    +0.090 A 
ATOM      9  N4  UNL     1      20.121   6.169  34.596  0.00  0.00    -0.245 NA
ATOM     10  H12 UNL     1      23.527   3.567  33.355  0.00  0.00    +0.166 HD
ENDROOT
BRANCH   1  15
ATOM     11  C4  UNL     1      19.268  10.373  36.342  0.00  0.00    +0.038 A 
ATOM     12  C5  UNL     1      18.581  10.051  37.522  0.00  0.00    +0.013 A 
ATOM     13  C6  UNL     1      18.624   8.751  38.029  0.00  0.00    +0.001 A 
ATOM     14  C7  UNL     1      19.349   7.760  37.361  0.00  0.00    +0.010 A 
ATOM     15  C8  UNL     1      20.038   8.059  36.172  0.00  0.00    +0.001 A 
ATOM     16  C22 UNL     1      19.974   9.369  35.660  0.00  0.00    +0.023 A 
BRANCH  11  20
ATOM     17  C1  UNL     1      17.346  11.251  34.152  0.00  0.00    +0.132 C 
ATOM     18  N1  UNL     1      18.076  12.193  35.008  0.00  0.00    -0.304 N 
ATOM     19  C2  UNL     1      17.773  13.625  34.949  0.00  0.00    +0.132 C 
ATOM     20  C3  UNL     1      19.197  11.747  35.798  0.00  0.00    +0.246 C 
ATOM     21  O1  UNL     1      20.150  12.541  36.028  0.00  0.00    -0.270 OA
ENDBRANCH  11  20
ENDBRANCH   1  15
BRANCH   6  22
ATOM     22  C14 UNL     1      21.476   2.363  31.763  0.00  0.00    +0.000 A 
ATOM     23  C15 UNL     1      20.463   1.386  31.799  0.00  0.00    +0.010 A 
ATOM     24  C16 UNL     1      20.481   0.313  30.904  0.00  0.00    +0.002 A 
ATOM     25  C17 UNL     1      21.505   0.200  29.962  0.00  0.00    +0.023 A 
ATOM     26  C18 UNL     1      22.519   1.164  29.910  0.00  0.00    +0.025 A 
ATOM     27  C19 UNL     1      22.504   2.240  30.808  0.00  0.00    +0.032 A 
BRANCH  26  28
ATOM     28  N3  UNL     1      23.566   1.051  28.940  0.00  0.00    -0.358 N 
ATOM     29  H16 UNL     1      24.021   0.130  28.748  0.00  0.00    +0.142 HD
ATOM     30  H17 UNL     1      23.892   1.887  28.406  0.00  0.00    +0.142 HD
ENDBRANCH  26  28
ENDBRANCH   6  22
TORSDOF 4
ENDMDL
MODEL 9
REMARK VINA RESULT:    -6.526      6.974     10.989
REMARK INTER + INTRA:          -8.522
REMARK INTER:                  -7.903
REMARK INTRA:                  -0.619
REMARK UNBOUND:                -0.661
REMARK  Name = /home/qwerty/github/datacon2025hack/step_04_hit_selection/docking/ligands/lig_551.pdb
REMARK  6 active torsions:
REMARK  status: ('A' for Active; 'I' for Inactive)
REMARK    1  A    between atoms: C1_1  and  N1_2
REMARK    2  A    between atoms: N1_2  and  C2_3
REMARK    3  A    between atoms: C3_4  and  C4_6
REMARK    4  A    between atoms: C8_10  and  C9_11
REMARK    5  A    between atoms: C13_16  and  C14_17
REMARK    6  A    between atoms: C18_21  and  N3_22
REMARK                            x       y       z     vdW  Elec       q    Type
REMARK                         _______ _______ _______ _____ _____    ______ ____
ROOT
ATOM      1  C9  UNL     1      12.784  13.924  31.788  0.00  0.00    +0.072 A 
ATOM      2  C10 UNL     1      12.359  14.673  32.922  0.00  0.00    +0.030 A 
ATOM      3  C11 UNL     1      13.038  14.545  34.147  0.00  0.00    +0.030 A 
ATOM      4  C12 UNL     1      14.114  13.668  34.195  0.00  0.00    +0.065 A 
ATOM      5  N2  UNL     1      14.904  13.376  35.240  0.00  0.00    -0.353 N 
ATOM      6  C13 UNL     1      15.796  12.457  34.783  0.00  0.00    +0.049 A 
ATOM      7  C20 UNL     1      15.560  12.169  33.433  0.00  0.00    +0.056 A 
ATOM      8  C21 UNL     1      14.487  12.958  33.096  0.00  0.00    +0.090 A 
ATOM      9  N4  UNL     1      13.847  13.067  31.907  0.00  0.00    -0.245 NA
ATOM     10  H12 UNL     1      14.818  13.765  36.205  0.00  0.00    +0.166 HD
ENDROOT
BRANCH   1  15
ATOM     11  C4  UNL     1      10.210  13.486  29.013  0.00  0.00    +0.038 A 
ATOM     12  C5  UNL     1      10.773  14.285  28.007  0.00  0.00    +0.013 A 
ATOM     13  C6  UNL     1      11.982  14.947  28.230  0.00  0.00    +0.001 A 
ATOM     14  C7  UNL     1      12.636  14.822  29.458  0.00  0.00    +0.010 A 
ATOM     15  C8  UNL     1      12.086  14.033  30.483  0.00  0.00    +0.001 A 
ATOM     16  C22 UNL     1      10.858  13.382  30.255  0.00  0.00    +0.023 A 
BRANCH  11  20
ATOM     17  C1  UNL     1       9.933  10.654  27.935  0.00  0.00    +0.132 C 
ATOM     18  N1  UNL     1       8.834  11.381  28.580  0.00  0.00    -0.304 N 
ATOM     19  C2  UNL     1       7.577  10.692  28.885  0.00  0.00    +0.132 C 
ATOM     20  C3  UNL     1       8.917  12.806  28.778  0.00  0.00    +0.246 C 
ATOM     21  O1  UNL     1       7.864  13.501  28.745  0.00  0.00    -0.270 OA
ENDBRANCH  11  20
ENDBRANCH   1  15
BRANCH   6  22
ATOM     22  C14 UNL     1      16.864  11.851  35.618  0.00  0.00    +0.000 A 
ATOM     23  C15 UNL     1      16.611  10.688  36.369  0.00  0.00    +0.010 A 
ATOM     24  C16 UNL     1      17.617  10.119  37.155  0.00  0.00    +0.002 A 
ATOM     25  C17 UNL     1      18.886  10.700  37.201  0.00  0.00    +0.023 A 
ATOM     26  C18 UNL     1      19.156  11.856  36.458  0.00  0.00    +0.025 A 
ATOM     27  C19 UNL     1      18.147  12.428  35.670  0.00  0.00    +0.032 A 
BRANCH  26  28
ATOM     28  N3  UNL     1      20.458  12.448  36.501  0.00  0.00    -0.358 N 
ATOM     29  H16 UNL     1      21.019  12.571  35.627  0.00  0.00    +0.142 HD
ATOM     30  H17 UNL     1      20.870  12.770  37.404  0.00  0.00    +0.142 HD
ENDBRANCH  26  28
ENDBRANCH   6  22
TORSDOF 4
ENDMDL
