MODEL 1
REMARK VINA RESULT:    -6.494      0.000      0.000
REMARK INTER + INTRA:          -8.442
REMARK INTER:                  -8.013
REMARK INTRA:                  -0.429
REMARK UNBOUND:                -0.429
REMARK  Name = /home/qwerty/github/datacon2025hack/step_04_hit_selection/docking/ligands/lig_193.pdb
REMARK  5 active torsions:
REMARK  status: ('A' for Active; 'I' for Inactive)
REMARK    1  A    between atoms: C1_1  and  C2_2
REMARK    2  A    between atoms: N1_4  and  C4_5
REMARK    3  A    between atoms: C7_8  and  N2_9
REMARK    4  A    between atoms: N3_12  and  C9_13
REMARK    5  A    between atoms: C12_16  and  C13_17
REMARK                            x       y       z     vdW  Elec       q    Type
REMARK                         _______ _______ _______ _____ _____    ______ ____
ROOT
ATOM      1  N2  UNL     1      11.937   3.379  20.050  0.00  0.00    -0.269 N 
ATOM      2  C8  UNL     1      11.277   4.493  20.669  0.00  0.00    +0.308 C 
ATOM      3  O1  UNL     1      11.561   4.822  21.853  0.00  0.00    -0.252 OA
ATOM      4  N3  UNL     1      10.292   5.229  19.927  0.00  0.00    -0.269 N 
ATOM      5  H9  UNL     1      11.894   3.309  19.008  0.00  0.00    +0.156 HD
ATOM      6  H10 UNL     1       9.900   4.780  19.070  0.00  0.00    +0.156 HD
ENDROOT
BRANCH   1  10
ATOM      7  C4  UNL     1      14.295   0.581  22.231  0.00  0.00    +0.030 A 
ATOM      8  C5  UNL     1      12.907   0.666  22.431  0.00  0.00    +0.025 A 
ATOM      9  C6  UNL     1      12.141   1.587  21.710  0.00  0.00    +0.025 A 
ATOM     10  C7  UNL     1      12.743   2.425  20.760  0.00  0.00    +0.035 A 
ATOM     11  C16 UNL     1      14.132   2.351  20.567  0.00  0.00    +0.025 A 
ATOM     12  C17 UNL     1      14.900   1.433  21.290  0.00  0.00    +0.025 A 
BRANCH   7  16
ATOM     13  C1  UNL     1      14.727  -2.967  25.733  0.00  0.00    +0.039 C 
ATOM     14  C2  UNL     1      15.170  -2.371  24.399  0.00  0.00    +0.132 C 
ATOM     15  C3  UNL     1      14.528  -0.989  24.187  0.00  0.00    +0.136 C 
ATOM     16  N1  UNL     1      15.081  -0.371  22.976  0.00  0.00    -0.325 N 
ATOM     17  C18 UNL     1      16.534  -0.446  22.782  0.00  0.00    +0.133 C 
ATOM     18  C19 UNL     1      17.029  -1.857  23.110  0.00  0.00    +0.179 C 
ATOM     19  O2  UNL     1      16.583  -2.262  24.391  0.00  0.00    -0.374 OA
ENDBRANCH   7  16
ENDBRANCH   1  10
BRANCH   4  20
ATOM     20  C9  UNL     1       9.729   6.481  20.356  0.00  0.00    +0.035 A 
ATOM     21  C10 UNL     1      10.473   7.660  20.194  0.00  0.00    +0.024 A 
ATOM     22  C11 UNL     1       9.955   8.889  20.615  0.00  0.00    +0.020 A 
ATOM     23  C12 UNL     1       8.696   8.948  21.223  0.00  0.00    +0.052 A 
ATOM     24  C14 UNL     1       7.957   7.772  21.412  0.00  0.00    +0.020 A 
ATOM     25  C15 UNL     1       8.472   6.544  20.987  0.00  0.00    +0.024 A 
BRANCH  23  26
ATOM     26  C13 UNL     1       8.164  10.211  21.660  0.00  0.00    +0.099 C 
ATOM     27  N4  UNL     1       7.738  11.226  22.013  0.00  0.00    -0.191 NA
ENDBRANCH  23  26
ENDBRANCH   4  20
TORSDOF 4
ENDMDL
MODEL 2
REMARK VINA RESULT:    -6.369      7.967     10.431
REMARK INTER + INTRA:          -8.288
REMARK INTER:                  -7.953
REMARK INTRA:                  -0.335
REMARK UNBOUND:                -0.429
REMARK  Name = /home/qwerty/github/datacon2025hack/step_04_hit_selection/docking/ligands/lig_193.pdb
REMARK  5 active torsions:
REMARK  status: ('A' for Active; 'I' for Inactive)
REMARK    1  A    between atoms: C1_1  and  C2_2
REMARK    2  A    between atoms: N1_4  and  C4_5
REMARK    3  A    between atoms: C7_8  and  N2_9
REMARK    4  A    between atoms: N3_12  and  C9_13
REMARK    5  A    between atoms: C12_16  and  C13_17
REMARK                            x       y       z     vdW  Elec       q    Type
REMARK                         _______ _______ _______ _____ _____    ______ ____
ROOT
ATOM      1  N2  UNL     1      21.867   2.809  24.763  0.00  0.00    -0.269 N 
ATOM      2  C8  UNL     1      20.939   3.590  23.995  0.00  0.00    +0.308 C 
ATOM      3  O1  UNL     1      20.030   4.247  24.573  0.00  0.00    -0.252 OA
ATOM      4  N3  UNL     1      21.056   3.616  22.565  0.00  0.00    -0.269 N 
ATOM      5  H9  UNL     1      22.755   2.517  24.297  0.00  0.00    +0.156 HD
ATOM      6  H10 UNL     1      21.635   2.872  22.115  0.00  0.00    +0.156 HD
ENDROOT
BRANCH   1  10
ATOM      7  C4  UNL     1      21.292   1.902  28.886  0.00  0.00    +0.030 A 
ATOM      8  C5  UNL     1      20.793   1.054  27.884  0.00  0.00    +0.025 A 
ATOM      9  C6  UNL     1      20.987   1.359  26.534  0.00  0.00    +0.025 A 
ATOM     10  C7  UNL     1      21.702   2.506  26.158  0.00  0.00    +0.035 A 
ATOM     11  C16 UNL     1      22.191   3.363  27.158  0.00  0.00    +0.025 A 
ATOM     12  C17 UNL     1      21.994   3.061  28.509  0.00  0.00    +0.025 A 
BRANCH   7  16
ATOM     13  C1  UNL     1      21.579   3.071  33.743  0.00  0.00    +0.039 C 
ATOM     14  C2  UNL     1      20.871   2.346  32.601  0.00  0.00    +0.132 C 
ATOM     15  C3  UNL     1      21.715   2.410  31.317  0.00  0.00    +0.136 C 
ATOM     16  N1  UNL     1      21.090   1.583  30.278  0.00  0.00    -0.325 N 
ATOM     17  C18 UNL     1      20.608   0.254  30.670  0.00  0.00    +0.133 C 
ATOM     18  C19 UNL     1      19.861   0.346  32.004  0.00  0.00    +0.179 C 
ATOM     19  O2  UNL     1      20.652   0.998  32.980  0.00  0.00    -0.374 OA
ENDBRANCH   7  16
ENDBRANCH   1  10
BRANCH   4  20
ATOM     20  C9  UNL     1      20.334   4.521  21.713  0.00  0.00    +0.035 A 
ATOM     21  C10 UNL     1      21.038   5.505  21.001  0.00  0.00    +0.024 A 
ATOM     22  C11 UNL     1      20.358   6.407  20.177  0.00  0.00    +0.020 A 
ATOM     23  C12 UNL     1      18.964   6.349  20.073  0.00  0.00    +0.052 A 
ATOM     24  C14 UNL     1      18.250   5.387  20.800  0.00  0.00    +0.020 A 
ATOM     25  C15 UNL     1      18.929   4.481  21.620  0.00  0.00    +0.024 A 
BRANCH  23  26
ATOM     26  C13 UNL     1      18.263   7.280  19.228  0.00  0.00    +0.099 C 
ATOM     27  N4  UNL     1      17.699   8.027  18.551  0.00  0.00    -0.191 NA
ENDBRANCH  23  26
ENDBRANCH   4  20
TORSDOF 4
ENDMDL
MODEL 3
REMARK VINA RESULT:    -6.305     16.371     17.186
REMARK INTER + INTRA:          -8.208
REMARK INTER:                  -7.762
REMARK INTRA:                  -0.447
REMARK UNBOUND:                -0.429
REMARK  Name = /home/qwerty/github/datacon2025hack/step_04_hit_selection/docking/ligands/lig_193.pdb
REMARK  5 active torsions:
REMARK  status: ('A' for Active; 'I' for Inactive)
REMARK    1  A    between atoms: C1_1  and  C2_2
REMARK    2  A    between atoms: N1_4  and  C4_5
REMARK    3  A    between atoms: C7_8  and  N2_9
REMARK    4  A    between atoms: N3_12  and  C9_13
REMARK    5  A    between atoms: C12_16  and  C13_17
REMARK                            x       y       z     vdW  Elec       q    Type
REMARK                         _______ _______ _______ _____ _____    ______ ____
ROOT
ATOM      1  N2  UNL     1      18.088  10.811  37.571  0.00  0.00    -0.269 N 
ATOM      2  C8  UNL     1      16.939  11.329  36.885  0.00  0.00    +0.308 C 
ATOM      3  O1  UNL     1      16.712  11.000  35.688  0.00  0.00    -0.252 OA
ATOM      4  N3  UNL     1      16.051  12.223  37.573  0.00  0.00    -0.269 N 
ATOM      5  H9  UNL     1      18.095  10.868  38.615  0.00  0.00    +0.156 HD
ATOM      6  H10 UNL     1      16.403  12.672  38.448  0.00  0.00    +0.156 HD
ENDROOT
BRANCH   1  10
ATOM      7  C4  UNL     1      21.264   8.793  35.575  0.00  0.00    +0.030 A 
ATOM      8  C5  UNL     1      21.059  10.171  35.396  0.00  0.00    +0.025 A 
ATOM      9  C6  UNL     1      20.014  10.825  36.056  0.00  0.00    +0.025 A 
ATOM     10  C7  UNL     1      19.168  10.120  36.924  0.00  0.00    +0.035 A 
ATOM     11  C16 UNL     1      19.363   8.739  37.095  0.00  0.00    +0.025 A 
ATOM     12  C17 UNL     1      20.405   8.083  36.433  0.00  0.00    +0.025 A 
BRANCH   7  16
ATOM     13  C1  UNL     1      25.014   8.762  32.262  0.00  0.00    +0.039 C 
ATOM     14  C2  UNL     1      24.409   8.266  33.573  0.00  0.00    +0.132 C 
ATOM     15  C3  UNL     1      22.950   8.733  33.704  0.00  0.00    +0.136 C 
ATOM     16  N1  UNL     1      22.344   8.122  34.893  0.00  0.00    -0.325 N 
ATOM     17  C18 UNL     1      22.588   6.693  35.119  0.00  0.00    +0.133 C 
ATOM     18  C19 UNL     1      24.065   6.374  34.870  0.00  0.00    +0.179 C 
ATOM     19  O2  UNL     1      24.477   6.850  33.602  0.00  0.00    -0.374 OA
ENDBRANCH   7  16
ENDBRANCH   1  10
BRANCH   4  20
ATOM     20  C9  UNL     1      14.767  12.630  37.070  0.00  0.00    +0.035 A 
ATOM     21  C10 UNL     1      14.603  13.935  36.579  0.00  0.00    +0.024 A 
ATOM     22  C11 UNL     1      13.361  14.361  36.098  0.00  0.00    +0.020 A 
ATOM     23  C12 UNL     1      12.263  13.493  36.124  0.00  0.00    +0.052 A 
ATOM     24  C14 UNL     1      12.411  12.197  36.638  0.00  0.00    +0.020 A 
ATOM     25  C15 UNL     1      13.654  11.769  37.113  0.00  0.00    +0.024 A 
BRANCH  23  26
ATOM     26  C13 UNL     1      10.984  13.932  35.634  0.00  0.00    +0.099 C 
ATOM     27  N4  UNL     1       9.956  14.286  35.241  0.00  0.00    -0.191 NA
ENDBRANCH  23  26
ENDBRANCH   4  20
TORSDOF 4
ENDMDL
MODEL 4
REMARK VINA RESULT:    -6.293      1.249      1.723
REMARK INTER + INTRA:          -8.194
REMARK INTER:                  -7.779
REMARK INTRA:                  -0.415
REMARK UNBOUND:                -0.429
REMARK  Name = /home/qwerty/github/datacon2025hack/step_04_hit_selection/docking/ligands/lig_193.pdb
REMARK  5 active torsions:
REMARK  status: ('A' for Active; 'I' for Inactive)
REMARK    1  A    between atoms: C1_1  and  C2_2
REMARK    2  A    between atoms: N1_4  and  C4_5
REMARK    3  A    between atoms: C7_8  and  N2_9
REMARK    4  A    between atoms: N3_12  and  C9_13
REMARK    5  A    between atoms: C12_16  and  C13_17
REMARK                            x       y       z     vdW  Elec       q    Type
REMARK                         _______ _______ _______ _____ _____    ______ ____
ROOT
ATOM      1  N2  UNL     1      12.108   2.544  20.459  0.00  0.00    -0.269 N 
ATOM      2  C8  UNL     1      11.534   3.760  20.961  0.00  0.00    +0.308 C 
ATOM      3  O1  UNL     1      12.060   4.353  21.943  0.00  0.00    -0.252 OA
ATOM      4  N3  UNL     1      10.357   4.294  20.336  0.00  0.00    -0.269 N 
ATOM      5  H9  UNL     1      11.831   2.239  19.499  0.00  0.00    +0.156 HD
ATOM      6  H10 UNL     1       9.809   3.656  19.716  0.00  0.00    +0.156 HD
ENDROOT
BRANCH   1  10
ATOM      7  C4  UNL     1      15.075   0.331  22.568  0.00  0.00    +0.030 A 
ATOM      8  C5  UNL     1      13.713   0.189  22.878  0.00  0.00    +0.025 A 
ATOM      9  C6  UNL     1      12.746   0.919  22.181  0.00  0.00    +0.025 A 
ATOM     10  C7  UNL     1      13.119   1.788  21.145  0.00  0.00    +0.035 A 
ATOM     11  C16 UNL     1      14.482   1.942  20.840  0.00  0.00    +0.025 A 
ATOM     12  C17 UNL     1      15.450   1.215  21.540  0.00  0.00    +0.025 A 
BRANCH   7  16
ATOM     13  C1  UNL     1      19.367   0.045  25.125  0.00  0.00    +0.039 C 
ATOM     14  C2  UNL     1      17.948  -0.458  24.871  0.00  0.00    +0.132 C 
ATOM     15  C3  UNL     1      17.369   0.183  23.598  0.00  0.00    +0.136 C 
ATOM     16  N1  UNL     1      16.069  -0.424  23.290  0.00  0.00    -0.325 N 
ATOM     17  C18 UNL     1      15.965  -1.885  23.384  0.00  0.00    +0.133 C 
ATOM     18  C19 UNL     1      16.657  -2.372  24.660  0.00  0.00    +0.179 C 
ATOM     19  O2  UNL     1      17.977  -1.869  24.742  0.00  0.00    -0.374 OA
ENDBRANCH   7  16
ENDBRANCH   1  10
BRANCH   4  20
ATOM     20  C9  UNL     1       9.824   5.602  20.605  0.00  0.00    +0.035 A 
ATOM     21  C10 UNL     1      10.572   6.736  20.248  0.00  0.00    +0.024 A 
ATOM     22  C11 UNL     1      10.083   8.019  20.512  0.00  0.00    +0.020 A 
ATOM     23  C12 UNL     1       8.850   8.182  21.155  0.00  0.00    +0.052 A 
ATOM     24  C14 UNL     1       8.109   7.055  21.538  0.00  0.00    +0.020 A 
ATOM     25  C15 UNL     1       8.595   5.772  21.270  0.00  0.00    +0.024 A 
BRANCH  23  26
ATOM     26  C13 UNL     1       8.349   9.502  21.429  0.00  0.00    +0.099 C 
ATOM     27  N4  UNL     1       7.945  10.563  21.648  0.00  0.00    -0.191 NA
ENDBRANCH  23  26
ENDBRANCH   4  20
TORSDOF 4
ENDMDL
MODEL 5
REMARK VINA RESULT:    -6.224     16.218     19.413
REMARK INTER + INTRA:          -8.109
REMARK INTER:                  -7.944
REMARK INTRA:                  -0.165
REMARK UNBOUND:                -0.429
REMARK  Name = /home/qwerty/github/datacon2025hack/step_04_hit_selection/docking/ligands/lig_193.pdb
REMARK  5 active torsions:
REMARK  status: ('A' for Active; 'I' for Inactive)
REMARK    1  A    between atoms: C1_1  and  C2_2
REMARK    2  A    between atoms: N1_4  and  C4_5
REMARK    3  A    between atoms: C7_8  and  N2_9
REMARK    4  A    between atoms: N3_12  and  C9_13
REMARK    5  A    between atoms: C12_16  and  C13_17
REMARK                            x       y       z     vdW  Elec       q    Type
REMARK                         _______ _______ _______ _____ _____    ______ ____
ROOT
ATOM      1  N2  UNL     1      19.565  10.969  36.877  0.00  0.00    -0.269 N 
ATOM      2  C8  UNL     1      20.217   9.978  36.069  0.00  0.00    +0.308 C 
ATOM      3  O1  UNL     1      19.770   9.700  34.922  0.00  0.00    -0.252 OA
ATOM      4  N3  UNL     1      21.381   9.309  36.576  0.00  0.00    -0.269 N 
ATOM      5  H9  UNL     1      20.105  11.373  37.676  0.00  0.00    +0.156 HD
ATOM      6  H10 UNL     1      21.561   9.368  37.603  0.00  0.00    +0.156 HD
ENDROOT
BRANCH   1  10
ATOM      7  C4  UNL     1      15.698  12.519  35.992  0.00  0.00    +0.030 A 
ATOM      8  C5  UNL     1      15.850  11.363  36.776  0.00  0.00    +0.025 A 
ATOM      9  C6  UNL     1      17.123  10.862  37.061  0.00  0.00    +0.025 A 
ATOM     10  C7  UNL     1      18.269  11.518  36.589  0.00  0.00    +0.035 A 
ATOM     11  C16 UNL     1      18.120  12.667  35.795  0.00  0.00    +0.025 A 
ATOM     12  C17 UNL     1      16.847  13.168  35.505  0.00  0.00    +0.025 A 
BRANCH   7  16
ATOM     13  C1  UNL     1      12.443  14.758  32.921  0.00  0.00    +0.039 C 
ATOM     14  C2  UNL     1      12.726  13.756  34.037  0.00  0.00    +0.132 C 
ATOM     15  C3  UNL     1      14.176  13.898  34.533  0.00  0.00    +0.136 C 
ATOM     16  N1  UNL     1      14.382  13.033  35.701  0.00  0.00    -0.325 N 
ATOM     17  C18 UNL     1      13.341  13.034  36.735  0.00  0.00    +0.133 C 
ATOM     18  C19 UNL     1      11.959  12.971  36.079  0.00  0.00    +0.179 C 
ATOM     19  O2  UNL     1      11.818  13.983  35.101  0.00  0.00    -0.374 OA
ENDBRANCH   7  16
ENDBRANCH   1  10
BRANCH   4  20
ATOM     20  C9  UNL     1      22.237   8.467  35.785  0.00  0.00    +0.035 A 
ATOM     21  C10 UNL     1      22.790   7.313  36.362  0.00  0.00    +0.024 A 
ATOM     22  C11 UNL     1      23.638   6.486  35.619  0.00  0.00    +0.020 A 
ATOM     23  C12 UNL     1      23.959   6.816  34.297  0.00  0.00    +0.052 A 
ATOM     24  C14 UNL     1      23.433   7.980  33.722  0.00  0.00    +0.020 A 
ATOM     25  C15 UNL     1      22.581   8.805  34.462  0.00  0.00    +0.024 A 
BRANCH  23  26
ATOM     26  C13 UNL     1      24.834   5.966  33.534  0.00  0.00    +0.099 C 
ATOM     27  N4  UNL     1      25.539   5.284  32.922  0.00  0.00    -0.191 NA
ENDBRANCH  23  26
ENDBRANCH   4  20
TORSDOF 4
ENDMDL
MODEL 6
REMARK VINA RESULT:    -6.212      8.374     13.198
REMARK INTER + INTRA:          -8.094
REMARK INTER:                  -7.564
REMARK INTRA:                  -0.529
REMARK UNBOUND:                -0.429
REMARK  Name = /home/qwerty/github/datacon2025hack/step_04_hit_selection/docking/ligands/lig_193.pdb
REMARK  5 active torsions:
REMARK  status: ('A' for Active; 'I' for Inactive)
REMARK    1  A    between atoms: C1_1  and  C2_2
REMARK    2  A    between atoms: N1_4  and  C4_5
REMARK    3  A    between atoms: C7_8  and  N2_9
REMARK    4  A    between atoms: N3_12  and  C9_13
REMARK    5  A    between atoms: C12_16  and  C13_17
REMARK                            x       y       z     vdW  Elec       q    Type
REMARK                         _______ _______ _______ _____ _____    ______ ____
ROOT
ATOM      1  N2  UNL     1      21.370   4.550  22.453  0.00  0.00    -0.269 N 
ATOM      2  C8  UNL     1      21.238   4.234  23.847  0.00  0.00    +0.308 C 
ATOM      3  O1  UNL     1      20.551   4.974  24.604  0.00  0.00    -0.252 OA
ATOM      4  N3  UNL     1      21.894   3.070  24.371  0.00  0.00    -0.269 N 
ATOM      5  H9  UNL     1      21.695   3.789  21.814  0.00  0.00    +0.156 HD
ATOM      6  H10 UNL     1      22.651   2.641  23.792  0.00  0.00    +0.156 HD
ENDROOT
BRANCH   1  10
ATOM      7  C4  UNL     1      20.224   8.305  20.800  0.00  0.00    +0.030 A 
ATOM      8  C5  UNL     1      21.492   8.128  21.379  0.00  0.00    +0.025 A 
ATOM      9  C6  UNL     1      21.859   6.892  21.919  0.00  0.00    +0.025 A 
ATOM     10  C7  UNL     1      20.977   5.803  21.871  0.00  0.00    +0.035 A 
ATOM     11  C16 UNL     1      19.704   5.980  21.304  0.00  0.00    +0.025 A 
ATOM     12  C17 UNL     1      19.333   7.217  20.768  0.00  0.00    +0.025 A 
BRANCH   7  16
ATOM     13  C1  UNL     1      16.777  11.508  19.099  0.00  0.00    +0.039 C 
ATOM     14  C2  UNL     1      18.107  11.255  19.805  0.00  0.00    +0.132 C 
ATOM     15  C3  UNL     1      18.503   9.773  19.693  0.00  0.00    +0.136 C 
ATOM     16  N1  UNL     1      19.849   9.581  20.245  0.00  0.00    -0.325 N 
ATOM     17  C18 UNL     1      20.879  10.557  19.869  0.00  0.00    +0.133 C 
ATOM     18  C19 UNL     1      20.307  11.974  19.954  0.00  0.00    +0.179 C 
ATOM     19  O2  UNL     1      19.102  12.076  19.218  0.00  0.00    -0.374 OA
ENDBRANCH   7  16
ENDBRANCH   1  10
BRANCH   4  20
ATOM     20  C9  UNL     1      21.661   2.535  25.686  0.00  0.00    +0.035 A 
ATOM     21  C10 UNL     1      22.518   2.899  26.737  0.00  0.00    +0.024 A 
ATOM     22  C11 UNL     1      22.323   2.381  28.021  0.00  0.00    +0.020 A 
ATOM     23  C12 UNL     1      21.281   1.478  28.264  0.00  0.00    +0.052 A 
ATOM     24  C14 UNL     1      20.437   1.090  27.214  0.00  0.00    +0.020 A 
ATOM     25  C15 UNL     1      20.628   1.611  25.931  0.00  0.00    +0.024 A 
BRANCH  23  26
ATOM     26  C13 UNL     1      21.082   0.943  29.584  0.00  0.00    +0.099 C 
ATOM     27  N4  UNL     1      20.921   0.512  30.644  0.00  0.00    -0.191 NA
ENDBRANCH  23  26
ENDBRANCH   4  20
TORSDOF 4
ENDMDL
MODEL 7
REMARK VINA RESULT:    -6.108     12.933     14.657
REMARK INTER + INTRA:          -7.965
REMARK INTER:                  -7.456
REMARK INTRA:                  -0.510
REMARK UNBOUND:                -0.429
REMARK  Name = /home/qwerty/github/datacon2025hack/step_04_hit_selection/docking/ligands/lig_193.pdb
REMARK  5 active torsions:
REMARK  status: ('A' for Active; 'I' for Inactive)
REMARK    1  A    between atoms: C1_1  and  C2_2
REMARK    2  A    between atoms: N1_4  and  C4_5
REMARK    3  A    between atoms: C7_8  and  N2_9
REMARK    4  A    between atoms: N3_12  and  C9_13
REMARK    5  A    between atoms: C12_16  and  C13_17
REMARK                            x       y       z     vdW  Elec       q    Type
REMARK                         _______ _______ _______ _____ _____    ______ ____
ROOT
ATOM      1  N2  UNL     1      15.325  15.892  28.934  0.00  0.00    -0.269 N 
ATOM      2  C8  UNL     1      14.254  14.946  28.809  0.00  0.00    +0.308 C 
ATOM      3  O1  UNL     1      14.504  13.719  28.648  0.00  0.00    -0.252 OA
ATOM      4  N3  UNL     1      12.896  15.407  28.868  0.00  0.00    -0.269 N 
ATOM      5  H9  UNL     1      15.099  16.828  29.341  0.00  0.00    +0.156 HD
ATOM      6  H10 UNL     1      12.728  16.430  28.737  0.00  0.00    +0.156 HD
ENDROOT
BRANCH   1  10
ATOM      7  C4  UNL     1      19.376  14.951  28.013  0.00  0.00    +0.030 A 
ATOM      8  C5  UNL     1      18.480  15.345  27.006  0.00  0.00    +0.025 A 
ATOM      9  C6  UNL     1      17.152  15.652  27.317  0.00  0.00    +0.025 A 
ATOM     10  C7  UNL     1      16.701  15.594  28.644  0.00  0.00    +0.035 A 
ATOM     11  C16 UNL     1      17.591  15.188  29.652  0.00  0.00    +0.025 A 
ATOM     12  C17 UNL     1      18.918  14.877  29.340  0.00  0.00    +0.025 A 
BRANCH   7  16
ATOM     13  C1  UNL     1      23.532  15.699  25.327  0.00  0.00    +0.039 C 
ATOM     14  C2  UNL     1      22.866  15.299  26.642  0.00  0.00    +0.132 C 
ATOM     15  C3  UNL     1      21.345  15.163  26.456  0.00  0.00    +0.136 C 
ATOM     16  N1  UNL     1      20.745  14.635  27.687  0.00  0.00    -0.325 N 
ATOM     17  C18 UNL     1      21.421  13.507  28.338  0.00  0.00    +0.133 C 
ATOM     18  C19 UNL     1      22.931  13.757  28.372  0.00  0.00    +0.179 C 
ATOM     19  O2  UNL     1      23.419  14.071  27.081  0.00  0.00    -0.374 OA
ENDBRANCH   7  16
ENDBRANCH   1  10
BRANCH   4  20
ATOM     20  C9  UNL     1      11.753  14.541  28.973  0.00  0.00    +0.035 A 
ATOM     21  C10 UNL     1      11.417  13.995  30.223  0.00  0.00    +0.024 A 
ATOM     22  C11 UNL     1      10.320  13.138  30.350  0.00  0.00    +0.020 A 
ATOM     23  C12 UNL     1       9.559  12.800  29.225  0.00  0.00    +0.052 A 
ATOM     24  C14 UNL     1       9.902  13.320  27.969  0.00  0.00    +0.020 A 
ATOM     25  C15 UNL     1      10.996  14.181  27.842  0.00  0.00    +0.024 A 
BRANCH  23  26
ATOM     26  C13 UNL     1       8.432  11.916  29.354  0.00  0.00    +0.099 C 
ATOM     27  N4  UNL     1       7.526  11.204  29.457  0.00  0.00    -0.191 NA
ENDBRANCH  23  26
ENDBRANCH   4  20
TORSDOF 4
ENDMDL
MODEL 8
REMARK VINA RESULT:    -6.091     12.810     14.743
REMARK INTER + INTRA:          -7.944
REMARK INTER:                  -7.550
REMARK INTRA:                  -0.394
REMARK UNBOUND:                -0.429
REMARK  Name = /home/qwerty/github/datacon2025hack/step_04_hit_selection/docking/ligands/lig_193.pdb
REMARK  5 active torsions:
REMARK  status: ('A' for Active; 'I' for Inactive)
REMARK    1  A    between atoms: C1_1  and  C2_2
REMARK    2  A    between atoms: N1_4  and  C4_5
REMARK    3  A    between atoms: C7_8  and  N2_9
REMARK    4  A    between atoms: N3_12  and  C9_13
REMARK    5  A    between atoms: C12_16  and  C13_17
REMARK                            x       y       z     vdW  Elec       q    Type
REMARK                         _______ _______ _______ _____ _____    ______ ____
ROOT
ATOM      1  N2  UNL     1      15.116  15.934  28.664  0.00  0.00    -0.269 N 
ATOM      2  C8  UNL     1      13.989  15.084  28.407  0.00  0.00    +0.308 C 
ATOM      3  O1  UNL     1      14.088  14.126  27.592  0.00  0.00    -0.252 OA
ATOM      4  N3  UNL     1      12.749  15.335  29.086  0.00  0.00    -0.269 N 
ATOM      5  H9  UNL     1      15.092  16.521  29.528  0.00  0.00    +0.156 HD
ATOM      6  H10 UNL     1      12.627  16.269  29.537  0.00  0.00    +0.156 HD
ENDROOT
BRANCH   1  10
ATOM      7  C4  UNL     1      18.720  15.959  26.393  0.00  0.00    +0.030 A 
ATOM      8  C5  UNL     1      18.533  15.042  27.440  0.00  0.00    +0.025 A 
ATOM      9  C6  UNL     1      17.347  15.041  28.180  0.00  0.00    +0.025 A 
ATOM     10  C7  UNL     1      16.316  15.940  27.873  0.00  0.00    +0.035 A 
ATOM     11  C16 UNL     1      16.505  16.868  26.835  0.00  0.00    +0.025 A 
ATOM     12  C17 UNL     1      17.693  16.872  26.097  0.00  0.00    +0.025 A 
BRANCH   7  16
ATOM     13  C1  UNL     1      23.572  14.842  25.893  0.00  0.00    +0.039 C 
ATOM     14  C2  UNL     1      22.193  15.038  25.267  0.00  0.00    +0.132 C 
ATOM     15  C3  UNL     1      21.217  15.638  26.293  0.00  0.00    +0.136 C 
ATOM     16  N1  UNL     1      19.945  15.957  25.632  0.00  0.00    -0.325 N 
ATOM     17  C18 UNL     1      20.010  16.629  24.330  0.00  0.00    +0.133 C 
ATOM     18  C19 UNL     1      21.081  15.968  23.458  0.00  0.00    +0.179 C 
ATOM     19  O2  UNL     1      22.316  15.894  24.145  0.00  0.00    -0.374 OA
ENDBRANCH   7  16
ENDBRANCH   1  10
BRANCH   4  20
ATOM     20  C9  UNL     1      11.628  14.434  29.077  0.00  0.00    +0.035 A 
ATOM     21  C10 UNL     1      11.357  13.664  30.220  0.00  0.00    +0.024 A 
ATOM     22  C11 UNL     1      10.282  12.770  30.233  0.00  0.00    +0.020 A 
ATOM     23  C12 UNL     1       9.480  12.619  29.096  0.00  0.00    +0.052 A 
ATOM     24  C14 UNL     1       9.760  13.364  27.942  0.00  0.00    +0.020 A 
ATOM     25  C15 UNL     1      10.831  14.262  27.929  0.00  0.00    +0.024 A 
BRANCH  23  26
ATOM     26  C13 UNL     1       8.377  11.696  29.108  0.00  0.00    +0.099 C 
ATOM     27  N4  UNL     1       7.492  10.952  29.116  0.00  0.00    -0.191 NA
ENDBRANCH  23  26
ENDBRANCH   4  20
TORSDOF 4
ENDMDL
MODEL 9
REMARK VINA RESULT:    -6.021      9.476     10.511
REMARK INTER + INTRA:          -7.858
REMARK INTER:                  -7.399
REMARK INTRA:                  -0.460
REMARK UNBOUND:                -0.429
REMARK  Name = /home/qwerty/github/datacon2025hack/step_04_hit_selection/docking/ligands/lig_193.pdb
REMARK  5 active torsions:
REMARK  status: ('A' for Active; 'I' for Inactive)
REMARK    1  A    between atoms: C1_1  and  C2_2
REMARK    2  A    between atoms: N1_4  and  C4_5
REMARK    3  A    between atoms: C7_8  and  N2_9
REMARK    4  A    between atoms: N3_12  and  C9_13
REMARK    5  A    between atoms: C12_16  and  C13_17
REMARK                            x       y       z     vdW  Elec       q    Type
REMARK                         _______ _______ _______ _____ _____    ______ ____
ROOT
ATOM      1  N2  UNL     1       6.286   6.215  28.443  0.00  0.00    -0.269 N 
ATOM      2  C8  UNL     1       7.042   7.406  28.705  0.00  0.00    +0.308 C 
ATOM      3  O1  UNL     1       7.983   7.390  29.545  0.00  0.00    -0.252 OA
ATOM      4  N3  UNL     1       6.718   8.615  28.001  0.00  0.00    -0.269 N 
ATOM      5  H9  UNL     1       5.722   6.183  27.564  0.00  0.00    +0.156 HD
ATOM      6  H10 UNL     1       5.790   8.661  27.524  0.00  0.00    +0.156 HD
ENDROOT
BRANCH   1  10
ATOM      7  C4  UNL     1       6.479   2.747  30.909  0.00  0.00    +0.030 A 
ATOM      8  C5  UNL     1       5.561   3.775  31.180  0.00  0.00    +0.025 A 
ATOM      9  C6  UNL     1       5.504   4.909  30.365  0.00  0.00    +0.025 A 
ATOM     10  C7  UNL     1       6.348   5.028  29.251  0.00  0.00    +0.035 A 
ATOM     11  C16 UNL     1       7.276   4.008  28.985  0.00  0.00    +0.025 A 
ATOM     12  C17 UNL     1       7.336   2.874  29.802  0.00  0.00    +0.025 A 
BRANCH   7  16
ATOM     13  C1  UNL     1       8.028  -1.917  31.852  0.00  0.00    +0.039 C 
ATOM     14  C2  UNL     1       7.635  -0.531  32.357  0.00  0.00    +0.132 C 
ATOM     15  C3  UNL     1       7.039   0.310  31.216  0.00  0.00    +0.136 C 
ATOM     16  N1  UNL     1       6.533   1.579  31.753  0.00  0.00    -0.325 N 
ATOM     17  C18 UNL     1       5.750   1.523  32.993  0.00  0.00    +0.133 C 
ATOM     18  C19 UNL     1       6.430   0.585  33.994  0.00  0.00    +0.179 C 
ATOM     19  O2  UNL     1       6.693  -0.675  33.406  0.00  0.00    -0.374 OA
ENDBRANCH   7  16
ENDBRANCH   1  10
BRANCH   4  20
ATOM     20  C9  UNL     1       7.532   9.800  28.016  0.00  0.00    +0.035 A 
ATOM     21  C10 UNL     1       8.383  10.063  26.930  0.00  0.00    +0.024 A 
ATOM     22  C11 UNL     1       9.196  11.200  26.926  0.00  0.00    +0.020 A 
ATOM     23  C12 UNL     1       9.183  12.076  28.017  0.00  0.00    +0.052 A 
ATOM     24  C14 UNL     1       8.356  11.808  29.117  0.00  0.00    +0.020 A 
ATOM     25  C15 UNL     1       7.539  10.674  29.120  0.00  0.00    +0.024 A 
BRANCH  23  26
ATOM     26  C13 UNL     1      10.022  13.245  28.015  0.00  0.00    +0.099 C 
ATOM     27  N4  UNL     1      10.697  14.183  28.015  0.00  0.00    -0.191 NA
ENDBRANCH  23  26
ENDBRANCH   4  20
TORSDOF 4
ENDMDL
