REMARK  Name = /home/qwerty/github/datacon2025hack/step_04_hit_selection/docking/ligands/lig_461.pdb
REMARK  4 active torsions:
REMARK  status: ('A' for Active; 'I' for Inactive)
REMARK    1  A    between atoms: N1_3  and  C2_4
REMARK    2  A    between atoms: C5_7  and  N2_8
REMARK    3  A    between atoms: N5_15  and  C10_16
REMARK    4  A    between atoms: C18_24  and  C19_25
REMARK                            x       y       z     vdW  Elec       q    Type
REMARK                         _______ _______ _______ _____ _____    ______ ____
ROOT
ATOM      1  O1  UNL     1       2.932   1.026  -0.751  0.00  0.00    -0.252 OA
ATOM      2  C1  UNL     1       2.957   1.416   0.448  0.00  0.00    +0.308 C 
ATOM      3  N1  UNL     1       4.183   1.380   1.194  0.00  0.00    -0.269 N 
ATOM      4  N5  UNL     1       1.782   1.980   1.049  0.00  0.00    -0.269 N 
ATOM      5  H1  UNL     1       4.252   1.985   2.042  0.00  0.00    +0.156 HD
ATOM      6  H8  UNL     1       1.909   2.563   1.907  0.00  0.00    +0.156 HD
ENDROOT
BRANCH   4   7
ATOM      7  C10 UNL     1       0.460   1.878   0.492  0.00  0.00    +0.035 A 
ATOM      8  C11 UNL     1      -0.454   2.923   0.699  0.00  0.00    +0.023 A 
ATOM      9  C12 UNL     1      -1.747   2.847   0.177  0.00  0.00    +0.006 A 
ATOM     10  C13 UNL     1      -2.153   1.709  -0.533  0.00  0.00    -0.043 A 
ATOM     11  C14 UNL     1      -1.263   0.641  -0.712  0.00  0.00    -0.042 A 
ATOM     12  C15 UNL     1       0.044   0.730  -0.208  0.00  0.00    +0.027 A 
ATOM     13  C16 UNL     1      -1.702  -0.552  -1.524  0.00  0.00    +0.036 C 
ATOM     14  C17 UNL     1      -3.177  -0.950  -1.278  0.00  0.00    +0.018 C 
ATOM     15  C18 UNL     1      -4.099   0.197  -0.775  0.00  0.00    +0.080 C 
ATOM     16  C24 UNL     1      -3.541   1.594  -1.098  0.00  0.00    +0.048 C 
BRANCH  15  17
ATOM     17  C19 UNL     1      -5.499   0.039  -1.330  0.00  0.00    +0.219 C 
ATOM     18  O2  UNL     1      -5.704   0.298  -2.547  0.00  0.00    -0.275 OA
ATOM     19  N6  UNL     1      -6.591  -0.436  -0.520  0.00  0.00    -0.301 N 
ATOM     20  C20 UNL     1      -7.942  -0.577  -1.035  0.00  0.00    +0.108 C 
ATOM     21  C21 UNL     1      -8.807  -0.943   0.166  0.00  0.00    +0.020 C 
ATOM     22  C22 UNL     1      -7.838  -1.419   1.246  0.00  0.00    +0.020 C 
ATOM     23  C23 UNL     1      -6.480  -0.834   0.873  0.00  0.00    +0.108 C 
ENDBRANCH  15  17
ENDBRANCH   4   7
BRANCH   3  24
ATOM     24  C2  UNL     1       5.354   0.651   0.789  0.00  0.00    +0.035 A 
ATOM     25  C3  UNL     1       5.260  -0.572   0.104  0.00  0.00    +0.025 A 
ATOM     26  C4  UNL     1       6.415  -1.278  -0.251  0.00  0.00    +0.029 A 
ATOM     27  C5  UNL     1       7.690  -0.782   0.081  0.00  0.00    +0.067 A 
ATOM     28  C8  UNL     1       7.776   0.433   0.785  0.00  0.00    +0.029 A 
ATOM     29  C9  UNL     1       6.620   1.137   1.140  0.00  0.00    +0.025 A 
BRANCH  27  30
ATOM     30  N2  UNL     1       8.893  -1.501  -0.267  0.00  0.00    -0.220 N 
ATOM     31  C6  UNL     1       9.008  -2.655  -0.956  0.00  0.00    +0.225 A 
ATOM     32  N3  UNL     1      10.295  -3.034  -1.071  0.00  0.00    -0.222 NA
ATOM     33  C7  UNL     1      10.948  -2.050  -0.416  0.00  0.00    +0.245 A 
ATOM     34  N4  UNL     1      10.111  -1.116   0.074  0.00  0.00    -0.154 NA
ENDBRANCH  27  30
ENDBRANCH   3  24
TORSDOF 4
