REMARK  Name = /home/qwerty/github/datacon2025hack/step_04_hit_selection/docking/ligands/lig_83.pdb
REMARK  6 active torsions:
REMARK  status: ('A' for Active; 'I' for Inactive)
REMARK    1  A    between atoms: C1_1  and  C2_2
REMARK    2  A    between atoms: C4_4  and  C5_5
REMARK    3  A    between atoms: N1_7  and  C6_8
REMARK    4  A    between atoms: C6_8  and  C7_9
REMARK    5  A    between atoms: C11_14  and  C12_16
REMARK    6  A    between atoms: C16_21  and  O3_22
REMARK                            x       y       z     vdW  Elec       q    Type
REMARK                         _______ _______ _______ _____ _____    ______ ____
ROOT
ATOM      1  C7  UNL     1       0.274  -1.557  -2.221  0.00  0.00    +0.093 C 
ATOM      2  C8  UNL     1       0.087  -2.930  -1.563  0.00  0.00    +0.025 C 
ATOM      3  C9  UNL     1      -1.274  -2.876  -0.878  0.00  0.00    +0.021 C 
ATOM      4  C10 UNL     1      -1.562  -1.399  -0.651  0.00  0.00    +0.108 C 
ATOM      5  N2  UNL     1      -0.709  -0.685  -1.588  0.00  0.00    -0.292 N 
ATOM      6  C11 UNL     1      -0.948   0.671  -2.008  0.00  0.00    +0.269 C 
ATOM      7  O2  UNL     1      -0.597   1.027  -3.166  0.00  0.00    -0.268 OA
ENDROOT
BRANCH   6   8
ATOM      8  C12 UNL     1      -1.546   1.666  -1.087  0.00  0.00    +0.167 A 
ATOM      9  N3  UNL     1      -1.435   1.474   0.257  0.00  0.00    -0.247 NA
ATOM     10  C13 UNL     1      -1.928   2.358   1.162  0.00  0.00    +0.112 A 
ATOM     11  C14 UNL     1      -2.579   3.512   0.728  0.00  0.00    +0.023 A 
ATOM     12  C15 UNL     1      -2.712   3.744  -0.640  0.00  0.00    +0.049 A 
ATOM     13  C16 UNL     1      -2.195   2.825  -1.563  0.00  0.00    +0.147 A 
BRANCH  13  14
ATOM     14  O3  UNL     1      -2.334   3.058  -2.932  0.00  0.00    -0.504 OA
ATOM     15  H18 UNL     1      -2.821   3.874  -3.285  0.00  0.00    +0.292 HD
ENDBRANCH  13  14
ENDBRANCH   6   8
BRANCH   1  16
ATOM     16  C6  UNL     1       1.706  -1.012  -2.050  0.00  0.00    +0.127 C 
BRANCH  16  19
ATOM     17  C5  UNL     1       2.761  -1.329   0.252  0.00  0.00    +0.282 C 
ATOM     18  O1  UNL     1       3.517  -2.248  -0.164  0.00  0.00    -0.267 OA
ATOM     19  N1  UNL     1       1.950  -0.586  -0.670  0.00  0.00    -0.307 N 
ATOM     20  H5  UNL     1       1.468   0.279  -0.338  0.00  0.00    +0.149 HD
BRANCH  17  24
ATOM     21  C1  UNL     1       1.644   0.456   4.812  0.00  0.00    +0.069 C 
ATOM     22  C2  UNL     1       2.241  -0.291   3.666  0.00  0.00    +0.081 A 
ATOM     23  C3  UNL     1       1.830  -0.216   2.352  0.00  0.00    +0.080 A 
ATOM     24  C4  UNL     1       2.727  -1.031   1.691  0.00  0.00    +0.222 A 
ATOM     25  O4  UNL     1       3.576  -1.523   2.565  0.00  0.00    -0.350 OA
ATOM     26  N4  UNL     1       3.319  -1.091   3.765  0.00  0.00    -0.083 NA
ENDBRANCH  17  24
ENDBRANCH  16  19
ENDBRANCH   1  16
TORSDOF 5
