REMARK  Name = /home/qwerty/github/datacon2025hack/step_04_hit_selection/docking/ligands/lig_546.pdb
REMARK  6 active torsions:
REMARK  status: ('A' for Active; 'I' for Inactive)
REMARK    1  A    between atoms: C1_1  and  N1_2
REMARK    2  A    between atoms: N2_5  and  C4_6
REMARK    3  A    between atoms: C5_7  and  C6_8
REMARK    4  A    between atoms: N3_10  and  C7_11
REMARK    5  A    between atoms: C10_16  and  C11_17
REMARK    6  A    between atoms: C13_20  and  C14_21
REMARK                            x       y       z     vdW  Elec       q    Type
REMARK                         _______ _______ _______ _____ _____    ______ ____
ROOT
ATOM      1  C7  UNL     1      -1.911   0.276  -0.309  0.00  0.00    +0.052 A 
ATOM      2  C8  UNL     1      -1.314   1.000   0.760  0.00  0.00    +0.136 A 
ATOM      3  N4  UNL     1       0.045   1.037   0.904  0.00  0.00    -0.236 NA
ATOM      4  C9  UNL     1       0.822   0.382   0.007  0.00  0.00    +0.139 A 
ATOM      5  N5  UNL     1       2.161   0.318   0.018  0.00  0.00    -0.337 N 
ATOM      6  C10 UNL     1       2.489  -0.436  -1.060  0.00  0.00    +0.084 A 
ATOM      7  C23 UNL     1       1.347  -0.845  -1.753  0.00  0.00    +0.041 A 
ATOM      8  C24 UNL     1       0.295  -0.307  -1.045  0.00  0.00    +0.021 A 
ATOM      9  C25 UNL     1      -1.079  -0.376  -1.243  0.00  0.00    +0.036 A 
ATOM     10  H14 UNL     1       2.807   0.754   0.713  0.00  0.00    +0.167 HD
ENDROOT
BRANCH   6  11
ATOM     11  C11 UNL     1       3.876  -0.770  -1.421  0.00  0.00    +0.156 A 
ATOM     12  N6  UNL     1       4.945  -0.338  -0.702  0.00  0.00    -0.226 NA
ATOM     13  C12 UNL     1       5.991  -0.871  -1.361  0.00  0.00    +0.100 A 
ATOM     14  C13 UNL     1       7.357  -0.739  -1.075  0.00  0.00    +0.028 A 
ATOM     15  C20 UNL     1       8.248  -1.381  -1.969  0.00  0.00    +0.121 A 
ATOM     16  N7  UNL     1       7.772  -2.092  -3.040  0.00  0.00    -0.260 NA
ATOM     17  C21 UNL     1       6.437  -2.210  -3.298  0.00  0.00    +0.138 A 
ATOM     18  C22 UNL     1       5.551  -1.581  -2.434  0.00  0.00    +0.085 A 
ATOM     19  N8  UNL     1       4.215  -1.534  -2.490  0.00  0.00    -0.336 N 
ATOM     20  H19 UNL     1       3.590  -1.978  -3.199  0.00  0.00    +0.167 HD
BRANCH  14  21
ATOM     21  C14 UNL     1       7.853   0.028   0.093  0.00  0.00    -0.009 A 
ATOM     22  C15 UNL     1       7.230  -0.093   1.349  0.00  0.00    +0.050 A 
ATOM     23  C16 UNL     1       7.707   0.628   2.449  0.00  0.00    +0.162 A 
ATOM     24  F1  UNL     1       7.099   0.501   3.654  0.00  0.00    -0.202 F 
ATOM     25  C17 UNL     1       8.811   1.473   2.307  0.00  0.00    +0.193 A 
ATOM     26  F2  UNL     1       9.273   2.170   3.375  0.00  0.00    -0.199 F 
ATOM     27  C18 UNL     1       9.441   1.597   1.066  0.00  0.00    +0.162 A 
ATOM     28  F3  UNL     1      10.513   2.418   0.926  0.00  0.00    -0.202 F 
ATOM     29  C19 UNL     1       8.968   0.877  -0.036  0.00  0.00    +0.050 A 
ENDBRANCH  14  21
ENDBRANCH   6  11
BRANCH   1  32
ATOM     30  C6  UNL     1      -4.273   0.224   0.605  0.00  0.00    +0.236 C 
ATOM     31  O1  UNL     1      -3.886  -0.038   1.775  0.00  0.00    -0.274 OA
ATOM     32  N3  UNL     1      -3.336   0.238  -0.484  0.00  0.00    -0.283 N 
ATOM     33  H12 UNL     1      -3.710   0.130  -1.454  0.00  0.00    +0.155 HD
BRANCH  30  40
ATOM     34  C1  UNL     1      -8.639  -1.966   0.271  0.00  0.00    +0.105 C 
ATOM     35  N1  UNL     1      -7.880  -0.758  -0.089  0.00  0.00    -0.302 NA
ATOM     36  C2  UNL     1      -8.497   0.462   0.487  0.00  0.00    +0.099 C 
ATOM     37  C3  UNL     1      -7.736   0.983   1.717  0.00  0.00    +0.100 C 
ATOM     38  N2  UNL     1      -6.319   1.293   1.407  0.00  0.00    -0.292 NA
ATOM     39  C4  UNL     1      -6.145   2.721   1.089  0.00  0.00    +0.105 C 
ATOM     40  C5  UNL     1      -5.739   0.437   0.339  0.00  0.00    +0.157 C 
ATOM     41  C26 UNL     1      -6.451  -0.925   0.261  0.00  0.00    +0.112 C 
ENDBRANCH  30  40
ENDBRANCH   1  32
TORSDOF 4
