MODEL 1
REMARK VINA RESULT:    -6.945      0.000      0.000
REMARK INTER + INTRA:         -10.978
REMARK INTER:                  -9.787
REMARK INTRA:                  -1.191
REMARK UNBOUND:                -1.191
REMARK  Name = /home/qwerty/github/datacon2025hack/step_04_hit_selection/docking/ligands/lig_144.pdb
REMARK  9 active torsions:
REMARK  status: ('A' for Active; 'I' for Inactive)
REMARK    1  A    between atoms: C1_1  and  C2_2
REMARK    2  A    between atoms: C2_2  and  C3_3
REMARK    3  A    between atoms: C3_3  and  C4_4
REMARK    4  A    between atoms: C3_3  and  N1_5
REMARK    5  A    between atoms: C5_6  and  C6_8
REMARK    6  A    between atoms: C6_8  and  C7_9
REMARK    7  A    between atoms: C7_9  and  N2_10
REMARK    8  A    between atoms: C8_11  and  C9_12
REMARK    9  A    between atoms: C16_24  and  C17_25
REMARK                            x       y       z     vdW  Elec       q    Type
REMARK                         _______ _______ _______ _____ _____    ______ ____
ROOT
ATOM      1  N2  UNL     1      11.436   3.213  21.165  0.00  0.00    -0.294 N 
ATOM      2  C8  UNL     1      10.163   3.048  21.601  0.00  0.00    +0.182 A 
ATOM      3  N4  UNL     1       9.991   1.841  22.172  0.00  0.00    -0.126 NA
ATOM      4  N5  UNL     1      11.157   1.218  22.136  0.00  0.00    -0.113 NA
ATOM      5  C13 UNL     1      12.025   2.045  21.522  0.00  0.00    +0.220 A 
ATOM      6  N6  UNL     1      13.414   1.714  21.338  0.00  0.00    -0.295 N 
ATOM      7  C14 UNL     1      14.068   1.893  20.040  0.00  0.00    +0.136 C 
ATOM      8  C15 UNL     1      15.194   0.868  19.874  0.00  0.00    +0.179 C 
ATOM      9  O2  UNL     1      16.156   0.966  20.909  0.00  0.00    -0.369 OA
ATOM     10  C16 UNL     1      15.603   1.004  22.225  0.00  0.00    +0.166 C 
ATOM     11  C23 UNL     1      14.065   0.847  22.322  0.00  0.00    +0.144 C 
ENDROOT
BRANCH  10  12
ATOM     12  C17 UNL     1      16.283  -0.036  23.083  0.00  0.00    -0.017 A 
ATOM     13  C18 UNL     1      17.448   0.288  23.800  0.00  0.00    +0.009 A 
ATOM     14  C19 UNL     1      18.090  -0.680  24.577  0.00  0.00    +0.039 A 
ATOM     15  C20 UNL     1      17.582  -1.979  24.640  0.00  0.00    +0.123 A 
ATOM     16  F1  UNL     1      18.205  -2.917  25.395  0.00  0.00    -0.205 F 
ATOM     17  C21 UNL     1      16.435  -2.315  23.916  0.00  0.00    +0.039 A 
ATOM     18  C22 UNL     1      15.790  -1.350  23.137  0.00  0.00    +0.009 A 
ENDBRANCH  10  12
BRANCH   2  19
ATOM     19  C9  UNL     1       9.066   4.027  21.489  0.00  0.00    +0.084 A 
ATOM     20  C10 UNL     1       8.147   4.294  22.486  0.00  0.00    +0.031 A 
ATOM     21  C11 UNL     1       7.349   5.317  22.012  0.00  0.00    +0.020 A 
ATOM     22  C12 UNL     1       7.825   5.640  20.759  0.00  0.00    +0.083 A 
ATOM     23  N3  UNL     1       8.872   4.859  20.445  0.00  0.00    -0.358 N 
ATOM     24  H18 UNL     1       9.446   4.935  19.578  0.00  0.00    +0.165 HD
ENDBRANCH   2  19
BRANCH   1  25
ATOM     25  C7  UNL     1      12.028   4.374  20.491  0.00  0.00    +0.136 C 
BRANCH  25  26
ATOM     26  C6  UNL     1      12.589   5.366  21.519  0.00  0.00    +0.117 C 
BRANCH  26  28
ATOM     27  N1  UNL     1      12.074   7.752  20.807  0.00  0.00    -0.313 N 
ATOM     28  C5  UNL     1      11.756   6.614  21.623  0.00  0.00    +0.215 C 
ATOM     29  O1  UNL     1      10.818   6.679  22.464  0.00  0.00    -0.276 OA
ATOM     30  H10 UNL     1      12.853   7.663  20.113  0.00  0.00    +0.149 HD
BRANCH  27  31
ATOM     31  C3  UNL     1      11.331   9.014  20.896  0.00  0.00    +0.070 C 
ATOM     32  C4  UNL     1      11.276   9.703  19.526  0.00  0.00    +0.028 C 
BRANCH  31  34
ATOM     33  C1  UNL     1      10.902  10.472  22.979  0.00  0.00    +0.005 C 
ATOM     34  C2  UNL     1      11.932   9.934  21.983  0.00  0.00    +0.018 C 
ENDBRANCH  31  34
ENDBRANCH  27  31
ENDBRANCH  26  28
ENDBRANCH  25  26
ENDBRANCH   1  25
TORSDOF 7
ENDMDL
MODEL 2
REMARK VINA RESULT:    -6.940     14.980     18.320
REMARK INTER + INTRA:         -10.971
REMARK INTER:                  -9.530
REMARK INTRA:                  -1.442
REMARK UNBOUND:                -1.191
REMARK  Name = /home/qwerty/github/datacon2025hack/step_04_hit_selection/docking/ligands/lig_144.pdb
REMARK  9 active torsions:
REMARK  status: ('A' for Active; 'I' for Inactive)
REMARK    1  A    between atoms: C1_1  and  C2_2
REMARK    2  A    between atoms: C2_2  and  C3_3
REMARK    3  A    between atoms: C3_3  and  C4_4
REMARK    4  A    between atoms: C3_3  and  N1_5
REMARK    5  A    between atoms: C5_6  and  C6_8
REMARK    6  A    between atoms: C6_8  and  C7_9
REMARK    7  A    between atoms: C7_9  and  N2_10
REMARK    8  A    between atoms: C8_11  and  C9_12
REMARK    9  A    between atoms: C16_24  and  C17_25
REMARK                            x       y       z     vdW  Elec       q    Type
REMARK                         _______ _______ _______ _____ _____    ______ ____
ROOT
ATOM      1  N2  UNL     1      18.517   9.944  35.969  0.00  0.00    -0.294 N 
ATOM      2  C8  UNL     1      18.842   9.399  37.168  0.00  0.00    +0.182 A 
ATOM      3  N4  UNL     1      18.077   9.897  38.158  0.00  0.00    -0.126 NA
ATOM      4  N5  UNL     1      17.229  10.751  37.609  0.00  0.00    -0.113 NA
ATOM      5  C13 UNL     1      17.501  10.783  36.291  0.00  0.00    +0.220 A 
ATOM      6  N6  UNL     1      16.744  11.581  35.361  0.00  0.00    -0.295 N 
ATOM      7  C14 UNL     1      17.414  12.428  34.374  0.00  0.00    +0.136 C 
ATOM      8  C15 UNL     1      16.541  13.644  34.047  0.00  0.00    +0.179 C 
ATOM      9  O2  UNL     1      15.266  13.265  33.562  0.00  0.00    -0.369 OA
ATOM     10  C16 UNL     1      14.604  12.278  34.355  0.00  0.00    +0.166 C 
ATOM     11  C23 UNL     1      15.333  11.845  35.650  0.00  0.00    +0.144 C 
ENDROOT
BRANCH  10  12
ATOM     12  C17 UNL     1      13.209  12.754  34.682  0.00  0.00    -0.017 A 
ATOM     13  C18 UNL     1      12.514  13.587  33.787  0.00  0.00    +0.009 A 
ATOM     14  C19 UNL     1      11.232  14.044  34.100  0.00  0.00    +0.039 A 
ATOM     15  C20 UNL     1      10.633  13.683  35.309  0.00  0.00    +0.123 A 
ATOM     16  F1  UNL     1       9.388  14.127  35.611  0.00  0.00    -0.205 F 
ATOM     17  C21 UNL     1      11.323  12.871  36.213  0.00  0.00    +0.039 A 
ATOM     18  C22 UNL     1      12.607  12.411  35.905  0.00  0.00    +0.009 A 
ENDBRANCH  10  12
BRANCH   2  19
ATOM     19  C9  UNL     1      19.890   8.393  37.415  0.00  0.00    +0.084 A 
ATOM     20  C10 UNL     1      19.701   7.026  37.331  0.00  0.00    +0.031 A 
ATOM     21  C11 UNL     1      20.937   6.451  37.556  0.00  0.00    +0.020 A 
ATOM     22  C12 UNL     1      21.825   7.488  37.750  0.00  0.00    +0.083 A 
ATOM     23  N3  UNL     1      21.189   8.667  37.657  0.00  0.00    -0.358 N 
ATOM     24  H18 UNL     1      21.640   9.605  37.710  0.00  0.00    +0.165 HD
ENDBRANCH   2  19
BRANCH   1  25
ATOM     25  C7  UNL     1      19.108   9.676  34.654  0.00  0.00    +0.136 C 
BRANCH  25  26
ATOM     26  C6  UNL     1      20.485  10.344  34.535  0.00  0.00    +0.117 C 
BRANCH  26  28
ATOM     27  N1  UNL     1      22.446   9.846  32.997  0.00  0.00    -0.313 N 
ATOM     28  C5  UNL     1      21.535   9.402  34.013  0.00  0.00    +0.215 C 
ATOM     29  O1  UNL     1      21.578   8.212  34.428  0.00  0.00    -0.276 OA
ATOM     30  H10 UNL     1      22.390  10.842  32.679  0.00  0.00    +0.149 HD
BRANCH  27  31
ATOM     31  C3  UNL     1      23.461   8.962  32.412  0.00  0.00    +0.070 C 
ATOM     32  C4  UNL     1      24.786   9.714  32.226  0.00  0.00    +0.028 C 
BRANCH  31  34
ATOM     33  C1  UNL     1      22.550   6.871  31.210  0.00  0.00    +0.005 C 
ATOM     34  C2  UNL     1      22.958   8.341  31.089  0.00  0.00    +0.018 C 
ENDBRANCH  31  34
ENDBRANCH  27  31
ENDBRANCH  26  28
ENDBRANCH  25  26
ENDBRANCH   1  25
TORSDOF 7
ENDMDL
MODEL 3
REMARK VINA RESULT:    -6.671     15.274     18.116
REMARK INTER + INTRA:         -10.592
REMARK INTER:                  -9.128
REMARK INTRA:                  -1.464
REMARK UNBOUND:                -1.191
REMARK  Name = /home/qwerty/github/datacon2025hack/step_04_hit_selection/docking/ligands/lig_144.pdb
REMARK  9 active torsions:
REMARK  status: ('A' for Active; 'I' for Inactive)
REMARK    1  A    between atoms: C1_1  and  C2_2
REMARK    2  A    between atoms: C2_2  and  C3_3
REMARK    3  A    between atoms: C3_3  and  C4_4
REMARK    4  A    between atoms: C3_3  and  N1_5
REMARK    5  A    between atoms: C5_6  and  C6_8
REMARK    6  A    between atoms: C6_8  and  C7_9
REMARK    7  A    between atoms: C7_9  and  N2_10
REMARK    8  A    between atoms: C8_11  and  C9_12
REMARK    9  A    between atoms: C16_24  and  C17_25
REMARK                            x       y       z     vdW  Elec       q    Type
REMARK                         _______ _______ _______ _____ _____    ______ ____
ROOT
ATOM      1  N2  UNL     1      19.075   9.557  35.370  0.00  0.00    -0.294 N 
ATOM      2  C8  UNL     1      19.765   8.952  36.369  0.00  0.00    +0.182 A 
ATOM      3  N4  UNL     1      19.246   9.248  37.575  0.00  0.00    -0.126 NA
ATOM      4  N5  UNL     1      18.197  10.027  37.372  0.00  0.00    -0.113 NA
ATOM      5  C13 UNL     1      18.101  10.218  36.042  0.00  0.00    +0.220 A 
ATOM      6  N6  UNL     1      17.042  10.990  35.444  0.00  0.00    -0.295 N 
ATOM      7  C14 UNL     1      17.329  12.008  34.432  0.00  0.00    +0.136 C 
ATOM      8  C15 UNL     1      16.277  13.120  34.493  0.00  0.00    +0.179 C 
ATOM      9  O2  UNL     1      14.966  12.619  34.306  0.00  0.00    -0.369 OA
ATOM     10  C16 UNL     1      14.649  11.484  35.111  0.00  0.00    +0.166 C 
ATOM     11  C23 UNL     1      15.741  11.034  36.113  0.00  0.00    +0.144 C 
ENDROOT
BRANCH  10  12
ATOM     12  C17 UNL     1      13.351  11.734  35.839  0.00  0.00    -0.017 A 
ATOM     13  C18 UNL     1      12.945  10.881  36.881  0.00  0.00    +0.009 A 
ATOM     14  C19 UNL     1      11.733  11.101  37.540  0.00  0.00    +0.039 A 
ATOM     15  C20 UNL     1      10.911  12.165  37.164  0.00  0.00    +0.123 A 
ATOM     16  F1  UNL     1       9.736  12.377  37.805  0.00  0.00    -0.205 F 
ATOM     17  C21 UNL     1      11.297  13.007  36.117  0.00  0.00    +0.039 A 
ATOM     18  C22 UNL     1      12.509  12.792  35.454  0.00  0.00    +0.009 A 
ENDBRANCH  10  12
BRANCH   2  19
ATOM     19  C9  UNL     1      20.941   8.077  36.213  0.00  0.00    +0.084 A 
ATOM     20  C10 UNL     1      20.896   6.777  35.747  0.00  0.00    +0.031 A 
ATOM     21  C11 UNL     1      22.205   6.344  35.680  0.00  0.00    +0.020 A 
ATOM     22  C12 UNL     1      22.991   7.400  36.090  0.00  0.00    +0.083 A 
ATOM     23  N3  UNL     1      22.221   8.455  36.407  0.00  0.00    -0.358 N 
ATOM     24  H18 UNL     1      22.569   9.394  36.694  0.00  0.00    +0.165 HD
ENDBRANCH   2  19
BRANCH   1  25
ATOM     25  C7  UNL     1      19.316   9.495  33.925  0.00  0.00    +0.136 C 
BRANCH  25  26
ATOM     26  C6  UNL     1      20.434  10.466  33.523  0.00  0.00    +0.117 C 
BRANCH  26  28
ATOM     27  N1  UNL     1      22.108   8.650  32.919  0.00  0.00    -0.313 N 
ATOM     28  C5  UNL     1      21.408   9.850  32.556  0.00  0.00    +0.215 C 
ATOM     29  O1  UNL     1      21.649  10.416  31.455  0.00  0.00    -0.276 OA
ATOM     30  H10 UNL     1      21.879   8.200  33.837  0.00  0.00    +0.149 HD
BRANCH  27  31
ATOM     31  C3  UNL     1      23.104   8.026  32.041  0.00  0.00    +0.070 C 
ATOM     32  C4  UNL     1      22.773   6.545  31.819  0.00  0.00    +0.028 C 
BRANCH  31  34
ATOM     33  C1  UNL     1      25.180   9.548  32.194  0.00  0.00    +0.005 C 
ATOM     34  C2  UNL     1      24.532   8.222  32.600  0.00  0.00    +0.018 C 
ENDBRANCH  31  34
ENDBRANCH  27  31
ENDBRANCH  26  28
ENDBRANCH  25  26
ENDBRANCH   1  25
TORSDOF 7
ENDMDL
MODEL 4
REMARK VINA RESULT:    -6.601     15.039     16.734
REMARK INTER + INTRA:         -10.493
REMARK INTER:                  -9.119
REMARK INTRA:                  -1.374
REMARK UNBOUND:                -1.191
REMARK  Name = /home/qwerty/github/datacon2025hack/step_04_hit_selection/docking/ligands/lig_144.pdb
REMARK  9 active torsions:
REMARK  status: ('A' for Active; 'I' for Inactive)
REMARK    1  A    between atoms: C1_1  and  C2_2
REMARK    2  A    between atoms: C2_2  and  C3_3
REMARK    3  A    between atoms: C3_3  and  C4_4
REMARK    4  A    between atoms: C3_3  and  N1_5
REMARK    5  A    between atoms: C5_6  and  C6_8
REMARK    6  A    between atoms: C6_8  and  C7_9
REMARK    7  A    between atoms: C7_9  and  N2_10
REMARK    8  A    between atoms: C8_11  and  C9_12
REMARK    9  A    between atoms: C16_24  and  C17_25
REMARK                            x       y       z     vdW  Elec       q    Type
REMARK                         _______ _______ _______ _____ _____    ______ ____
ROOT
ATOM      1  N2  UNL     1      17.908  10.924  36.374  0.00  0.00    -0.294 N 
ATOM      2  C8  UNL     1      18.077  12.261  36.225  0.00  0.00    +0.182 A 
ATOM      3  N4  UNL     1      19.371  12.574  36.027  0.00  0.00    -0.126 NA
ATOM      4  N5  UNL     1      20.054  11.441  36.020  0.00  0.00    -0.113 NA
ATOM      5  C13 UNL     1      19.170  10.449  36.237  0.00  0.00    +0.220 A 
ATOM      6  N6  UNL     1      19.552   9.060  36.255  0.00  0.00    -0.295 N 
ATOM      7  C14 UNL     1      19.105   8.168  37.326  0.00  0.00    +0.136 C 
ATOM      8  C15 UNL     1      20.141   7.062  37.554  0.00  0.00    +0.179 C 
ATOM      9  O2  UNL     1      20.380   6.311  36.378  0.00  0.00    -0.369 OA
ATOM     10  C16 UNL     1      20.629   7.101  35.215  0.00  0.00    +0.166 C 
ATOM     11  C23 UNL     1      20.685   8.633  35.432  0.00  0.00    +0.144 C 
ENDROOT
BRANCH  10  12
ATOM     12  C17 UNL     1      21.900   6.627  34.552  0.00  0.00    -0.017 A 
ATOM     13  C18 UNL     1      23.152   6.935  35.113  0.00  0.00    +0.009 A 
ATOM     14  C19 UNL     1      24.328   6.515  34.487  0.00  0.00    +0.039 A 
ATOM     15  C20 UNL     1      24.269   5.792  33.294  0.00  0.00    +0.123 A 
ATOM     16  F1  UNL     1      25.411   5.384  32.689  0.00  0.00    -0.205 F 
ATOM     17  C21 UNL     1      23.030   5.497  32.718  0.00  0.00    +0.039 A 
ATOM     18  C22 UNL     1      21.850   5.916  33.341  0.00  0.00    +0.009 A 
ENDBRANCH  10  12
BRANCH   2  19
ATOM     19  C9  UNL     1      17.019  13.287  36.269  0.00  0.00    +0.084 A 
ATOM     20  C10 UNL     1      16.324  13.745  35.166  0.00  0.00    +0.031 A 
ATOM     21  C11 UNL     1      15.380  14.632  35.644  0.00  0.00    +0.020 A 
ATOM     22  C12 UNL     1      15.528  14.663  37.015  0.00  0.00    +0.083 A 
ATOM     23  N3  UNL     1      16.519  13.840  37.393  0.00  0.00    -0.358 N 
ATOM     24  H18 UNL     1      16.798  13.639  38.377  0.00  0.00    +0.165 HD
ENDBRANCH   2  19
BRANCH   1  25
ATOM     25  C7  UNL     1      16.665  10.181  36.609  0.00  0.00    +0.136 C 
BRANCH  25  26
ATOM     26  C6  UNL     1      15.994   9.817  35.277  0.00  0.00    +0.117 C 
BRANCH  26  28
ATOM     27  N1  UNL     1      13.880  10.723  36.360  0.00  0.00    -0.313 N 
ATOM     28  C5  UNL     1      14.600  10.371  35.169  0.00  0.00    +0.215 C 
ATOM     29  O1  UNL     1      14.046  10.473  34.040  0.00  0.00    -0.276 OA
ATOM     30  H10 UNL     1      14.370  10.634  37.281  0.00  0.00    +0.149 HD
BRANCH  27  31
ATOM     31  C3  UNL     1      12.500  11.222  36.326  0.00  0.00    +0.070 C 
ATOM     32  C4  UNL     1      12.475  12.744  36.517  0.00  0.00    +0.028 C 
BRANCH  31  34
ATOM     33  C1  UNL     1      10.787   9.352  36.786  0.00  0.00    +0.005 C 
ATOM     34  C2  UNL     1      11.622  10.494  37.368  0.00  0.00    +0.018 C 
ENDBRANCH  31  34
ENDBRANCH  27  31
ENDBRANCH  26  28
ENDBRANCH  25  26
ENDBRANCH   1  25
TORSDOF 7
ENDMDL
MODEL 5
REMARK VINA RESULT:    -6.579      3.894      9.612
REMARK INTER + INTRA:         -10.463
REMARK INTER:                  -9.123
REMARK INTRA:                  -1.340
REMARK UNBOUND:                -1.191
REMARK  Name = /home/qwerty/github/datacon2025hack/step_04_hit_selection/docking/ligands/lig_144.pdb
REMARK  9 active torsions:
REMARK  status: ('A' for Active; 'I' for Inactive)
REMARK    1  A    between atoms: C1_1  and  C2_2
REMARK    2  A    between atoms: C2_2  and  C3_3
REMARK    3  A    between atoms: C3_3  and  C4_4
REMARK    4  A    between atoms: C3_3  and  N1_5
REMARK    5  A    between atoms: C5_6  and  C6_8
REMARK    6  A    between atoms: C6_8  and  C7_9
REMARK    7  A    between atoms: C7_9  and  N2_10
REMARK    8  A    between atoms: C8_11  and  C9_12
REMARK    9  A    between atoms: C16_24  and  C17_25
REMARK                            x       y       z     vdW  Elec       q    Type
REMARK                         _______ _______ _______ _____ _____    ______ ____
ROOT
ATOM      1  N2  UNL     1      12.651   2.878  21.073  0.00  0.00    -0.294 N 
ATOM      2  C8  UNL     1      13.733   2.868  20.256  0.00  0.00    +0.182 A 
ATOM      3  N4  UNL     1      13.705   3.899  19.390  0.00  0.00    -0.126 NA
ATOM      4  N5  UNL     1      12.616   4.604  19.652  0.00  0.00    -0.113 NA
ATOM      5  C13 UNL     1      11.979   3.981  20.662  0.00  0.00    +0.220 A 
ATOM      6  N6  UNL     1      10.765   4.491  21.245  0.00  0.00    -0.295 N 
ATOM      7  C14 UNL     1       9.614   3.617  21.477  0.00  0.00    +0.136 C 
ATOM      8  C15 UNL     1       8.315   4.425  21.385  0.00  0.00    +0.179 C 
ATOM      9  O2  UNL     1       8.292   5.497  22.309  0.00  0.00    -0.369 OA
ATOM     10  C16 UNL     1       9.471   6.303  22.305  0.00  0.00    +0.166 C 
ATOM     11  C23 UNL     1      10.541   5.938  21.247  0.00  0.00    +0.144 C 
ENDROOT
BRANCH  10  12
ATOM     12  C17 UNL     1       9.083   7.756  22.168  0.00  0.00    -0.017 A 
ATOM     13  C18 UNL     1       8.256   8.363  23.128  0.00  0.00    +0.009 A 
ATOM     14  C19 UNL     1       7.879   9.702  22.989  0.00  0.00    +0.039 A 
ATOM     15  C20 UNL     1       8.316  10.443  21.889  0.00  0.00    +0.123 A 
ATOM     16  F1  UNL     1       7.950  11.742  21.757  0.00  0.00    -0.205 F 
ATOM     17  C21 UNL     1       9.123   9.842  20.920  0.00  0.00    +0.039 A 
ATOM     18  C22 UNL     1       9.502   8.503  21.054  0.00  0.00    +0.009 A 
ENDBRANCH  10  12
BRANCH   2  19
ATOM     19  C9  UNL     1      14.828   1.881  20.266  0.00  0.00    +0.084 A 
ATOM     20  C10 UNL     1      16.062   2.085  20.853  0.00  0.00    +0.031 A 
ATOM     21  C11 UNL     1      16.759   0.901  20.709  0.00  0.00    +0.020 A 
ATOM     22  C12 UNL     1      15.916   0.025  20.058  0.00  0.00    +0.083 A 
ATOM     23  N3  UNL     1      14.741   0.620  19.795  0.00  0.00    -0.358 N 
ATOM     24  H18 UNL     1      13.913   0.161  19.359  0.00  0.00    +0.165 HD
ENDBRANCH   2  19
BRANCH   1  25
ATOM     25  C7  UNL     1      12.306   1.935  22.143  0.00  0.00    +0.136 C 
BRANCH  25  26
ATOM     26  C6  UNL     1      13.367   1.965  23.251  0.00  0.00    +0.117 C 
BRANCH  26  28
ATOM     27  N1  UNL     1      14.337   0.328  24.937  0.00  0.00    -0.313 N 
ATOM     28  C5  UNL     1      13.861   0.590  23.608  0.00  0.00    +0.215 C 
ATOM     29  O1  UNL     1      13.907  -0.313  22.729  0.00  0.00    -0.276 OA
ATOM     30  H10 UNL     1      14.277   1.096  25.646  0.00  0.00    +0.149 HD
BRANCH  27  31
ATOM     31  C3  UNL     1      14.875  -0.978  25.335  0.00  0.00    +0.070 C 
ATOM     32  C4  UNL     1      13.849  -1.748  26.177  0.00  0.00    +0.028 C 
BRANCH  31  34
ATOM     33  C1  UNL     1      17.135   0.256  25.472  0.00  0.00    +0.005 C 
ATOM     34  C2  UNL     1      16.224  -0.818  26.071  0.00  0.00    +0.018 C 
ENDBRANCH  31  34
ENDBRANCH  27  31
ENDBRANCH  26  28
ENDBRANCH  25  26
ENDBRANCH   1  25
TORSDOF 7
ENDMDL
MODEL 6
REMARK VINA RESULT:    -6.557      3.854      9.385
REMARK INTER + INTRA:         -10.432
REMARK INTER:                  -8.831
REMARK INTRA:                  -1.602
REMARK UNBOUND:                -1.191
REMARK  Name = /home/qwerty/github/datacon2025hack/step_04_hit_selection/docking/ligands/lig_144.pdb
REMARK  9 active torsions:
REMARK  status: ('A' for Active; 'I' for Inactive)
REMARK    1  A    between atoms: C1_1  and  C2_2
REMARK    2  A    between atoms: C2_2  and  C3_3
REMARK    3  A    between atoms: C3_3  and  C4_4
REMARK    4  A    between atoms: C3_3  and  N1_5
REMARK    5  A    between atoms: C5_6  and  C6_8
REMARK    6  A    between atoms: C6_8  and  C7_9
REMARK    7  A    between atoms: C7_9  and  N2_10
REMARK    8  A    between atoms: C8_11  and  C9_12
REMARK    9  A    between atoms: C16_24  and  C17_25
REMARK                            x       y       z     vdW  Elec       q    Type
REMARK                         _______ _______ _______ _____ _____    ______ ____
ROOT
ATOM      1  N2  UNL     1      13.101   1.910  22.250  0.00  0.00    -0.294 N 
ATOM      2  C8  UNL     1      14.218   1.506  21.596  0.00  0.00    +0.182 A 
ATOM      3  N4  UNL     1      14.405   2.208  20.463  0.00  0.00    -0.126 NA
ATOM      4  N5  UNL     1      13.426   3.093  20.381  0.00  0.00    -0.113 NA
ATOM      5  C13 UNL     1      12.637   2.906  21.457  0.00  0.00    +0.220 A 
ATOM      6  N6  UNL     1      11.483   3.725  21.725  0.00  0.00    -0.295 N 
ATOM      7  C14 UNL     1      10.197   3.124  22.083  0.00  0.00    +0.136 C 
ATOM      8  C15 UNL     1       9.049   4.022  21.612  0.00  0.00    +0.179 C 
ATOM      9  O2  UNL     1       9.135   5.324  22.162  0.00  0.00    -0.369 OA
ATOM     10  C16 UNL     1      10.423   5.929  22.044  0.00  0.00    +0.166 C 
ATOM     11  C23 UNL     1      11.488   5.116  21.267  0.00  0.00    +0.144 C 
ENDROOT
BRANCH  10  12
ATOM     12  C17 UNL     1      10.276   7.303  21.435  0.00  0.00    -0.017 A 
ATOM     13  C18 UNL     1       9.232   8.152  21.842  0.00  0.00    +0.009 A 
ATOM     14  C19 UNL     1       9.084   9.415  21.262  0.00  0.00    +0.039 A 
ATOM     15  C20 UNL     1       9.967   9.838  20.267  0.00  0.00    +0.123 A 
ATOM     16  F1  UNL     1       9.821  11.064  19.707  0.00  0.00    -0.205 F 
ATOM     17  C21 UNL     1      10.996   8.994  19.842  0.00  0.00    +0.039 A 
ATOM     18  C22 UNL     1      11.148   7.729  20.419  0.00  0.00    +0.009 A 
ENDBRANCH  10  12
BRANCH   2  19
ATOM     19  C9  UNL     1      15.142   0.439  22.021  0.00  0.00    +0.084 A 
ATOM     20  C10 UNL     1      16.452   0.646  22.412  0.00  0.00    +0.031 A 
ATOM     21  C11 UNL     1      16.938  -0.587  22.802  0.00  0.00    +0.020 A 
ATOM     22  C12 UNL     1      15.903  -1.485  22.648  0.00  0.00    +0.083 A 
ATOM     23  N3  UNL     1      14.811  -0.859  22.179  0.00  0.00    -0.358 N 
ATOM     24  H18 UNL     1      13.878  -1.299  22.026  0.00  0.00    +0.165 HD
ENDBRANCH   2  19
BRANCH   1  25
ATOM     25  C7  UNL     1      12.547   1.403  23.510  0.00  0.00    +0.136 C 
BRANCH  25  26
ATOM     26  C6  UNL     1      12.984   2.286  24.686  0.00  0.00    +0.117 C 
BRANCH  26  28
ATOM     27  N1  UNL     1      14.752   0.678  25.552  0.00  0.00    -0.313 N 
ATOM     28  C5  UNL     1      13.595   1.488  25.806  0.00  0.00    +0.215 C 
ATOM     29  O1  UNL     1      13.058   1.488  26.947  0.00  0.00    -0.276 OA
ATOM     30  H10 UNL     1      15.179   0.706  24.596  0.00  0.00    +0.149 HD
BRANCH  27  31
ATOM     31  C3  UNL     1      15.366  -0.161  26.588  0.00  0.00    +0.070 C 
ATOM     32  C4  UNL     1      16.802   0.299  26.870  0.00  0.00    +0.028 C 
BRANCH  31  34
ATOM     33  C1  UNL     1      13.906  -2.132  25.795  0.00  0.00    +0.005 C 
ATOM     34  C2  UNL     1      15.302  -1.655  26.200  0.00  0.00    +0.018 C 
ENDBRANCH  31  34
ENDBRANCH  27  31
ENDBRANCH  26  28
ENDBRANCH  25  26
ENDBRANCH   1  25
TORSDOF 7
ENDMDL
MODEL 7
REMARK VINA RESULT:    -6.466     12.752     16.306
REMARK INTER + INTRA:         -10.303
REMARK INTER:                  -8.758
REMARK INTRA:                  -1.545
REMARK UNBOUND:                -1.191
REMARK  Name = /home/qwerty/github/datacon2025hack/step_04_hit_selection/docking/ligands/lig_144.pdb
REMARK  9 active torsions:
REMARK  status: ('A' for Active; 'I' for Inactive)
REMARK    1  A    between atoms: C1_1  and  C2_2
REMARK    2  A    between atoms: C2_2  and  C3_3
REMARK    3  A    between atoms: C3_3  and  C4_4
REMARK    4  A    between atoms: C3_3  and  N1_5
REMARK    5  A    between atoms: C5_6  and  C6_8
REMARK    6  A    between atoms: C6_8  and  C7_9
REMARK    7  A    between atoms: C7_9  and  N2_10
REMARK    8  A    between atoms: C8_11  and  C9_12
REMARK    9  A    between atoms: C16_24  and  C17_25
REMARK                            x       y       z     vdW  Elec       q    Type
REMARK                         _______ _______ _______ _____ _____    ______ ____
ROOT
ATOM      1  N2  UNL     1      20.311   4.345  33.866  0.00  0.00    -0.294 N 
ATOM      2  C8  UNL     1      19.454   3.300  33.977  0.00  0.00    +0.182 A 
ATOM      3  N4  UNL     1      18.494   3.547  34.889  0.00  0.00    -0.126 NA
ATOM      4  N5  UNL     1      18.704   4.764  35.362  0.00  0.00    -0.113 NA
ATOM      5  C13 UNL     1      19.804   5.240  34.748  0.00  0.00    +0.220 A 
ATOM      6  N6  UNL     1      20.313   6.566  34.987  0.00  0.00    -0.295 N 
ATOM      7  C14 UNL     1      21.735   6.793  35.250  0.00  0.00    +0.136 C 
ATOM      8  C15 UNL     1      21.913   8.022  36.146  0.00  0.00    +0.179 C 
ATOM      9  O2  UNL     1      21.345   9.184  35.570  0.00  0.00    -0.369 OA
ATOM     10  C16 UNL     1      20.011   9.011  35.091  0.00  0.00    +0.166 C 
ATOM     11  C23 UNL     1      19.370   7.625  35.349  0.00  0.00    +0.144 C 
ENDROOT
BRANCH  10  12
ATOM     12  C17 UNL     1      19.132  10.101  35.656  0.00  0.00    -0.017 A 
ATOM     13  C18 UNL     1      19.640  11.398  35.841  0.00  0.00    +0.009 A 
ATOM     14  C19 UNL     1      18.832  12.401  36.385  0.00  0.00    +0.039 A 
ATOM     15  C20 UNL     1      17.516  12.118  36.755  0.00  0.00    +0.123 A 
ATOM     16  F1  UNL     1      16.733  13.092  37.281  0.00  0.00    -0.205 F 
ATOM     17  C21 UNL     1      17.008  10.827  36.592  0.00  0.00    +0.039 A 
ATOM     18  C22 UNL     1      17.812   9.820  36.049  0.00  0.00    +0.009 A 
ENDBRANCH  10  12
BRANCH   2  19
ATOM     19  C9  UNL     1      19.517   2.033  33.226  0.00  0.00    +0.084 A 
ATOM     20  C10 UNL     1      18.657   1.685  32.201  0.00  0.00    +0.031 A 
ATOM     21  C11 UNL     1      19.102   0.470  31.720  0.00  0.00    +0.020 A 
ATOM     22  C12 UNL     1      20.219   0.139  32.458  0.00  0.00    +0.083 A 
ATOM     23  N3  UNL     1      20.473   1.093  33.369  0.00  0.00    -0.358 N 
ATOM     24  H18 UNL     1      21.290   1.111  34.015  0.00  0.00    +0.165 HD
ENDBRANCH   2  19
BRANCH   1  25
ATOM     25  C7  UNL     1      21.485   4.474  32.995  0.00  0.00    +0.136 C 
BRANCH  25  26
ATOM     26  C6  UNL     1      21.068   4.430  31.519  0.00  0.00    +0.117 C 
BRANCH  26  28
ATOM     27  N1  UNL     1      21.595   3.240  29.335  0.00  0.00    -0.313 N 
ATOM     28  C5  UNL     1      21.792   3.358  30.752  0.00  0.00    +0.215 C 
ATOM     29  O1  UNL     1      22.526   2.532  31.360  0.00  0.00    -0.276 OA
ATOM     30  H10 UNL     1      20.986   3.946  28.858  0.00  0.00    +0.149 HD
BRANCH  27  31
ATOM     31  C3  UNL     1      22.234   2.187  28.538  0.00  0.00    +0.070 C 
ATOM     32  C4  UNL     1      22.489   2.676  27.106  0.00  0.00    +0.028 C 
BRANCH  31  34
ATOM     33  C1  UNL     1      22.131  -0.311  29.167  0.00  0.00    +0.005 C 
ATOM     34  C2  UNL     1      21.397   0.888  28.564  0.00  0.00    +0.018 C 
ENDBRANCH  31  34
ENDBRANCH  27  31
ENDBRANCH  26  28
ENDBRANCH  25  26
ENDBRANCH   1  25
TORSDOF 7
ENDMDL
MODEL 8
REMARK VINA RESULT:    -6.186      5.357     10.466
REMARK INTER + INTRA:          -9.909
REMARK INTER:                  -8.423
REMARK INTRA:                  -1.486
REMARK UNBOUND:                -1.191
REMARK  Name = /home/qwerty/github/datacon2025hack/step_04_hit_selection/docking/ligands/lig_144.pdb
REMARK  9 active torsions:
REMARK  status: ('A' for Active; 'I' for Inactive)
REMARK    1  A    between atoms: C1_1  and  C2_2
REMARK    2  A    between atoms: C2_2  and  C3_3
REMARK    3  A    between atoms: C3_3  and  C4_4
REMARK    4  A    between atoms: C3_3  and  N1_5
REMARK    5  A    between atoms: C5_6  and  C6_8
REMARK    6  A    between atoms: C6_8  and  C7_9
REMARK    7  A    between atoms: C7_9  and  N2_10
REMARK    8  A    between atoms: C8_11  and  C9_12
REMARK    9  A    between atoms: C16_24  and  C17_25
REMARK                            x       y       z     vdW  Elec       q    Type
REMARK                         _______ _______ _______ _____ _____    ______ ____
ROOT
ATOM      1  N2  UNL     1      18.764   1.964  24.697  0.00  0.00    -0.294 N 
ATOM      2  C8  UNL     1      19.589   2.994  24.387  0.00  0.00    +0.182 A 
ATOM      3  N4  UNL     1      19.105   3.720  23.361  0.00  0.00    -0.126 NA
ATOM      4  N5  UNL     1      17.948   3.184  23.011  0.00  0.00    -0.113 NA
ATOM      5  C13 UNL     1      17.748   2.121  23.814  0.00  0.00    +0.220 A 
ATOM      6  N6  UNL     1      16.559   1.311  23.747  0.00  0.00    -0.295 N 
ATOM      7  C14 UNL     1      16.642  -0.150  23.715  0.00  0.00    +0.136 C 
ATOM      8  C15 UNL     1      15.451  -0.727  22.944  0.00  0.00    +0.179 C 
ATOM      9  O2  UNL     1      14.213  -0.332  23.508  0.00  0.00    -0.369 OA
ATOM     10  C16 UNL     1      14.105   1.067  23.769  0.00  0.00    +0.166 C 
ATOM     11  C23 UNL     1      15.306   1.938  23.322  0.00  0.00    +0.144 C 
ENDROOT
BRANCH  10  12
ATOM     12  C17 UNL     1      12.830   1.593  23.156  0.00  0.00    -0.017 A 
ATOM     13  C18 UNL     1      11.663   0.808  23.163  0.00  0.00    +0.009 A 
ATOM     14  C19 UNL     1      10.488   1.287  22.576  0.00  0.00    +0.039 A 
ATOM     15  C20 UNL     1      10.468   2.545  21.971  0.00  0.00    +0.123 A 
ATOM     16  F1  UNL     1       9.327   3.008  21.404  0.00  0.00    -0.205 F 
ATOM     17  C21 UNL     1      11.627   3.325  21.944  0.00  0.00    +0.039 A 
ATOM     18  C22 UNL     1      12.805   2.850  22.529  0.00  0.00    +0.009 A 
ENDBRANCH  10  12
BRANCH   2  19
ATOM     19  C9  UNL     1      20.864   3.323  25.049  0.00  0.00    +0.084 A 
ATOM     20  C10 UNL     1      20.983   4.118  26.173  0.00  0.00    +0.031 A 
ATOM     21  C11 UNL     1      22.321   4.109  26.514  0.00  0.00    +0.020 A 
ATOM     22  C12 UNL     1      22.956   3.299  25.596  0.00  0.00    +0.083 A 
ATOM     23  N3  UNL     1      22.068   2.817  24.710  0.00  0.00    -0.358 N 
ATOM     24  H18 UNL     1      22.280   2.139  23.948  0.00  0.00    +0.165 HD
ENDBRANCH   2  19
BRANCH   1  25
ATOM     25  C7  UNL     1      18.927   0.945  25.741  0.00  0.00    +0.136 C 
BRANCH  25  26
ATOM     26  C6  UNL     1      18.165   1.348  27.011  0.00  0.00    +0.117 C 
BRANCH  26  28
ATOM     27  N1  UNL     1      20.455   1.175  28.103  0.00  0.00    -0.313 N 
ATOM     28  C5  UNL     1      19.030   1.284  28.240  0.00  0.00    +0.215 C 
ATOM     29  O1  UNL     1      18.500   1.269  29.385  0.00  0.00    -0.276 OA
ATOM     30  H10 UNL     1      20.864   1.198  27.140  0.00  0.00    +0.149 HD
BRANCH  27  31
ATOM     31  C3  UNL     1      21.348   1.060  29.261  0.00  0.00    +0.070 C 
ATOM     32  C4  UNL     1      21.775   2.450  29.751  0.00  0.00    +0.028 C 
BRANCH  31  34
ATOM     33  C1  UNL     1      23.914   0.806  29.264  0.00  0.00    +0.005 C 
ATOM     34  C2  UNL     1      22.565   0.164  28.934  0.00  0.00    +0.018 C 
ENDBRANCH  31  34
ENDBRANCH  27  31
ENDBRANCH  26  28
ENDBRANCH  25  26
ENDBRANCH   1  25
TORSDOF 7
ENDMDL
MODEL 9
REMARK VINA RESULT:    -6.121     15.606     17.221
REMARK INTER + INTRA:          -9.817
REMARK INTER:                  -8.424
REMARK INTRA:                  -1.393
REMARK UNBOUND:                -1.191
REMARK  Name = /home/qwerty/github/datacon2025hack/step_04_hit_selection/docking/ligands/lig_144.pdb
REMARK  9 active torsions:
REMARK  status: ('A' for Active; 'I' for Inactive)
REMARK    1  A    between atoms: C1_1  and  C2_2
REMARK    2  A    between atoms: C2_2  and  C3_3
REMARK    3  A    between atoms: C3_3  and  C4_4
REMARK    4  A    between atoms: C3_3  and  N1_5
REMARK    5  A    between atoms: C5_6  and  C6_8
REMARK    6  A    between atoms: C6_8  and  C7_9
REMARK    7  A    between atoms: C7_9  and  N2_10
REMARK    8  A    between atoms: C8_11  and  C9_12
REMARK    9  A    between atoms: C16_24  and  C17_25
REMARK                            x       y       z     vdW  Elec       q    Type
REMARK                         _______ _______ _______ _____ _____    ______ ____
ROOT
ATOM      1  N2  UNL     1      17.691  11.312  36.401  0.00  0.00    -0.294 N 
ATOM      2  C8  UNL     1      17.628  12.617  36.035  0.00  0.00    +0.182 A 
ATOM      3  N4  UNL     1      18.824  13.068  35.613  0.00  0.00    -0.126 NA
ATOM      4  N5  UNL     1      19.672  12.054  35.677  0.00  0.00    -0.113 NA
ATOM      5  C13 UNL     1      18.988  10.999  36.160  0.00  0.00    +0.220 A 
ATOM      6  N6  UNL     1      19.584   9.699  36.328  0.00  0.00    -0.295 N 
ATOM      7  C14 UNL     1      19.412   8.946  37.571  0.00  0.00    +0.136 C 
ATOM      8  C15 UNL     1      20.629   8.046  37.811  0.00  0.00    +0.179 C 
ATOM      9  O2  UNL     1      20.845   7.149  36.737  0.00  0.00    -0.369 OA
ATOM     10  C16 UNL     1      20.829   7.761  35.447  0.00  0.00    +0.166 C 
ATOM     11  C23 UNL     1      20.667   9.301  35.427  0.00  0.00    +0.144 C 
ENDROOT
BRANCH  10  12
ATOM     12  C17 UNL     1      22.072   7.363  34.689  0.00  0.00    -0.017 A 
ATOM     13  C18 UNL     1      23.068   6.592  35.314  0.00  0.00    +0.009 A 
ATOM     14  C19 UNL     1      24.229   6.242  34.619  0.00  0.00    +0.039 A 
ATOM     15  C20 UNL     1      24.411   6.663  33.300  0.00  0.00    +0.123 A 
ATOM     16  F1  UNL     1      25.537   6.321  32.627  0.00  0.00    -0.205 F 
ATOM     17  C21 UNL     1      23.435   7.445  32.677  0.00  0.00    +0.039 A 
ATOM     18  C22 UNL     1      22.272   7.798  33.368  0.00  0.00    +0.009 A 
ENDBRANCH  10  12
BRANCH   2  19
ATOM     19  C9  UNL     1      16.433  13.479  36.075  0.00  0.00    +0.084 A 
ATOM     20  C10 UNL     1      15.492  13.564  35.067  0.00  0.00    +0.031 A 
ATOM     21  C11 UNL     1      14.506  14.414  35.528  0.00  0.00    +0.020 A 
ATOM     22  C12 UNL     1      14.879  14.795  36.800  0.00  0.00    +0.083 A 
ATOM     23  N3  UNL     1      16.046  14.221  37.134  0.00  0.00    -0.358 N 
ATOM     24  H18 UNL     1      16.519  14.302  38.059  0.00  0.00    +0.165 HD
ENDBRANCH   2  19
BRANCH   1  25
ATOM     25  C7  UNL     1      16.617  10.455  36.915  0.00  0.00    +0.136 C 
BRANCH  25  26
ATOM     26  C6  UNL     1      15.890   9.751  35.761  0.00  0.00    +0.117 C 
BRANCH  26  28
ATOM     27  N1  UNL     1      16.503   7.618  37.001  0.00  0.00    -0.313 N 
ATOM     28  C5  UNL     1      15.691   8.283  36.022  0.00  0.00    +0.215 C 
ATOM     29  O1  UNL     1      14.852   7.629  35.343  0.00  0.00    -0.276 OA
ATOM     30  H10 UNL     1      17.184   8.190  37.553  0.00  0.00    +0.149 HD
BRANCH  27  31
ATOM     31  C3  UNL     1      16.391   6.179  37.267  0.00  0.00    +0.070 C 
ATOM     32  C4  UNL     1      15.435   5.922  38.440  0.00  0.00    +0.028 C 
BRANCH  31  34
ATOM     33  C1  UNL     1      18.266   4.657  36.364  0.00  0.00    +0.005 C 
ATOM     34  C2  UNL     1      17.782   5.551  37.508  0.00  0.00    +0.018 C 
ENDBRANCH  31  34
ENDBRANCH  27  31
ENDBRANCH  26  28
ENDBRANCH  25  26
ENDBRANCH   1  25
TORSDOF 7
ENDMDL
