REMARK  Name = /home/qwerty/github/datacon2025hack/step_04_hit_selection/docking/ligands/lig_326.pdb
REMARK  8 active torsions:
REMARK  status: ('A' for Active; 'I' for Inactive)
REMARK    1  A    between atoms: C1_1  and  C2_2
REMARK    2  A    between atoms: C2_2  and  C3_3
REMARK    3  A    between atoms: C2_2  and  N1_4
REMARK    4  A    between atoms: N1_4  and  C4_5
REMARK    5  A    between atoms: C5_6  and  C6_8
REMARK    6  A    between atoms: C9_11  and  N2_12
REMARK    7  A    between atoms: N2_12  and  C10_13
REMARK    8  A    between atoms: C15_19  and  N3_20
REMARK                            x       y       z     vdW  Elec       q    Type
REMARK                         _______ _______ _______ _____ _____    ______ ____
ROOT
ATOM      1  N2  UNL     1      -1.750   1.005  -0.428  0.00  0.00    -0.313 N 
ATOM      2  H13 UNL     1      -2.404   1.676   0.035  0.00  0.00    +0.152 HD
ENDROOT
BRANCH   1   3
ATOM      3  C10 UNL     1      -2.302   0.080  -1.380  0.00  0.00    +0.055 A 
ATOM      4  C11 UNL     1      -1.660  -0.131  -2.613  0.00  0.00    +0.063 A 
ATOM      5  C12 UNL     1      -2.226  -0.976  -3.570  0.00  0.00    +0.125 A 
ATOM      6  F1  UNL     1      -1.599  -1.174  -4.755  0.00  0.00    -0.205 F 
ATOM      7  C13 UNL     1      -3.444  -1.607  -3.312  0.00  0.00    +0.040 A 
ATOM      8  C14 UNL     1      -4.098  -1.397  -2.096  0.00  0.00    +0.028 A 
ATOM      9  C15 UNL     1      -3.536  -0.556  -1.123  0.00  0.00    +0.051 A 
BRANCH   9  10
ATOM     10  N3  UNL     1      -4.207  -0.387   0.137  0.00  0.00    -0.326 N 
ATOM     11  C16 UNL     1      -5.506   0.295   0.171  0.00  0.00    +0.120 C 
ATOM     12  C17 UNL     1      -6.102   0.247   1.577  0.00  0.00    +0.100 C 
ATOM     13  N4  UNL     1      -5.938  -1.105   2.116  0.00  0.00    -0.313 NA
ATOM     14  C18 UNL     1      -4.523  -1.431   2.376  0.00  0.00    +0.100 C 
ATOM     15  C19 UNL     1      -3.538  -0.767   1.388  0.00  0.00    +0.120 C 
ATOM     16  H21 UNL     1      -6.460  -1.161   3.022  0.00  0.00    +0.122 HD
ENDBRANCH   9  10
ENDBRANCH   1   3
BRANCH   1  20
ATOM     17  C6  UNL     1       2.365   1.213   0.645  0.00  0.00    +0.037 A 
ATOM     18  C7  UNL     1       1.519   2.319   0.824  0.00  0.00    +0.015 A 
ATOM     19  C8  UNL     1       0.170   2.244   0.463  0.00  0.00    +0.024 A 
ATOM     20  C9  UNL     1      -0.355   1.065  -0.084  0.00  0.00    +0.031 A 
ATOM     21  C20 UNL     1       0.483  -0.055  -0.228  0.00  0.00    +0.024 A 
ATOM     22  C21 UNL     1       1.831   0.020   0.132  0.00  0.00    +0.015 A 
BRANCH  17  25
ATOM     23  N1  UNL     1       4.800   0.539   0.342  0.00  0.00    -0.298 N 
ATOM     24  C4  UNL     1       4.846   0.615  -1.125  0.00  0.00    +0.132 C 
ATOM     25  C5  UNL     1       3.790   1.293   1.038  0.00  0.00    +0.247 C 
ATOM     26  O1  UNL     1       4.124   2.036   2.000  0.00  0.00    -0.270 OA
BRANCH  23  28
ATOM     27  C1  UNL     1       6.069  -1.562   0.706  0.00  0.00    +0.028 C 
ATOM     28  C2  UNL     1       5.885  -0.096   1.115  0.00  0.00    +0.070 C 
ATOM     29  C3  UNL     1       7.191   0.695   0.979  0.00  0.00    +0.028 C 
ENDBRANCH  23  28
ENDBRANCH  17  25
ENDBRANCH   1  20
TORSDOF 5
