REMARK  Name = /home/qwerty/github/datacon2025hack/step_04_hit_selection/docking/ligands/lig_45.pdb
REMARK  5 active torsions:
REMARK  status: ('A' for Active; 'I' for Inactive)
REMARK    1  A    between atoms: C1_1  and  C2_2
REMARK    2  A    between atoms: C5_5  and  N1_6
REMARK    3  A    between atoms: C9_13  and  C10_15
REMARK    4  A    between atoms: C13_18  and  C14_19
REMARK    5  A    between atoms: C14_19  and  O4_21
REMARK                            x       y       z     vdW  Elec       q    Type
REMARK                         _______ _______ _______ _____ _____    ______ ____
ROOT
ATOM      1  N1  UNL     1       2.952   0.470  -0.966  0.00  0.00    -0.269 N 
ATOM      2  C6  UNL     1       1.749  -0.285  -0.742  0.00  0.00    +0.307 C 
ATOM      3  O1  UNL     1       1.826  -1.497  -0.399  0.00  0.00    -0.252 OA
ATOM      4  N2  UNL     1       0.456   0.311  -0.964  0.00  0.00    -0.282 N 
ATOM      5  C7  UNL     1      -0.688  -0.567  -1.257  0.00  0.00    +0.128 C 
ATOM      6  C8  UNL     1      -1.924   0.235  -1.673  0.00  0.00    +0.127 C 
ATOM      7  N3  UNL     1      -2.144   1.338  -0.730  0.00  0.00    -0.294 N 
ATOM      8  C9  UNL     1      -3.480   1.717  -0.352  0.00  0.00    +0.248 C 
ATOM      9  O2  UNL     1      -3.820   2.930  -0.417  0.00  0.00    -0.270 OA
ATOM     10  C16 UNL     1      -1.020   2.190  -0.319  0.00  0.00    +0.127 C 
ATOM     11  C17 UNL     1       0.296   1.772  -0.991  0.00  0.00    +0.128 C 
ATOM     12  H6  UNL     1       2.912   1.262  -1.646  0.00  0.00    +0.156 HD
ENDROOT
BRANCH   1  17
ATOM     13  C1  UNL     1       8.123  -0.887   1.165  0.00  0.00    +0.044 C 
ATOM     14  C2  UNL     1       6.774  -0.510   0.629  0.00  0.00    -0.050 A 
ATOM     15  C3  UNL     1       6.660   0.136  -0.610  0.00  0.00    +0.005 A 
ATOM     16  C4  UNL     1       5.400   0.455  -1.126  0.00  0.00    +0.023 A 
ATOM     17  C5  UNL     1       4.235   0.111  -0.424  0.00  0.00    +0.035 A 
ATOM     18  C18 UNL     1       4.352  -0.534   0.820  0.00  0.00    +0.023 A 
ATOM     19  C19 UNL     1       5.612  -0.853   1.336  0.00  0.00    +0.005 A 
ENDBRANCH   1  17
BRANCH   8  20
ATOM     20  C10 UNL     1      -4.460   0.715   0.129  0.00  0.00    +0.055 A 
ATOM     21  C11 UNL     1      -5.838   0.940  -0.013  0.00  0.00    +0.017 A 
ATOM     22  C12 UNL     1      -6.755  -0.003   0.453  0.00  0.00    +0.036 A 
ATOM     23  C13 UNL     1      -6.289  -1.171   1.075  0.00  0.00    +0.147 A 
ATOM     24  N4  UNL     1      -4.950  -1.362   1.219  0.00  0.00    -0.248 NA
ATOM     25  C15 UNL     1      -4.038  -0.459   0.770  0.00  0.00    +0.124 A 
BRANCH  23  26
ATOM     26  C14 UNL     1      -7.221  -2.194   1.582  0.00  0.00    +0.355 C 
ATOM     27  O3  UNL     1      -8.467  -2.044   1.464  0.00  0.00    -0.243 OA
BRANCH  26  28
ATOM     28  O4  UNL     1      -6.721  -3.338   2.196  0.00  0.00    -0.476 OA
ATOM     29  H13 UNL     1      -7.345  -4.053   2.550  0.00  0.00    +0.295 HD
ENDBRANCH  26  28
ENDBRANCH  23  26
ENDBRANCH   8  20
TORSDOF 4
