REMARK  Name = /home/qwerty/github/datacon2025hack/step_04_hit_selection/docking/ligands/lig_808.pdb
REMARK  10 active torsions:
REMARK  status: ('A' for Active; 'I' for Inactive)
REMARK    1  A    between atoms: C1_1  and  N1_2
REMARK    2  A    between atoms: N2_5  and  C4_6
REMARK    3  A    between atoms: C4_6  and  C5_7
REMARK    4  A    between atoms: C11_13  and  C12_14
REMARK    5  A    between atoms: C12_14  and  N3_15
REMARK    6  A    between atoms: C13_16  and  C14_18
REMARK    7  A    between atoms: C20_25  and  C21_26
REMARK    8  A    between atoms: C21_26  and  C22_27
REMARK    9  A    between atoms: C21_26  and  C23_28
REMARK   10  A    between atoms: C21_26  and  C24_29
REMARK                            x       y       z     vdW  Elec       q    Type
REMARK                         _______ _______ _______ _____ _____    ______ ____
ROOT
ATOM      1  N3  UNL     1      -1.127  -0.974  -0.865  0.00  0.00    -0.309 N 
ATOM      2  C13 UNL     1      -0.129   0.058  -0.825  0.00  0.00    +0.251 C 
ATOM      3  O1  UNL     1      -0.452   1.256  -1.049  0.00  0.00    -0.270 OA
ATOM      4  H18 UNL     1      -0.835  -1.975  -0.810  0.00  0.00    +0.149 HD
ENDROOT
BRANCH   2   5
ATOM      5  C14 UNL     1       1.278  -0.268  -0.530  0.00  0.00    +0.074 A 
ATOM      6  C15 UNL     1       2.334   0.642  -0.518  0.00  0.00    +0.024 A 
ATOM      7  C16 UNL     1       3.566   0.048  -0.213  0.00  0.00    -0.036 A 
ATOM      8  C17 UNL     1       3.471  -1.310   0.056  0.00  0.00    -0.006 A 
ATOM      9  S1  UNL     1       1.876  -1.799  -0.143  0.00  0.00    -0.088 S 
ATOM     10  C18 UNL     1       4.642  -2.198   0.326  0.00  0.00    +0.043 C 
ATOM     11  C19 UNL     1       5.855  -1.371   0.781  0.00  0.00    +0.009 C 
ATOM     12  C20 UNL     1       6.095  -0.147  -0.153  0.00  0.00    -0.001 C 
ATOM     13  C25 UNL     1       4.860   0.803  -0.095  0.00  0.00    +0.040 C 
BRANCH  12  14
ATOM     14  C21 UNL     1       7.471   0.587   0.107  0.00  0.00    -0.035 C 
ATOM     15  C22 UNL     1       8.649  -0.346  -0.268  0.00  0.00    +0.011 C 
ATOM     16  C23 UNL     1       7.587   1.848  -0.782  0.00  0.00    +0.011 C 
ATOM     17  C24 UNL     1       7.639   1.013   1.584  0.00  0.00    +0.011 C 
ENDBRANCH  12  14
ENDBRANCH   2   5
BRANCH   1  18
ATOM     18  C12 UNL     1      -2.550  -0.687  -1.045  0.00  0.00    +0.124 C 
BRANCH  18  24
ATOM     19  C1  UNL     1      -3.116  -3.192   1.144  0.00  0.00    +0.105 C 
ATOM     20  N1  UNL     1      -3.617  -1.977   1.808  0.00  0.00    -0.303 NA
ATOM     21  C2  UNL     1      -5.063  -1.766   1.615  0.00  0.00    +0.099 C 
ATOM     22  C3  UNL     1      -5.384  -1.104   0.271  0.00  0.00    +0.100 C 
ATOM     23  N2  UNL     1      -4.638   0.161   0.139  0.00  0.00    -0.291 NA
ATOM     24  C11 UNL     1      -3.171  -0.036   0.226  0.00  0.00    +0.088 C 
ATOM     25  C26 UNL     1      -2.815  -0.764   1.549  0.00  0.00    +0.104 C 
BRANCH  23  26
ATOM     26  C4  UNL     1      -5.054   0.929  -1.053  0.00  0.00    +0.120 C 
BRANCH  26  27
ATOM     27  C5  UNL     1      -6.366   1.622  -0.796  0.00  0.00    -0.033 A 
ATOM     28  C6  UNL     1      -6.433   2.675   0.131  0.00  0.00    +0.005 A 
ATOM     29  C7  UNL     1      -7.653   3.307   0.391  0.00  0.00    +0.000 A 
ATOM     30  C8  UNL     1      -8.812   2.891  -0.269  0.00  0.00    +0.000 A 
ATOM     31  C9  UNL     1      -8.754   1.842  -1.189  0.00  0.00    +0.000 A 
ATOM     32  C10 UNL     1      -7.536   1.207  -1.453  0.00  0.00    +0.005 A 
ENDBRANCH  26  27
ENDBRANCH  23  26
ENDBRANCH  18  24
ENDBRANCH   1  18
TORSDOF 6
