MODEL 1
REMARK VINA RESULT:    -6.339      0.000      0.000
REMARK INTER + INTRA:          -8.697
REMARK INTER:                  -8.192
REMARK INTRA:                  -0.505
REMARK UNBOUND:                -0.505
REMARK  Name = /home/qwerty/github/datacon2025hack/step_04_hit_selection/docking/ligands/lig_117.pdb
REMARK  6 active torsions:
REMARK  status: ('A' for Active; 'I' for Inactive)
REMARK    1  A    between atoms: C2_2  and  C3_3
REMARK    2  A    between atoms: C3_3  and  C4_4
REMARK    3  A    between atoms: C4_4  and  C5_5
REMARK    4  A    between atoms: C8_10  and  N2_11
REMARK    5  A    between atoms: C9_12  and  C10_14
REMARK    6  A    between atoms: C12_16  and  C13_17
REMARK                            x       y       z     vdW  Elec       q    Type
REMARK                         _______ _______ _______ _____ _____    ______ ____
ROOT
ATOM      1  N2  UNL     1      17.522  11.186  36.745  0.00  0.00    -0.306 N 
ATOM      2  C9  UNL     1      18.284  10.169  37.412  0.00  0.00    +0.263 C 
ATOM      3  O2  UNL     1      17.931   9.771  38.555  0.00  0.00    -0.269 OA
ATOM      4  H13 UNL     1      17.876  11.565  35.838  0.00  0.00    +0.149 HD
ENDROOT
BRANCH   2   5
ATOM      5  C10 UNL     1      19.482   9.584  36.768  0.00  0.00    +0.126 A 
ATOM      6  C11 UNL     1      19.892   9.999  35.492  0.00  0.00    +0.037 A 
ATOM      7  C12 UNL     1      21.032   9.434  34.897  0.00  0.00    -0.039 A 
ATOM      8  C13 UNL     1      21.452   9.901  33.528  0.00  0.00    +0.044 C 
ATOM      9  C14 UNL     1      21.757   8.443  35.602  0.00  0.00    +0.003 A 
ATOM     10  C15 UNL     1      22.910   7.824  35.073  0.00  0.00    +0.010 A 
ATOM     11  C16 UNL     1      23.588   6.847  35.808  0.00  0.00    +0.001 A 
ATOM     12  C17 UNL     1      23.129   6.473  37.076  0.00  0.00    +0.002 A 
ATOM     13  C18 UNL     1      21.991   7.076  37.614  0.00  0.00    +0.028 A 
ATOM     14  C19 UNL     1      21.304   8.056  36.888  0.00  0.00    +0.072 A 
ATOM     15  N3  UNL     1      20.197   8.632  37.424  0.00  0.00    -0.242 NA
ENDBRANCH   2   5
BRANCH   1  21
ATOM     16  C5  UNL     1      12.623  11.650  36.603  0.00  0.00    +0.216 C 
ATOM     17  O1  UNL     1      12.275  10.436  36.617  0.00  0.00    -0.276 OA
ATOM     18  N1  UNL     1      14.019  11.987  36.728  0.00  0.00    -0.300 N 
ATOM     19  C6  UNL     1      14.544  13.344  36.804  0.00  0.00    +0.109 C 
ATOM     20  C7  UNL     1      16.058  13.197  36.893  0.00  0.00    +0.043 C 
ATOM     21  C8  UNL     1      16.301  11.749  37.334  0.00  0.00    +0.092 C 
ATOM     22  C20 UNL     1      15.053  10.982  36.892  0.00  0.00    +0.130 C 
BRANCH  16  23
ATOM     23  C4  UNL     1      11.556  12.709  36.476  0.00  0.00    +0.100 C 
BRANCH  23  24
ATOM     24  C3  UNL     1      10.967  12.768  35.059  0.00  0.00    +0.036 C 
BRANCH  24  26
ATOM     25  C1  UNL     1      11.320  14.298  33.130  0.00  0.00    +0.004 C 
ATOM     26  C2  UNL     1      11.838  13.547  34.105  0.00  0.00    -0.034 C 
ENDBRANCH  24  26
ENDBRANCH  23  24
ENDBRANCH  16  23
ENDBRANCH   1  21
TORSDOF 5
ENDMDL
MODEL 2
REMARK VINA RESULT:    -6.072     15.988     19.087
REMARK INTER + INTRA:          -8.353
REMARK INTER:                  -7.952
REMARK INTRA:                  -0.400
REMARK UNBOUND:                -0.505
REMARK  Name = /home/qwerty/github/datacon2025hack/step_04_hit_selection/docking/ligands/lig_117.pdb
REMARK  6 active torsions:
REMARK  status: ('A' for Active; 'I' for Inactive)
REMARK    1  A    between atoms: C2_2  and  C3_3
REMARK    2  A    between atoms: C3_3  and  C4_4
REMARK    3  A    between atoms: C4_4  and  C5_5
REMARK    4  A    between atoms: C8_10  and  N2_11
REMARK    5  A    between atoms: C9_12  and  C10_14
REMARK    6  A    between atoms: C12_16  and  C13_17
REMARK                            x       y       z     vdW  Elec       q    Type
REMARK                         _______ _______ _______ _____ _____    ______ ____
ROOT
ATOM      1  N2  UNL     1      12.657   5.796  20.269  0.00  0.00    -0.306 N 
ATOM      2  C9  UNL     1      11.232   5.882  20.416  0.00  0.00    +0.263 C 
ATOM      3  O2  UNL     1      10.525   4.846  20.284  0.00  0.00    -0.269 OA
ATOM      4  H13 UNL     1      13.219   6.675  20.296  0.00  0.00    +0.149 HD
ENDROOT
BRANCH   2   5
ATOM      5  C10 UNL     1      10.585   7.178  20.721  0.00  0.00    +0.126 A 
ATOM      6  C11 UNL     1      10.862   8.322  19.955  0.00  0.00    +0.037 A 
ATOM      7  C12 UNL     1      10.238   9.543  20.258  0.00  0.00    -0.039 A 
ATOM      8  C13 UNL     1      10.551  10.753  19.417  0.00  0.00    +0.044 C 
ATOM      9  C14 UNL     1       9.330   9.602  21.342  0.00  0.00    +0.003 A 
ATOM     10  C15 UNL     1       8.665  10.791  21.713  0.00  0.00    +0.010 A 
ATOM     11  C16 UNL     1       7.780  10.798  22.795  0.00  0.00    +0.001 A 
ATOM     12  C17 UNL     1       7.546   9.626  23.522  0.00  0.00    +0.002 A 
ATOM     13  C18 UNL     1       8.195   8.442  23.169  0.00  0.00    +0.028 A 
ATOM     14  C19 UNL     1       9.083   8.422  22.086  0.00  0.00    +0.072 A 
ATOM     15  N3  UNL     1       9.708   7.263  21.755  0.00  0.00    -0.242 NA
ENDBRANCH   2   5
BRANCH   1  21
ATOM     16  C5  UNL     1      15.096   1.915  22.067  0.00  0.00    +0.216 C 
ATOM     17  O1  UNL     1      14.274   1.507  22.934  0.00  0.00    -0.276 OA
ATOM     18  N1  UNL     1      14.733   3.018  21.212  0.00  0.00    -0.300 N 
ATOM     19  C6  UNL     1      15.554   3.533  20.124  0.00  0.00    +0.109 C 
ATOM     20  C7  UNL     1      14.777   4.707  19.540  0.00  0.00    +0.043 C 
ATOM     21  C8  UNL     1      13.332   4.516  20.019  0.00  0.00    +0.092 C 
ATOM     22  C20 UNL     1      13.441   3.674  21.292  0.00  0.00    +0.130 C 
BRANCH  16  23
ATOM     23  C4  UNL     1      16.427   1.216  21.943  0.00  0.00    +0.100 C 
BRANCH  23  24
ATOM     24  C3  UNL     1      16.288  -0.186  21.332  0.00  0.00    +0.036 C 
BRANCH  24  26
ATOM     25  C1  UNL     1      16.926  -1.235  19.169  0.00  0.00    +0.004 C 
ATOM     26  C2  UNL     1      16.447  -0.179  19.832  0.00  0.00    -0.034 C 
ENDBRANCH  24  26
ENDBRANCH  23  24
ENDBRANCH  16  23
ENDBRANCH   1  21
TORSDOF 5
ENDMDL
MODEL 3
REMARK VINA RESULT:    -6.050      1.231      2.478
REMARK INTER + INTRA:          -8.323
REMARK INTER:                  -7.913
REMARK INTRA:                  -0.410
REMARK UNBOUND:                -0.505
REMARK  Name = /home/qwerty/github/datacon2025hack/step_04_hit_selection/docking/ligands/lig_117.pdb
REMARK  6 active torsions:
REMARK  status: ('A' for Active; 'I' for Inactive)
REMARK    1  A    between atoms: C2_2  and  C3_3
REMARK    2  A    between atoms: C3_3  and  C4_4
REMARK    3  A    between atoms: C4_4  and  C5_5
REMARK    4  A    between atoms: C8_10  and  N2_11
REMARK    5  A    between atoms: C9_12  and  C10_14
REMARK    6  A    between atoms: C12_16  and  C13_17
REMARK                            x       y       z     vdW  Elec       q    Type
REMARK                         _______ _______ _______ _____ _____    ______ ____
ROOT
ATOM      1  N2  UNL     1      17.991  10.437  36.468  0.00  0.00    -0.306 N 
ATOM      2  C9  UNL     1      18.960   9.531  37.014  0.00  0.00    +0.263 C 
ATOM      3  O2  UNL     1      18.800   9.069  38.176  0.00  0.00    -0.269 OA
ATOM      4  H13 UNL     1      18.181  10.877  35.540  0.00  0.00    +0.149 HD
ENDROOT
BRANCH   2   5
ATOM      5  C10 UNL     1      20.147   9.135  36.223  0.00  0.00    +0.126 A 
ATOM      6  C11 UNL     1      21.096   8.240  36.742  0.00  0.00    +0.037 A 
ATOM      7  C12 UNL     1      22.215   7.874  35.977  0.00  0.00    -0.039 A 
ATOM      8  C13 UNL     1      23.215   6.908  36.558  0.00  0.00    +0.044 C 
ATOM      9  C14 UNL     1      22.371   8.420  34.681  0.00  0.00    +0.003 A 
ATOM     10  C15 UNL     1      23.469   8.106  33.851  0.00  0.00    +0.010 A 
ATOM     11  C16 UNL     1      23.579   8.676  32.579  0.00  0.00    +0.001 A 
ATOM     12  C17 UNL     1      22.603   9.564  32.117  0.00  0.00    +0.002 A 
ATOM     13  C18 UNL     1      21.510   9.885  32.924  0.00  0.00    +0.028 A 
ATOM     14  C19 UNL     1      21.388   9.320  34.200  0.00  0.00    +0.072 A 
ATOM     15  N3  UNL     1      20.321   9.642  34.974  0.00  0.00    -0.242 NA
ENDBRANCH   2   5
BRANCH   1  21
ATOM     16  C5  UNL     1      13.090  10.907  36.524  0.00  0.00    +0.216 C 
ATOM     17  O1  UNL     1      12.742   9.737  36.203  0.00  0.00    -0.276 OA
ATOM     18  N1  UNL     1      14.488  11.201  36.721  0.00  0.00    -0.300 N 
ATOM     19  C6  UNL     1      15.015  12.484  37.167  0.00  0.00    +0.109 C 
ATOM     20  C7  UNL     1      16.530  12.322  37.192  0.00  0.00    +0.043 C 
ATOM     21  C8  UNL     1      16.777  10.809  37.207  0.00  0.00    +0.092 C 
ATOM     22  C20 UNL     1      15.523  10.193  36.583  0.00  0.00    +0.130 C 
BRANCH  16  23
ATOM     23  C4  UNL     1      12.022  11.956  36.713  0.00  0.00    +0.100 C 
BRANCH  23  24
ATOM     24  C3  UNL     1      11.289  12.276  35.402  0.00  0.00    +0.036 C 
BRANCH  24  26
ATOM     25  C1  UNL     1       9.828  14.248  35.806  0.00  0.00    +0.004 C 
ATOM     26  C2  UNL     1      10.943  13.739  35.277  0.00  0.00    -0.034 C 
ENDBRANCH  24  26
ENDBRANCH  23  24
ENDBRANCH  16  23
ENDBRANCH   1  21
TORSDOF 5
ENDMDL
MODEL 4
REMARK VINA RESULT:    -5.875      6.443      9.425
REMARK INTER + INTRA:          -8.097
REMARK INTER:                  -7.615
REMARK INTRA:                  -0.482
REMARK UNBOUND:                -0.505
REMARK  Name = /home/qwerty/github/datacon2025hack/step_04_hit_selection/docking/ligands/lig_117.pdb
REMARK  6 active torsions:
REMARK  status: ('A' for Active; 'I' for Inactive)
REMARK    1  A    between atoms: C2_2  and  C3_3
REMARK    2  A    between atoms: C3_3  and  C4_4
REMARK    3  A    between atoms: C4_4  and  C5_5
REMARK    4  A    between atoms: C8_10  and  N2_11
REMARK    5  A    between atoms: C9_12  and  C10_14
REMARK    6  A    between atoms: C12_16  and  C13_17
REMARK                            x       y       z     vdW  Elec       q    Type
REMARK                         _______ _______ _______ _____ _____    ______ ____
ROOT
ATOM      1  N2  UNL     1      22.036   4.544  32.948  0.00  0.00    -0.306 N 
ATOM      2  C9  UNL     1      21.644   3.263  32.435  0.00  0.00    +0.263 C 
ATOM      3  O2  UNL     1      21.182   2.390  33.219  0.00  0.00    -0.269 OA
ATOM      4  H13 UNL     1      22.496   5.225  32.302  0.00  0.00    +0.149 HD
ENDROOT
BRANCH   2   5
ATOM      5  C10 UNL     1      21.778   2.957  30.993  0.00  0.00    +0.126 A 
ATOM      6  C11 UNL     1      22.154   1.677  30.557  0.00  0.00    +0.037 A 
ATOM      7  C12 UNL     1      22.275   1.405  29.185  0.00  0.00    -0.039 A 
ATOM      8  C13 UNL     1      22.676   0.020  28.746  0.00  0.00    +0.044 C 
ATOM      9  C14 UNL     1      22.015   2.437  28.252  0.00  0.00    +0.003 A 
ATOM     10  C15 UNL     1      22.118   2.245  26.858  0.00  0.00    +0.010 A 
ATOM     11  C16 UNL     1      21.855   3.300  25.978  0.00  0.00    +0.001 A 
ATOM     12  C17 UNL     1      21.487   4.555  26.472  0.00  0.00    +0.002 A 
ATOM     13  C18 UNL     1      21.379   4.762  27.849  0.00  0.00    +0.028 A 
ATOM     14  C19 UNL     1      21.640   3.714  28.740  0.00  0.00    +0.072 A 
ATOM     15  N3  UNL     1      21.533   3.930  30.076  0.00  0.00    -0.242 NA
ENDBRANCH   2   5
BRANCH   1  21
ATOM     16  C5  UNL     1      19.690   7.210  36.358  0.00  0.00    +0.216 C 
ATOM     17  O1  UNL     1      18.492   6.890  36.118  0.00  0.00    -0.276 OA
ATOM     18  N1  UNL     1      20.754   6.569  35.626  0.00  0.00    -0.300 N 
ATOM     19  C6  UNL     1      22.175   6.788  35.860  0.00  0.00    +0.109 C 
ATOM     20  C7  UNL     1      22.900   5.928  34.833  0.00  0.00    +0.043 C 
ATOM     21  C8  UNL     1      21.866   4.896  34.363  0.00  0.00    +0.092 C 
ATOM     22  C20 UNL     1      20.506   5.545  34.627  0.00  0.00    +0.130 C 
BRANCH  16  23
ATOM     23  C4  UNL     1      19.965   8.241  37.424  0.00  0.00    +0.100 C 
BRANCH  23  24
ATOM     24  C3  UNL     1      19.229   9.562  37.154  0.00  0.00    +0.036 C 
BRANCH  24  26
ATOM     25  C1  UNL     1      16.905   9.461  38.035  0.00  0.00    +0.004 C 
ATOM     26  C2  UNL     1      18.172   9.854  38.190  0.00  0.00    -0.034 C 
ENDBRANCH  24  26
ENDBRANCH  23  24
ENDBRANCH  16  23
ENDBRANCH   1  21
TORSDOF 5
ENDMDL
MODEL 5
REMARK VINA RESULT:    -5.829      8.754     13.052
REMARK INTER + INTRA:          -8.038
REMARK INTER:                  -7.611
REMARK INTRA:                  -0.428
REMARK UNBOUND:                -0.505
REMARK  Name = /home/qwerty/github/datacon2025hack/step_04_hit_selection/docking/ligands/lig_117.pdb
REMARK  6 active torsions:
REMARK  status: ('A' for Active; 'I' for Inactive)
REMARK    1  A    between atoms: C2_2  and  C3_3
REMARK    2  A    between atoms: C3_3  and  C4_4
REMARK    3  A    between atoms: C4_4  and  C5_5
REMARK    4  A    between atoms: C8_10  and  N2_11
REMARK    5  A    between atoms: C9_12  and  C10_14
REMARK    6  A    between atoms: C12_16  and  C13_17
REMARK                            x       y       z     vdW  Elec       q    Type
REMARK                         _______ _______ _______ _____ _____    ______ ____
ROOT
ATOM      1  N2  UNL     1      15.079  15.666  28.635  0.00  0.00    -0.306 N 
ATOM      2  C9  UNL     1      13.987  15.185  27.838  0.00  0.00    +0.263 C 
ATOM      3  O2  UNL     1      14.083  15.186  26.580  0.00  0.00    -0.269 OA
ATOM      4  H13 UNL     1      14.952  15.738  29.669  0.00  0.00    +0.149 HD
ENDROOT
BRANCH   2   5
ATOM      5  C10 UNL     1      12.750  14.688  28.479  0.00  0.00    +0.126 A 
ATOM      6  C11 UNL     1      12.690  14.472  29.865  0.00  0.00    +0.037 A 
ATOM      7  C12 UNL     1      11.506  14.002  30.457  0.00  0.00    -0.039 A 
ATOM      8  C13 UNL     1      11.470  13.783  31.947  0.00  0.00    +0.044 C 
ATOM      9  C14 UNL     1      10.380  13.750  29.637  0.00  0.00    +0.003 A 
ATOM     10  C15 UNL     1       9.156  13.274  30.154  0.00  0.00    +0.010 A 
ATOM     11  C16 UNL     1       8.073  13.037  29.302  0.00  0.00    +0.001 A 
ATOM     12  C17 UNL     1       8.193  13.269  27.928  0.00  0.00    +0.002 A 
ATOM     13  C18 UNL     1       9.397  13.741  27.400  0.00  0.00    +0.028 A 
ATOM     14  C19 UNL     1      10.488  13.983  28.244  0.00  0.00    +0.072 A 
ATOM     15  N3  UNL     1      11.652  14.441  27.716  0.00  0.00    -0.242 NA
ENDBRANCH   2   5
BRANCH   1  21
ATOM     16  C5  UNL     1      19.876  14.877  27.852  0.00  0.00    +0.216 C 
ATOM     17  O1  UNL     1      19.839  13.726  27.333  0.00  0.00    -0.276 OA
ATOM     18  N1  UNL     1      18.640  15.552  28.165  0.00  0.00    -0.300 N 
ATOM     19  C6  UNL     1      18.542  16.907  28.691  0.00  0.00    +0.109 C 
ATOM     20  C7  UNL     1      17.054  17.165  28.891  0.00  0.00    +0.043 C 
ATOM     21  C8  UNL     1      16.340  16.115  28.030  0.00  0.00    +0.092 C 
ATOM     22  C20 UNL     1      17.341  14.968  27.887  0.00  0.00    +0.130 C 
BRANCH  16  23
ATOM     23  C4  UNL     1      21.219  15.515  28.108  0.00  0.00    +0.100 C 
BRANCH  23  24
ATOM     24  C3  UNL     1      22.331  14.470  28.281  0.00  0.00    +0.036 C 
BRANCH  24  26
ATOM     25  C1  UNL     1      23.316  15.330  26.165  0.00  0.00    +0.004 C 
ATOM     26  C2  UNL     1      23.193  14.338  27.050  0.00  0.00    -0.034 C 
ENDBRANCH  24  26
ENDBRANCH  23  24
ENDBRANCH  16  23
ENDBRANCH   1  21
TORSDOF 5
ENDMDL
MODEL 6
REMARK VINA RESULT:    -5.827      2.094      3.110
REMARK INTER + INTRA:          -8.035
REMARK INTER:                  -7.570
REMARK INTRA:                  -0.465
REMARK UNBOUND:                -0.505
REMARK  Name = /home/qwerty/github/datacon2025hack/step_04_hit_selection/docking/ligands/lig_117.pdb
REMARK  6 active torsions:
REMARK  status: ('A' for Active; 'I' for Inactive)
REMARK    1  A    between atoms: C2_2  and  C3_3
REMARK    2  A    between atoms: C3_3  and  C4_4
REMARK    3  A    between atoms: C4_4  and  C5_5
REMARK    4  A    between atoms: C8_10  and  N2_11
REMARK    5  A    between atoms: C9_12  and  C10_14
REMARK    6  A    between atoms: C12_16  and  C13_17
REMARK                            x       y       z     vdW  Elec       q    Type
REMARK                         _______ _______ _______ _____ _____    ______ ____
ROOT
ATOM      1  N2  UNL     1      18.763  11.368  35.389  0.00  0.00    -0.306 N 
ATOM      2  C9  UNL     1      20.189  11.398  35.541  0.00  0.00    +0.263 C 
ATOM      3  O2  UNL     1      20.740  12.398  36.079  0.00  0.00    -0.269 OA
ATOM      4  H13 UNL     1      18.330  10.574  34.867  0.00  0.00    +0.149 HD
ENDROOT
BRANCH   2   5
ATOM      5  C10 UNL     1      21.019  10.267  35.072  0.00  0.00    +0.126 A 
ATOM      6  C11 UNL     1      21.465   9.278  35.963  0.00  0.00    +0.037 A 
ATOM      7  C12 UNL     1      22.250   8.210  35.499  0.00  0.00    -0.039 A 
ATOM      8  C13 UNL     1      22.711   7.161  36.477  0.00  0.00    +0.044 C 
ATOM      9  C14 UNL     1      22.586   8.148  34.125  0.00  0.00    +0.003 A 
ATOM     10  C15 UNL     1      23.374   7.111  33.581  0.00  0.00    +0.010 A 
ATOM     11  C16 UNL     1      23.680   7.097  32.218  0.00  0.00    +0.001 A 
ATOM     12  C17 UNL     1      23.210   8.112  31.379  0.00  0.00    +0.002 A 
ATOM     13  C18 UNL     1      22.428   9.146  31.900  0.00  0.00    +0.028 A 
ATOM     14  C19 UNL     1      22.113   9.169  33.264  0.00  0.00    +0.072 A 
ATOM     15  N3  UNL     1      21.354  10.181  33.757  0.00  0.00    -0.242 NA
ENDBRANCH   2   5
BRANCH   1  21
ATOM     16  C5  UNL     1      14.230  13.047  36.325  0.00  0.00    +0.216 C 
ATOM     17  O1  UNL     1      13.791  12.126  37.067  0.00  0.00    -0.276 OA
ATOM     18  N1  UNL     1      15.601  13.004  35.879  0.00  0.00    -0.300 N 
ATOM     19  C6  UNL     1      16.252  14.040  35.087  0.00  0.00    +0.109 C 
ATOM     20  C7  UNL     1      17.669  13.538  34.837  0.00  0.00    +0.043 C 
ATOM     21  C8  UNL     1      17.908  12.451  35.892  0.00  0.00    +0.092 C 
ATOM     22  C20 UNL     1      16.514  11.945  36.268  0.00  0.00    +0.130 C 
BRANCH  16  23
ATOM     23  C4  UNL     1      13.305  14.178  35.946  0.00  0.00    +0.100 C 
BRANCH  23  24
ATOM     24  C3  UNL     1      12.529  13.881  34.654  0.00  0.00    +0.036 C 
BRANCH  24  26
ATOM     25  C1  UNL     1      10.370  13.864  35.889  0.00  0.00    +0.004 C 
ATOM     26  C2  UNL     1      11.141  13.356  34.923  0.00  0.00    -0.034 C 
ENDBRANCH  24  26
ENDBRANCH  23  24
ENDBRANCH  16  23
ENDBRANCH   1  21
TORSDOF 5
ENDMDL
MODEL 7
REMARK VINA RESULT:    -5.818     11.896     15.588
REMARK INTER + INTRA:          -8.025
REMARK INTER:                  -7.659
REMARK INTRA:                  -0.366
REMARK UNBOUND:                -0.505
REMARK  Name = /home/qwerty/github/datacon2025hack/step_04_hit_selection/docking/ligands/lig_117.pdb
REMARK  6 active torsions:
REMARK  status: ('A' for Active; 'I' for Inactive)
REMARK    1  A    between atoms: C2_2  and  C3_3
REMARK    2  A    between atoms: C3_3  and  C4_4
REMARK    3  A    between atoms: C4_4  and  C5_5
REMARK    4  A    between atoms: C8_10  and  N2_11
REMARK    5  A    between atoms: C9_12  and  C10_14
REMARK    6  A    between atoms: C12_16  and  C13_17
REMARK                            x       y       z     vdW  Elec       q    Type
REMARK                         _______ _______ _______ _____ _____    ______ ____
ROOT
ATOM      1  N2  UNL     1      22.198   5.627  24.376  0.00  0.00    -0.306 N 
ATOM      2  C9  UNL     1      21.825   5.747  22.996  0.00  0.00    +0.263 C 
ATOM      3  O2  UNL     1      21.092   4.867  22.467  0.00  0.00    -0.269 OA
ATOM      4  H13 UNL     1      22.874   6.316  24.775  0.00  0.00    +0.149 HD
ENDROOT
BRANCH   2   5
ATOM      5  C10 UNL     1      22.293   6.895  22.188  0.00  0.00    +0.126 A 
ATOM      6  C11 UNL     1      23.650   7.047  21.865  0.00  0.00    +0.037 A 
ATOM      7  C12 UNL     1      24.076   8.142  21.096  0.00  0.00    -0.039 A 
ATOM      8  C13 UNL     1      25.539   8.277  20.762  0.00  0.00    +0.044 C 
ATOM      9  C14 UNL     1      23.119   9.087  20.654  0.00  0.00    +0.003 A 
ATOM     10  C15 UNL     1      23.466  10.216  19.881  0.00  0.00    +0.010 A 
ATOM     11  C16 UNL     1      22.484  11.122  19.473  0.00  0.00    +0.001 A 
ATOM     12  C17 UNL     1      21.146  10.920  19.828  0.00  0.00    +0.002 A 
ATOM     13  C18 UNL     1      20.785   9.808  20.591  0.00  0.00    +0.028 A 
ATOM     14  C19 UNL     1      21.760   8.892  21.005  0.00  0.00    +0.072 A 
ATOM     15  N3  UNL     1      21.395   7.816  21.748  0.00  0.00    -0.242 NA
ENDBRANCH   2   5
BRANCH   1  21
ATOM     16  C5  UNL     1      21.197   3.916  28.883  0.00  0.00    +0.216 C 
ATOM     17  O1  UNL     1      20.415   4.814  29.302  0.00  0.00    -0.276 OA
ATOM     18  N1  UNL     1      21.677   3.974  27.524  0.00  0.00    -0.300 N 
ATOM     19  C6  UNL     1      22.518   2.964  26.895  0.00  0.00    +0.109 C 
ATOM     20  C7  UNL     1      22.790   3.474  25.485  0.00  0.00    +0.043 C 
ATOM     21  C8  UNL     1      21.708   4.528  25.217  0.00  0.00    +0.092 C 
ATOM     22  C20 UNL     1      21.279   5.021  26.601  0.00  0.00    +0.130 C 
BRANCH  16  23
ATOM     23  C4  UNL     1      21.586   2.797  29.818  0.00  0.00    +0.100 C 
BRANCH  23  24
ATOM     24  C3  UNL     1      20.847   1.490  29.493  0.00  0.00    +0.036 C 
BRANCH  24  26
ATOM     25  C1  UNL     1      22.469  -0.280  28.843  0.00  0.00    +0.004 C 
ATOM     26  C2  UNL     1      21.686   0.269  29.775  0.00  0.00    -0.034 C 
ENDBRANCH  24  26
ENDBRANCH  23  24
ENDBRANCH  16  23
ENDBRANCH   1  21
TORSDOF 5
ENDMDL
MODEL 8
REMARK VINA RESULT:    -5.800     12.661     16.006
REMARK INTER + INTRA:          -8.000
REMARK INTER:                  -7.495
REMARK INTRA:                  -0.505
REMARK UNBOUND:                -0.505
REMARK  Name = /home/qwerty/github/datacon2025hack/step_04_hit_selection/docking/ligands/lig_117.pdb
REMARK  6 active torsions:
REMARK  status: ('A' for Active; 'I' for Inactive)
REMARK    1  A    between atoms: C2_2  and  C3_3
REMARK    2  A    between atoms: C3_3  and  C4_4
REMARK    3  A    between atoms: C4_4  and  C5_5
REMARK    4  A    between atoms: C8_10  and  N2_11
REMARK    5  A    between atoms: C9_12  and  C10_14
REMARK    6  A    between atoms: C12_16  and  C13_17
REMARK                            x       y       z     vdW  Elec       q    Type
REMARK                         _______ _______ _______ _____ _____    ______ ____
ROOT
ATOM      1  N2  UNL     1      21.450   3.902  23.836  0.00  0.00    -0.306 N 
ATOM      2  C9  UNL     1      20.958   5.143  23.308  0.00  0.00    +0.263 C 
ATOM      3  O2  UNL     1      19.979   5.714  23.861  0.00  0.00    -0.269 OA
ATOM      4  H13 UNL     1      22.204   3.400  23.317  0.00  0.00    +0.149 HD
ENDROOT
BRANCH   2   5
ATOM      5  C10 UNL     1      21.590   5.756  22.119  0.00  0.00    +0.126 A 
ATOM      6  C11 UNL     1      20.966   5.708  20.862  0.00  0.00    +0.037 A 
ATOM      7  C12 UNL     1      21.581   6.297  19.745  0.00  0.00    -0.039 A 
ATOM      8  C13 UNL     1      20.886   6.233  18.409  0.00  0.00    +0.044 C 
ATOM      9  C14 UNL     1      22.833   6.937  19.905  0.00  0.00    +0.003 A 
ATOM     10  C15 UNL     1      23.516   7.549  18.832  0.00  0.00    +0.010 A 
ATOM     11  C16 UNL     1      24.754   8.164  19.042  0.00  0.00    +0.001 A 
ATOM     12  C17 UNL     1      25.327   8.179  20.318  0.00  0.00    +0.002 A 
ATOM     13  C18 UNL     1      24.664   7.579  21.390  0.00  0.00    +0.028 A 
ATOM     14  C19 UNL     1      23.424   6.960  21.193  0.00  0.00    +0.072 A 
ATOM     15  N3  UNL     1      22.792   6.379  22.244  0.00  0.00    -0.242 NA
ENDBRANCH   2   5
BRANCH   1  21
ATOM     16  C5  UNL     1      22.171   1.462  28.051  0.00  0.00    +0.216 C 
ATOM     17  O1  UNL     1      23.001   2.224  28.620  0.00  0.00    -0.276 OA
ATOM     18  N1  UNL     1      21.602   1.855  26.786  0.00  0.00    -0.300 N 
ATOM     19  C6  UNL     1      20.579   1.108  26.065  0.00  0.00    +0.109 C 
ATOM     20  C7  UNL     1      20.325   1.889  24.781  0.00  0.00    +0.043 C 
ATOM     21  C8  UNL     1      20.878   3.295  25.044  0.00  0.00    +0.092 C 
ATOM     22  C20 UNL     1      21.931   3.112  26.140  0.00  0.00    +0.130 C 
BRANCH  16  23
ATOM     23  C4  UNL     1      21.786   0.171  28.730  0.00  0.00    +0.100 C 
BRANCH  23  24
ATOM     24  C3  UNL     1      21.077   0.413  30.072  0.00  0.00    +0.036 C 
BRANCH  24  26
ATOM     25  C1  UNL     1      19.016   1.493  30.952  0.00  0.00    +0.004 C 
ATOM     26  C2  UNL     1      19.747   1.103  29.903  0.00  0.00    -0.034 C 
ENDBRANCH  24  26
ENDBRANCH  23  24
ENDBRANCH  16  23
ENDBRANCH   1  21
TORSDOF 5
ENDMDL
MODEL 9
REMARK VINA RESULT:    -5.712      1.809      9.580
REMARK INTER + INTRA:          -7.887
REMARK INTER:                  -7.415
REMARK INTRA:                  -0.471
REMARK UNBOUND:                -0.505
REMARK  Name = /home/qwerty/github/datacon2025hack/step_04_hit_selection/docking/ligands/lig_117.pdb
REMARK  6 active torsions:
REMARK  status: ('A' for Active; 'I' for Inactive)
REMARK    1  A    between atoms: C2_2  and  C3_3
REMARK    2  A    between atoms: C3_3  and  C4_4
REMARK    3  A    between atoms: C4_4  and  C5_5
REMARK    4  A    between atoms: C8_10  and  N2_11
REMARK    5  A    between atoms: C9_12  and  C10_14
REMARK    6  A    between atoms: C12_16  and  C13_17
REMARK                            x       y       z     vdW  Elec       q    Type
REMARK                         _______ _______ _______ _____ _____    ______ ____
ROOT
ATOM      1  N2  UNL     1      16.861  10.666  36.878  0.00  0.00    -0.306 N 
ATOM      2  C9  UNL     1      16.314  11.992  36.848  0.00  0.00    +0.263 C 
ATOM      3  O2  UNL     1      17.050  12.979  37.122  0.00  0.00    -0.269 OA
ATOM      4  H13 UNL     1      16.219   9.855  36.733  0.00  0.00    +0.149 HD
ENDROOT
BRANCH   2   5
ATOM      5  C10 UNL     1      14.892  12.211  36.500  0.00  0.00    +0.126 A 
ATOM      6  C11 UNL     1      13.869  11.524  37.172  0.00  0.00    +0.037 A 
ATOM      7  C12 UNL     1      12.525  11.746  36.829  0.00  0.00    -0.039 A 
ATOM      8  C13 UNL     1      11.448  10.996  37.569  0.00  0.00    +0.044 C 
ATOM      9  C14 UNL     1      12.220  12.668  35.799  0.00  0.00    +0.003 A 
ATOM     10  C15 UNL     1      10.897  12.944  35.393  0.00  0.00    +0.010 A 
ATOM     11  C16 UNL     1      10.649  13.861  34.368  0.00  0.00    +0.001 A 
ATOM     12  C17 UNL     1      11.711  14.514  33.734  0.00  0.00    +0.002 A 
ATOM     13  C18 UNL     1      13.026  14.254  34.124  0.00  0.00    +0.028 A 
ATOM     14  C19 UNL     1      13.287  13.338  35.150  0.00  0.00    +0.072 A 
ATOM     15  N3  UNL     1      14.571  13.094  35.517  0.00  0.00    -0.242 NA
ENDBRANCH   2   5
BRANCH   1  21
ATOM     16  C5  UNL     1      21.299   9.283  35.257  0.00  0.00    +0.216 C 
ATOM     17  O1  UNL     1      21.459  10.093  34.302  0.00  0.00    -0.276 OA
ATOM     18  N1  UNL     1      20.131   9.398  36.094  0.00  0.00    -0.300 N 
ATOM     19  C6  UNL     1      19.866   8.580  37.271  0.00  0.00    +0.109 C 
ATOM     20  C7  UNL     1      18.512   9.041  37.797  0.00  0.00    +0.043 C 
ATOM     21  C8  UNL     1      18.279  10.420  37.169  0.00  0.00    +0.092 C 
ATOM     22  C20 UNL     1      19.129  10.429  35.896  0.00  0.00    +0.130 C 
BRANCH  16  23
ATOM     23  C4  UNL     1      22.354   8.232  35.502  0.00  0.00    +0.100 C 
BRANCH  23  24
ATOM     24  C3  UNL     1      22.600   7.361  34.261  0.00  0.00    +0.036 C 
BRANCH  24  26
ATOM     25  C1  UNL     1      24.349   8.573  32.972  0.00  0.00    +0.004 C 
ATOM     26  C2  UNL     1      23.998   7.520  33.714  0.00  0.00    -0.034 C 
ENDBRANCH  24  26
ENDBRANCH  23  24
ENDBRANCH  16  23
ENDBRANCH   1  21
TORSDOF 5
ENDMDL
