REMARK  Name = /home/qwerty/github/datacon2025hack/step_04_hit_selection/docking/ligands/lig_797.pdb
REMARK  7 active torsions:
REMARK  status: ('A' for Active; 'I' for Inactive)
REMARK    1  A    between atoms: C1_1  and  C2_2
REMARK    2  A    between atoms: C2_2  and  C3_3
REMARK    3  A    between atoms: C3_3  and  N1_4
REMARK    4  A    between atoms: C3_3  and  C15_19
REMARK    5  A    between atoms: C7_10  and  C8_11
REMARK    6  A    between atoms: C16_20  and  C17_21
REMARK    7  A    between atoms: C18_24  and  C19_25
REMARK                            x       y       z     vdW  Elec       q    Type
REMARK                         _______ _______ _______ _____ _____    ______ ____
ROOT
ATOM      1  N1  UNL     1      -1.270  -0.129  -0.721  0.00  0.00    -0.292 N 
ATOM      2  C4  UNL     1      -0.354   0.609   0.105  0.00  0.00    +0.303 C 
ATOM      3  O1  UNL     1      -0.594   1.816   0.383  0.00  0.00    -0.253 OA
ATOM      4  N2  UNL     1       0.830  -0.016   0.630  0.00  0.00    -0.285 N 
ATOM      5  C5  UNL     1       1.147  -1.424   0.466  0.00  0.00    +0.110 C 
ATOM      6  C6  UNL     1       2.384  -1.677   1.320  0.00  0.00    +0.029 C 
ATOM      7  C7  UNL     1       2.945  -0.294   1.690  0.00  0.00    +0.038 C 
ATOM      8  C14 UNL     1       1.807   0.700   1.431  0.00  0.00    +0.117 C 
ATOM      9  H7  UNL     1      -0.986  -1.072  -1.066  0.00  0.00    +0.151 HD
ENDROOT
BRANCH   7  10
ATOM     10  C8  UNL     1       4.192   0.038   0.886  0.00  0.00    -0.041 A 
ATOM     11  C9  UNL     1       4.141   0.164  -0.517  0.00  0.00    +0.004 A 
ATOM     12  C10 UNL     1       5.299   0.458  -1.243  0.00  0.00    +0.002 A 
ATOM     13  C11 UNL     1       6.518   0.624  -0.582  0.00  0.00    +0.020 A 
ATOM     14  C12 UNL     1       6.582   0.496   0.808  0.00  0.00    +0.041 A 
ATOM     15 CL1  UNL     1       8.115   0.702   1.636  0.00  0.00    -0.084 Cl
ATOM     16  C13 UNL     1       5.426   0.203   1.540  0.00  0.00    +0.024 A 
ENDBRANCH   7  10
BRANCH   1  17
ATOM     17  C3  UNL     1      -2.545   0.445  -1.166  0.00  0.00    +0.110 C 
BRANCH  17  18
ATOM     18  C15 UNL     1      -3.493   0.671  -0.003  0.00  0.00    +0.037 A 
ATOM     19  C16 UNL     1      -3.649  -0.051   1.176  0.00  0.00    +0.086 A 
ATOM     20  C17 UNL     1      -2.825  -1.198   1.667  0.00  0.00    +0.069 C 
ATOM     21  N3  UNL     1      -4.642   0.498   1.904  0.00  0.00    -0.083 NA
ATOM     22  O2  UNL     1      -5.114   1.499   1.221  0.00  0.00    -0.359 OA
ATOM     23  C18 UNL     1      -4.474   1.643   0.085  0.00  0.00    +0.139 A 
ATOM     24  C19 UNL     1      -4.784   2.703  -0.921  0.00  0.00    +0.089 C 
ENDBRANCH  17  18
BRANCH  17  26
ATOM     25  C1  UNL     1      -3.674  -1.784  -1.851  0.00  0.00    +0.006 C 
ATOM     26  C2  UNL     1      -3.194  -0.397  -2.288  0.00  0.00    +0.024 C 
ENDBRANCH  17  26
ENDBRANCH   1  17
TORSDOF 4
