MODEL 1
REMARK VINA RESULT:    -7.103      0.000      0.000
REMARK INTER + INTRA:          -7.747
REMARK INTER:                  -7.519
REMARK INTRA:                  -0.229
REMARK UNBOUND:                -0.229
REMARK  Name = /home/qwerty/github/datacon2025hack/step_04_hit_selection/docking/ligands/lig_385.pdb
REMARK  2 active torsions:
REMARK  status: ('A' for Active; 'I' for Inactive)
REMARK    1  A    between atoms: C1_1  and  C2_2
REMARK    2  A    between atoms: N5_19  and  C13_20
REMARK                            x       y       z     vdW  Elec       q    Type
REMARK                         _______ _______ _______ _____ _____    ______ ____
ROOT
ATOM      1  C1  UNL     1      17.222  -1.635  25.160  0.00  0.00    +0.066 C 
ATOM      2  C2  UNL     1      17.844  -0.300  24.857  0.00  0.00    +0.047 A 
ATOM      3  N1  UNL     1      18.896   0.089  25.620  0.00  0.00    -0.219 NA
ATOM      4  C3  UNL     1      19.520   1.277  25.432  0.00  0.00    +0.218 A 
ATOM      5  N2  UNL     1      20.639   1.656  26.261  0.00  0.00    -0.295 N 
ATOM      6  C4  UNL     1      21.252   0.665  27.157  0.00  0.00    +0.136 C 
ATOM      7  C5  UNL     1      22.000   1.361  28.299  0.00  0.00    +0.179 C 
ATOM      8  O1  UNL     1      22.878   2.347  27.797  0.00  0.00    -0.377 OA
ATOM      9  C6  UNL     1      22.128   3.384  27.196  0.00  0.00    +0.179 C 
ATOM     10  C7  UNL     1      21.398   2.875  25.950  0.00  0.00    +0.136 C 
ATOM     11  N3  UNL     1      19.076   2.106  24.456  0.00  0.00    -0.219 NA
ATOM     12  C8  UNL     1      18.026   1.795  23.650  0.00  0.00    +0.051 A 
ATOM     13  C9  UNL     1      17.372   0.539  23.813  0.00  0.00    -0.003 A 
ATOM     14  C10 UNL     1      16.161   0.070  23.008  0.00  0.00    +0.058 C 
ATOM     15  C11 UNL     1      15.802   0.851  21.747  0.00  0.00    +0.114 C 
ATOM     16  N4  UNL     1      15.295   2.186  22.097  0.00  0.00    -0.285 N 
ATOM     17  C12 UNL     1      13.871   2.454  22.037  0.00  0.00    +0.306 C 
ATOM     18  O2  UNL     1      13.070   1.520  21.759  0.00  0.00    -0.252 OA
ATOM     19  N5  UNL     1      13.350   3.767  22.318  0.00  0.00    -0.269 N 
ATOM     20  C21 UNL     1      16.204   3.225  22.604  0.00  0.00    +0.115 C 
ATOM     21  C22 UNL     1      17.682   2.817  22.594  0.00  0.00    +0.075 C 
ATOM     22  H16 UNL     1      13.894   4.410  22.933  0.00  0.00    +0.156 HD
ENDROOT
BRANCH  19  23
ATOM     23  C13 UNL     1      12.040   4.202  21.910  0.00  0.00    +0.038 A 
ATOM     24  C14 UNL     1      11.863   4.747  20.627  0.00  0.00    +0.027 A 
ATOM     25  C15 UNL     1      10.598   5.167  20.202  0.00  0.00    +0.051 A 
ATOM     26  C16 UNL     1       9.498   5.032  21.053  0.00  0.00    +0.162 A 
ATOM     27  C17 UNL     1       9.654   4.442  22.313  0.00  0.00    +0.164 A 
ATOM     28  C18 UNL     1      10.920   4.037  22.747  0.00  0.00    +0.072 A 
ATOM     29  O3  UNL     1       8.528   4.263  23.123  0.00  0.00    -0.485 OA
ATOM     30  C19 UNL     1       7.208   4.415  22.597  0.00  0.00    +0.270 C 
ATOM     31  C20 UNL     1       7.163   5.585  21.606  0.00  0.00    +0.270 C 
ATOM     32  O4  UNL     1       8.230   5.473  20.661  0.00  0.00    -0.485 OA
ENDBRANCH  19  23
TORSDOF 1
ENDMDL
MODEL 2
REMARK VINA RESULT:    -6.972     10.640     13.530
REMARK INTER + INTRA:          -7.608
REMARK INTER:                  -7.400
REMARK INTRA:                  -0.208
REMARK UNBOUND:                -0.229
REMARK  Name = /home/qwerty/github/datacon2025hack/step_04_hit_selection/docking/ligands/lig_385.pdb
REMARK  2 active torsions:
REMARK  status: ('A' for Active; 'I' for Inactive)
REMARK    1  A    between atoms: C1_1  and  C2_2
REMARK    2  A    between atoms: N5_19  and  C13_20
REMARK                            x       y       z     vdW  Elec       q    Type
REMARK                         _______ _______ _______ _____ _____    ______ ____
ROOT
ATOM      1  C1  UNL     1      23.173   7.021  31.535  0.00  0.00    +0.066 C 
ATOM      2  C2  UNL     1      22.272   6.034  32.224  0.00  0.00    +0.047 A 
ATOM      3  N1  UNL     1      22.159   4.799  31.675  0.00  0.00    -0.219 NA
ATOM      4  C3  UNL     1      21.366   3.842  32.215  0.00  0.00    +0.218 A 
ATOM      5  N2  UNL     1      21.273   2.537  31.605  0.00  0.00    -0.295 N 
ATOM      6  C4  UNL     1      22.206   2.165  30.533  0.00  0.00    +0.136 C 
ATOM      7  C5  UNL     1      21.620   1.039  29.676  0.00  0.00    +0.179 C 
ATOM      8  O1  UNL     1      21.172  -0.029  30.485  0.00  0.00    -0.377 OA
ATOM      9  C6  UNL     1      20.083   0.404  31.275  0.00  0.00    +0.179 C 
ATOM     10  C7  UNL     1      20.529   1.467  32.282  0.00  0.00    +0.136 C 
ATOM     11  N3  UNL     1      20.659   4.129  33.335  0.00  0.00    -0.219 NA
ATOM     12  C8  UNL     1      20.712   5.342  33.947  0.00  0.00    +0.051 A 
ATOM     13  C9  UNL     1      21.560   6.355  33.410  0.00  0.00    -0.003 A 
ATOM     14  C10 UNL     1      21.695   7.772  33.966  0.00  0.00    +0.058 C 
ATOM     15  C11 UNL     1      21.124   8.045  35.355  0.00  0.00    +0.114 C 
ATOM     16  N4  UNL     1      19.655   7.988  35.327  0.00  0.00    -0.285 N 
ATOM     17  C12 UNL     1      18.887   9.218  35.342  0.00  0.00    +0.306 C 
ATOM     18  O2  UNL     1      19.482  10.329  35.302  0.00  0.00    -0.252 OA
ATOM     19  N5  UNL     1      17.447   9.194  35.374  0.00  0.00    -0.269 N 
ATOM     20  C21 UNL     1      18.956   6.702  35.183  0.00  0.00    +0.115 C 
ATOM     21  C22 UNL     1      19.887   5.484  35.203  0.00  0.00    +0.075 C 
ATOM     22  H16 UNL     1      16.943   8.363  34.993  0.00  0.00    +0.156 HD
ENDROOT
BRANCH  19  23
ATOM     23  C13 UNL     1      16.645  10.319  35.776  0.00  0.00    +0.038 A 
ATOM     24  C14 UNL     1      16.660  10.732  37.119  0.00  0.00    +0.027 A 
ATOM     25  C15 UNL     1      15.899  11.830  37.534  0.00  0.00    +0.051 A 
ATOM     26  C16 UNL     1      15.127  12.531  36.605  0.00  0.00    +0.162 A 
ATOM     27  C17 UNL     1      15.145  12.160  35.254  0.00  0.00    +0.164 A 
ATOM     28  C18 UNL     1      15.892  11.053  34.840  0.00  0.00    +0.072 A 
ATOM     29  O3  UNL     1      14.411  12.914  34.333  0.00  0.00    -0.485 OA
ATOM     30  C19 UNL     1      13.872  14.190  34.686  0.00  0.00    +0.270 C 
ATOM     31  C20 UNL     1      13.348  14.165  36.126  0.00  0.00    +0.270 C 
ATOM     32  O4  UNL     1      14.334  13.612  37.002  0.00  0.00    -0.485 OA
ENDBRANCH  19  23
TORSDOF 1
ENDMDL
MODEL 3
REMARK VINA RESULT:    -6.926      7.226      8.787
REMARK INTER + INTRA:          -7.559
REMARK INTER:                  -7.328
REMARK INTRA:                  -0.231
REMARK UNBOUND:                -0.229
REMARK  Name = /home/qwerty/github/datacon2025hack/step_04_hit_selection/docking/ligands/lig_385.pdb
REMARK  2 active torsions:
REMARK  status: ('A' for Active; 'I' for Inactive)
REMARK    1  A    between atoms: C1_1  and  C2_2
REMARK    2  A    between atoms: N5_19  and  C13_20
REMARK                            x       y       z     vdW  Elec       q    Type
REMARK                         _______ _______ _______ _____ _____    ______ ____
ROOT
ATOM      1  C1  UNL     1      17.614   1.312  27.583  0.00  0.00    +0.066 C 
ATOM      2  C2  UNL     1      18.955   1.750  28.105  0.00  0.00    +0.047 A 
ATOM      3  N1  UNL     1      19.124   1.782  29.450  0.00  0.00    -0.219 NA
ATOM      4  C3  UNL     1      20.290   2.171  30.019  0.00  0.00    +0.218 A 
ATOM      5  N2  UNL     1      20.435   2.188  31.455  0.00  0.00    -0.295 N 
ATOM      6  C4  UNL     1      19.403   1.571  32.300  0.00  0.00    +0.136 C 
ATOM      7  C5  UNL     1      19.443   2.158  33.715  0.00  0.00    +0.179 C 
ATOM      8  O1  UNL     1      20.755   2.121  34.238  0.00  0.00    -0.377 OA
ATOM      9  C6  UNL     1      21.586   2.982  33.486  0.00  0.00    +0.179 C 
ATOM     10  C7  UNL     1      21.748   2.467  32.053  0.00  0.00    +0.136 C 
ATOM     11  N3  UNL     1      21.319   2.545  29.220  0.00  0.00    -0.219 NA
ATOM     12  C8  UNL     1      21.232   2.547  27.864  0.00  0.00    +0.051 A 
ATOM     13  C9  UNL     1      20.022   2.117  27.243  0.00  0.00    -0.003 A 
ATOM     14  C10 UNL     1      19.767   2.099  25.737  0.00  0.00    +0.058 C 
ATOM     15  C11 UNL     1      20.970   2.262  24.812  0.00  0.00    +0.114 C 
ATOM     16  N4  UNL     1      21.503   3.630  24.901  0.00  0.00    -0.285 N 
ATOM     17  C12 UNL     1      21.223   4.581  23.844  0.00  0.00    +0.306 C 
ATOM     18  O2  UNL     1      20.460   4.255  22.893  0.00  0.00    -0.252 OA
ATOM     19  N5  UNL     1      21.779   5.910  23.873  0.00  0.00    -0.269 N 
ATOM     20  C21 UNL     1      22.235   4.074  26.097  0.00  0.00    +0.115 C 
ATOM     21  C22 UNL     1      22.480   2.963  27.124  0.00  0.00    +0.075 C 
ATOM     22  H16 UNL     1      22.037   6.333  24.791  0.00  0.00    +0.156 HD
ENDROOT
BRANCH  19  23
ATOM     23  C13 UNL     1      21.872   6.755  22.712  0.00  0.00    +0.038 A 
ATOM     24  C14 UNL     1      22.983   6.636  21.860  0.00  0.00    +0.027 A 
ATOM     25  C15 UNL     1      23.092   7.438  20.718  0.00  0.00    +0.051 A 
ATOM     26  C16 UNL     1      22.083   8.355  20.414  0.00  0.00    +0.162 A 
ATOM     27  C17 UNL     1      20.947   8.444  21.228  0.00  0.00    +0.164 A 
ATOM     28  C18 UNL     1      20.843   7.657  22.378  0.00  0.00    +0.072 A 
ATOM     29  O3  UNL     1      19.922   9.327  20.870  0.00  0.00    -0.485 OA
ATOM     30  C19 UNL     1      19.886   9.929  19.574  0.00  0.00    +0.270 C 
ATOM     31  C20 UNL     1      21.303  10.300  19.120  0.00  0.00    +0.270 C 
ATOM     32  O4  UNL     1      22.185   9.187  19.295  0.00  0.00    -0.485 OA
ENDBRANCH  19  23
TORSDOF 1
ENDMDL
MODEL 4
REMARK VINA RESULT:    -6.917      8.375     12.233
REMARK INTER + INTRA:          -7.550
REMARK INTER:                  -8.046
REMARK INTRA:                   0.496
REMARK UNBOUND:                -0.229
REMARK  Name = /home/qwerty/github/datacon2025hack/step_04_hit_selection/docking/ligands/lig_385.pdb
REMARK  2 active torsions:
REMARK  status: ('A' for Active; 'I' for Inactive)
REMARK    1  A    between atoms: C1_1  and  C2_2
REMARK    2  A    between atoms: N5_19  and  C13_20
REMARK                            x       y       z     vdW  Elec       q    Type
REMARK                         _______ _______ _______ _____ _____    ______ ____
ROOT
ATOM      1  C1  UNL     1      25.044   8.935  20.323  0.00  0.00    +0.066 C 
ATOM      2  C2  UNL     1      23.590   9.269  20.507  0.00  0.00    +0.047 A 
ATOM      3  N1  UNL     1      23.174  10.499  20.113  0.00  0.00    -0.219 NA
ATOM      4  C3  UNL     1      21.886  10.898  20.245  0.00  0.00    +0.218 A 
ATOM      5  N2  UNL     1      21.479  12.213  19.811  0.00  0.00    -0.295 N 
ATOM      6  C4  UNL     1      22.402  13.038  19.018  0.00  0.00    +0.136 C 
ATOM      7  C5  UNL     1      22.036  14.521  19.137  0.00  0.00    +0.179 C 
ATOM      8  O1  UNL     1      20.663  14.724  18.872  0.00  0.00    -0.377 OA
ATOM      9  C6  UNL     1      19.892  14.099  19.878  0.00  0.00    +0.179 C 
ATOM     10  C7  UNL     1      20.055  12.577  19.822  0.00  0.00    +0.136 C 
ATOM     11  N3  UNL     1      20.986  10.047  20.794  0.00  0.00    -0.219 NA
ATOM     12  C8  UNL     1      21.320   8.799  21.218  0.00  0.00    +0.051 A 
ATOM     13  C9  UNL     1      22.664   8.348  21.065  0.00  0.00    -0.003 A 
ATOM     14  C10 UNL     1      23.192   6.991  21.527  0.00  0.00    +0.058 C 
ATOM     15  C11 UNL     1      22.169   5.924  21.904  0.00  0.00    +0.114 C 
ATOM     16  N4  UNL     1      21.476   6.293  23.147  0.00  0.00    -0.285 N 
ATOM     17  C12 UNL     1      21.835   5.643  24.392  0.00  0.00    +0.306 C 
ATOM     18  O2  UNL     1      22.792   4.821  24.416  0.00  0.00    -0.252 OA
ATOM     19  N5  UNL     1      21.136   5.942  25.616  0.00  0.00    -0.269 N 
ATOM     20  C21 UNL     1      20.491   7.386  23.161  0.00  0.00    +0.115 C 
ATOM     21  C22 UNL     1      20.189   7.968  21.776  0.00  0.00    +0.075 C 
ATOM     22  H16 UNL     1      20.667   6.868  25.720  0.00  0.00    +0.156 HD
ENDROOT
BRANCH  19  23
ATOM     23  C13 UNL     1      21.162   5.085  26.772  0.00  0.00    +0.038 A 
ATOM     24  C14 UNL     1      20.273   5.330  27.832  0.00  0.00    +0.027 A 
ATOM     25  C15 UNL     1      20.270   4.505  28.962  0.00  0.00    +0.051 A 
ATOM     26  C16 UNL     1      21.147   3.420  29.033  0.00  0.00    +0.162 A 
ATOM     27  C17 UNL     1      21.999   3.136  27.959  0.00  0.00    +0.164 A 
ATOM     28  C18 UNL     1      22.017   3.968  26.836  0.00  0.00    +0.072 A 
ATOM     29  O3  UNL     1      22.826   2.009  28.028  0.00  0.00    -0.485 OA
ATOM     30  C19 UNL     1      22.628   1.008  29.030  0.00  0.00    +0.270 C 
ATOM     31  C20 UNL     1      22.243   1.661  30.363  0.00  0.00    +0.270 C 
ATOM     32  O4  UNL     1      21.183   2.600  30.165  0.00  0.00    -0.485 OA
ENDBRANCH  19  23
TORSDOF 1
ENDMDL
MODEL 5
REMARK VINA RESULT:    -6.874     11.315     12.722
REMARK INTER + INTRA:          -7.505
REMARK INTER:                  -7.353
REMARK INTRA:                  -0.152
REMARK UNBOUND:                -0.229
REMARK  Name = /home/qwerty/github/datacon2025hack/step_04_hit_selection/docking/ligands/lig_385.pdb
REMARK  2 active torsions:
REMARK  status: ('A' for Active; 'I' for Inactive)
REMARK    1  A    between atoms: C1_1  and  C2_2
REMARK    2  A    between atoms: N5_19  and  C13_20
REMARK                            x       y       z     vdW  Elec       q    Type
REMARK                         _______ _______ _______ _____ _____    ______ ____
ROOT
ATOM      1  C1  UNL     1      21.202  16.319  28.963  0.00  0.00    +0.066 C 
ATOM      2  C2  UNL     1      21.092  15.288  27.874  0.00  0.00    +0.047 A 
ATOM      3  N1  UNL     1      22.012  15.327  26.878  0.00  0.00    -0.219 NA
ATOM      4  C3  UNL     1      21.993  14.448  25.847  0.00  0.00    +0.218 A 
ATOM      5  N2  UNL     1      22.991  14.517  24.807  0.00  0.00    -0.295 N 
ATOM      6  C4  UNL     1      24.161  15.391  24.975  0.00  0.00    +0.136 C 
ATOM      7  C5  UNL     1      24.768  15.746  23.613  0.00  0.00    +0.179 C 
ATOM      8  O1  UNL     1      24.988  14.583  22.842  0.00  0.00    -0.377 OA
ATOM      9  C6  UNL     1      23.746  13.990  22.519  0.00  0.00    +0.179 C 
ATOM     10  C7  UNL     1      23.048  13.469  23.779  0.00  0.00    +0.136 C 
ATOM     11  N3  UNL     1      21.023  13.503  25.807  0.00  0.00    -0.219 NA
ATOM     12  C8  UNL     1      20.061  13.396  26.761  0.00  0.00    +0.051 A 
ATOM     13  C9  UNL     1      20.077  14.295  27.868  0.00  0.00    -0.003 A 
ATOM     14  C10 UNL     1      19.045  14.318  28.994  0.00  0.00    +0.058 C 
ATOM     15  C11 UNL     1      18.104  13.123  29.118  0.00  0.00    +0.114 C 
ATOM     16  N4  UNL     1      17.160  13.094  27.991  0.00  0.00    -0.285 N 
ATOM     17  C12 UNL     1      15.790  13.526  28.189  0.00  0.00    +0.306 C 
ATOM     18  O2  UNL     1      15.437  13.997  29.305  0.00  0.00    -0.252 OA
ATOM     19  N5  UNL     1      14.827  13.455  27.121  0.00  0.00    -0.269 N 
ATOM     20  C21 UNL     1      17.613  12.725  26.642  0.00  0.00    +0.115 C 
ATOM     21  C22 UNL     1      19.074  12.268  26.580  0.00  0.00    +0.075 C 
ATOM     22  H16 UNL     1      15.160  13.482  26.132  0.00  0.00    +0.156 HD
ENDROOT
BRANCH  19  23
ATOM     23  C13 UNL     1      13.404  13.489  27.334  0.00  0.00    +0.038 A 
ATOM     24  C14 UNL     1      12.765  14.724  27.531  0.00  0.00    +0.027 A 
ATOM     25  C15 UNL     1      11.381  14.785  27.729  0.00  0.00    +0.051 A 
ATOM     26  C16 UNL     1      10.625  13.611  27.716  0.00  0.00    +0.162 A 
ATOM     27  C17 UNL     1      11.244  12.380  27.468  0.00  0.00    +0.164 A 
ATOM     28  C18 UNL     1      12.629  12.314  27.287  0.00  0.00    +0.072 A 
ATOM     29  O3  UNL     1      10.457  11.225  27.400  0.00  0.00    -0.485 OA
ATOM     30  C19 UNL     1       9.033  11.306  27.310  0.00  0.00    +0.270 C 
ATOM     31  C20 UNL     1       8.509  12.445  28.193  0.00  0.00    +0.270 C 
ATOM     32  O4  UNL     1       9.245  13.645  27.942  0.00  0.00    -0.485 OA
ENDBRANCH  19  23
TORSDOF 1
ENDMDL
MODEL 6
REMARK VINA RESULT:    -6.867     10.318     14.272
REMARK INTER + INTRA:          -7.497
REMARK INTER:                  -7.263
REMARK INTRA:                  -0.234
REMARK UNBOUND:                -0.229
REMARK  Name = /home/qwerty/github/datacon2025hack/step_04_hit_selection/docking/ligands/lig_385.pdb
REMARK  2 active torsions:
REMARK  status: ('A' for Active; 'I' for Inactive)
REMARK    1  A    between atoms: C1_1  and  C2_2
REMARK    2  A    between atoms: N5_19  and  C13_20
REMARK                            x       y       z     vdW  Elec       q    Type
REMARK                         _______ _______ _______ _____ _____    ______ ____
ROOT
ATOM      1  C1  UNL     1      13.664   4.586  38.252  0.00  0.00    +0.066 C 
ATOM      2  C2  UNL     1      12.857   3.977  37.139  0.00  0.00    +0.047 A 
ATOM      3  N1  UNL     1      11.653   3.441  37.458  0.00  0.00    -0.219 NA
ATOM      4  C3  UNL     1      10.855   2.861  36.529  0.00  0.00    +0.218 A 
ATOM      5  N2  UNL     1       9.577   2.304  36.906  0.00  0.00    -0.295 N 
ATOM      6  C4  UNL     1       9.035   2.563  38.247  0.00  0.00    +0.136 C 
ATOM      7  C5  UNL     1       8.016   1.487  38.633  0.00  0.00    +0.179 C 
ATOM      8  O1  UNL     1       7.052   1.318  37.614  0.00  0.00    -0.377 OA
ATOM      9  C6  UNL     1       7.677   0.799  36.456  0.00  0.00    +0.179 C 
ATOM     10  C7  UNL     1       8.660   1.815  35.868  0.00  0.00    +0.136 C 
ATOM     11  N3  UNL     1      11.274   2.810  35.242  0.00  0.00    -0.219 NA
ATOM     12  C8  UNL     1      12.468   3.319  34.838  0.00  0.00    +0.051 A 
ATOM     13  C9  UNL     1      13.312   3.956  35.794  0.00  0.00    -0.003 A 
ATOM     14  C10 UNL     1      14.692   4.541  35.494  0.00  0.00    +0.058 C 
ATOM     15  C11 UNL     1      15.078   4.731  34.030  0.00  0.00    +0.114 C 
ATOM     16  N4  UNL     1      15.275   3.428  33.377  0.00  0.00    -0.285 N 
ATOM     17  C12 UNL     1      16.619   2.945  33.126  0.00  0.00    +0.306 C 
ATOM     18  O2  UNL     1      17.610   3.609  33.536  0.00  0.00    -0.252 OA
ATOM     19  N5  UNL     1      16.844   1.701  32.437  0.00  0.00    -0.269 N 
ATOM     20  C21 UNL     1      14.127   2.563  33.067  0.00  0.00    +0.115 C 
ATOM     21  C22 UNL     1      12.767   3.206  33.362  0.00  0.00    +0.075 C 
ATOM     22  H16 UNL     1      16.108   0.962  32.466  0.00  0.00    +0.156 HD
ENDROOT
BRANCH  19  23
ATOM     23  C13 UNL     1      18.096   1.354  31.817  0.00  0.00    +0.038 A 
ATOM     24  C14 UNL     1      19.045   0.617  32.545  0.00  0.00    +0.027 A 
ATOM     25  C15 UNL     1      20.265   0.257  31.963  0.00  0.00    +0.051 A 
ATOM     26  C16 UNL     1      20.538   0.620  30.642  0.00  0.00    +0.162 A 
ATOM     27  C17 UNL     1      19.578   1.308  29.890  0.00  0.00    +0.164 A 
ATOM     28  C18 UNL     1      18.365   1.684  30.475  0.00  0.00    +0.072 A 
ATOM     29  O3  UNL     1      19.850   1.608  28.551  0.00  0.00    -0.485 OA
ATOM     30  C19 UNL     1      20.950   1.003  27.868  0.00  0.00    +0.270 C 
ATOM     31  C20 UNL     1      22.157   0.884  28.805  0.00  0.00    +0.270 C 
ATOM     32  O4  UNL     1      21.763   0.297  30.048  0.00  0.00    -0.485 OA
ENDBRANCH  19  23
TORSDOF 1
ENDMDL
MODEL 7
REMARK VINA RESULT:    -6.790      8.645     10.711
REMARK INTER + INTRA:          -7.416
REMARK INTER:                  -7.164
REMARK INTRA:                  -0.252
REMARK UNBOUND:                -0.229
REMARK  Name = /home/qwerty/github/datacon2025hack/step_04_hit_selection/docking/ligands/lig_385.pdb
REMARK  2 active torsions:
REMARK  status: ('A' for Active; 'I' for Inactive)
REMARK    1  A    between atoms: C1_1  and  C2_2
REMARK    2  A    between atoms: N5_19  and  C13_20
REMARK                            x       y       z     vdW  Elec       q    Type
REMARK                         _______ _______ _______ _____ _____    ______ ____
ROOT
ATOM      1  C1  UNL     1      24.581  10.341  20.445  0.00  0.00    +0.066 C 
ATOM      2  C2  UNL     1      23.227  10.994  20.480  0.00  0.00    +0.047 A 
ATOM      3  N1  UNL     1      23.150  12.253  20.979  0.00  0.00    -0.219 NA
ATOM      4  C3  UNL     1      21.975  12.923  21.061  0.00  0.00    +0.218 A 
ATOM      5  N2  UNL     1      21.932  14.264  21.594  0.00  0.00    -0.295 N 
ATOM      6  C4  UNL     1      23.185  14.993  21.838  0.00  0.00    +0.136 C 
ATOM      7  C5  UNL     1      22.971  16.100  22.875  0.00  0.00    +0.179 C 
ATOM      8  O1  UNL     1      21.861  16.904  22.530  0.00  0.00    -0.377 OA
ATOM      9  C6  UNL     1      20.679  16.132  22.604  0.00  0.00    +0.179 C 
ATOM     10  C7  UNL     1      20.681  15.031  21.539  0.00  0.00    +0.136 C 
ATOM     11  N3  UNL     1      20.841  12.316  20.637  0.00  0.00    -0.219 NA
ATOM     12  C8  UNL     1      20.828  11.055  20.128  0.00  0.00    +0.051 A 
ATOM     13  C9  UNL     1      22.057  10.341  20.009  0.00  0.00    -0.003 A 
ATOM     14  C10 UNL     1      22.193   8.910  19.490  0.00  0.00    +0.058 C 
ATOM     15  C11 UNL     1      20.994   8.299  18.772  0.00  0.00    +0.114 C 
ATOM     16  N4  UNL     1      19.896   8.057  19.721  0.00  0.00    -0.285 N 
ATOM     17  C12 UNL     1      19.636   6.711  20.192  0.00  0.00    +0.306 C 
ATOM     18  O2  UNL     1      20.400   5.768  19.847  0.00  0.00    -0.252 OA
ATOM     19  N5  UNL     1      18.533   6.433  21.076  0.00  0.00    -0.269 N 
ATOM     20  C21 UNL     1      19.121   9.178  20.275  0.00  0.00    +0.115 C 
ATOM     21  C22 UNL     1      19.484  10.541  19.674  0.00  0.00    +0.075 C 
ATOM     22  H16 UNL     1      18.169   7.194  21.690  0.00  0.00    +0.156 HD
ENDROOT
BRANCH  19  23
ATOM     23  C13 UNL     1      17.985   5.116  21.268  0.00  0.00    +0.038 A 
ATOM     24  C14 UNL     1      18.294   4.404  22.440  0.00  0.00    +0.027 A 
ATOM     25  C15 UNL     1      17.765   3.128  22.656  0.00  0.00    +0.051 A 
ATOM     26  C16 UNL     1      16.911   2.559  21.708  0.00  0.00    +0.162 A 
ATOM     27  C17 UNL     1      16.554   3.281  20.562  0.00  0.00    +0.164 A 
ATOM     28  C18 UNL     1      17.095   4.550  20.335  0.00  0.00    +0.072 A 
ATOM     29  O3  UNL     1      15.651   2.716  19.656  0.00  0.00    -0.485 OA
ATOM     30  C19 UNL     1      14.888   1.557  20.001  0.00  0.00    +0.270 C 
ATOM     31  C20 UNL     1      15.743   0.582  20.819  0.00  0.00    +0.270 C 
ATOM     32  O4  UNL     1      16.394   1.272  21.888  0.00  0.00    -0.485 OA
ENDBRANCH  19  23
TORSDOF 1
ENDMDL
MODEL 8
REMARK VINA RESULT:    -6.619     10.441     14.606
REMARK INTER + INTRA:          -7.234
REMARK INTER:                  -7.403
REMARK INTRA:                   0.169
REMARK UNBOUND:                -0.229
REMARK  Name = /home/qwerty/github/datacon2025hack/step_04_hit_selection/docking/ligands/lig_385.pdb
REMARK  2 active torsions:
REMARK  status: ('A' for Active; 'I' for Inactive)
REMARK    1  A    between atoms: C1_1  and  C2_2
REMARK    2  A    between atoms: N5_19  and  C13_20
REMARK                            x       y       z     vdW  Elec       q    Type
REMARK                         _______ _______ _______ _____ _____    ______ ____
ROOT
ATOM      1  C1  UNL     1      14.472   6.014  36.561  0.00  0.00    +0.066 C 
ATOM      2  C2  UNL     1      15.765   6.779  36.492  0.00  0.00    +0.047 A 
ATOM      3  N1  UNL     1      15.704   8.127  36.629  0.00  0.00    -0.219 NA
ATOM      4  C3  UNL     1      16.811   8.906  36.573  0.00  0.00    +0.218 A 
ATOM      5  N2  UNL     1      16.707  10.338  36.727  0.00  0.00    -0.295 N 
ATOM      6  C4  UNL     1      15.440  10.935  37.171  0.00  0.00    +0.136 C 
ATOM      7  C5  UNL     1      15.359  12.404  36.746  0.00  0.00    +0.179 C 
ATOM      8  O1  UNL     1      16.524  13.105  37.131  0.00  0.00    -0.377 OA
ATOM      9  C6  UNL     1      17.634  12.601  36.415  0.00  0.00    +0.179 C 
ATOM     10  C7  UNL     1      17.927  11.152  36.813  0.00  0.00    +0.136 C 
ATOM     11  N3  UNL     1      18.016   8.322  36.368  0.00  0.00    -0.219 NA
ATOM     12  C8  UNL     1      18.165   6.980  36.216  0.00  0.00    +0.051 A 
ATOM     13  C9  UNL     1      17.017   6.138  36.298  0.00  0.00    -0.003 A 
ATOM     14  C10 UNL     1      17.026   4.622  36.113  0.00  0.00    +0.058 C 
ATOM     15  C11 UNL     1      18.376   3.912  36.140  0.00  0.00    +0.114 C 
ATOM     16  N4  UNL     1      19.162   4.257  34.945  0.00  0.00    -0.285 N 
ATOM     17  C12 UNL     1      19.272   3.304  33.858  0.00  0.00    +0.306 C 
ATOM     18  O2  UNL     1      18.633   2.218  33.909  0.00  0.00    -0.252 OA
ATOM     19  N5  UNL     1      20.081   3.589  32.700  0.00  0.00    -0.269 N 
ATOM     20  C21 UNL     1      19.754   5.594  34.796  0.00  0.00    +0.115 C 
ATOM     21  C22 UNL     1      19.581   6.491  36.027  0.00  0.00    +0.075 C 
ATOM     22  H16 UNL     1      20.261   4.582  32.437  0.00  0.00    +0.156 HD
ENDROOT
BRANCH  19  23
ATOM     23  C13 UNL     1      20.547   2.575  31.791  0.00  0.00    +0.038 A 
ATOM     24  C14 UNL     1      19.621   1.697  31.203  0.00  0.00    +0.027 A 
ATOM     25  C15 UNL     1      20.047   0.710  30.307  0.00  0.00    +0.051 A 
ATOM     26  C16 UNL     1      21.401   0.604  29.983  0.00  0.00    +0.162 A 
ATOM     27  C17 UNL     1      22.325   1.507  30.523  0.00  0.00    +0.164 A 
ATOM     28  C18 UNL     1      21.905   2.483  31.431  0.00  0.00    +0.072 A 
ATOM     29  O3  UNL     1      23.667   1.419  30.137  0.00  0.00    -0.485 OA
ATOM     30  C19 UNL     1      24.063   0.619  29.020  0.00  0.00    +0.270 C 
ATOM     31  C20 UNL     1      23.249  -0.680  28.981  0.00  0.00    +0.270 C 
ATOM     32  O4  UNL     1      21.854  -0.393  29.114  0.00  0.00    -0.485 OA
ENDBRANCH  19  23
TORSDOF 1
ENDMDL
MODEL 9
REMARK VINA RESULT:    -6.574      3.786      6.698
REMARK INTER + INTRA:          -7.187
REMARK INTER:                  -6.948
REMARK INTRA:                  -0.239
REMARK UNBOUND:                -0.229
REMARK  Name = /home/qwerty/github/datacon2025hack/step_04_hit_selection/docking/ligands/lig_385.pdb
REMARK  2 active torsions:
REMARK  status: ('A' for Active; 'I' for Inactive)
REMARK    1  A    between atoms: C1_1  and  C2_2
REMARK    2  A    between atoms: N5_19  and  C13_20
REMARK                            x       y       z     vdW  Elec       q    Type
REMARK                         _______ _______ _______ _____ _____    ______ ____
ROOT
ATOM      1  C1  UNL     1      21.302   0.695  30.489  0.00  0.00    +0.066 C 
ATOM      2  C2  UNL     1      21.408   2.155  30.147  0.00  0.00    +0.047 A 
ATOM      3  N1  UNL     1      21.552   3.031  31.173  0.00  0.00    -0.219 NA
ATOM      4  C3  UNL     1      21.647   4.367  30.970  0.00  0.00    +0.218 A 
ATOM      5  N2  UNL     1      21.804   5.268  32.087  0.00  0.00    -0.295 N 
ATOM      6  C4  UNL     1      22.089   4.730  33.425  0.00  0.00    +0.136 C 
ATOM      7  C5  UNL     1      21.674   5.732  34.507  0.00  0.00    +0.179 C 
ATOM      8  O1  UNL     1      22.214   7.011  34.243  0.00  0.00    -0.377 OA
ATOM      9  C6  UNL     1      21.639   7.528  33.059  0.00  0.00    +0.179 C 
ATOM     10  C7  UNL     1      22.054   6.695  31.843  0.00  0.00    +0.136 C 
ATOM     11  N3  UNL     1      21.591   4.845  29.704  0.00  0.00    -0.219 NA
ATOM     12  C8  UNL     1      21.444   4.038  28.620  0.00  0.00    +0.051 A 
ATOM     13  C9  UNL     1      21.368   2.627  28.808  0.00  0.00    -0.003 A 
ATOM     14  C10 UNL     1      21.167   1.602  27.693  0.00  0.00    +0.058 C 
ATOM     15  C11 UNL     1      21.359   2.075  26.254  0.00  0.00    +0.114 C 
ATOM     16  N4  UNL     1      20.278   2.994  25.868  0.00  0.00    -0.285 N 
ATOM     17  C12 UNL     1      19.202   2.523  25.017  0.00  0.00    +0.306 C 
ATOM     18  O2  UNL     1      19.159   1.309  24.677  0.00  0.00    -0.252 OA
ATOM     19  N5  UNL     1      18.161   3.414  24.574  0.00  0.00    -0.269 N 
ATOM     20  C21 UNL     1      20.222   4.358  26.414  0.00  0.00    +0.115 C 
ATOM     21  C22 UNL     1      21.431   4.732  27.279  0.00  0.00    +0.075 C 
ATOM     22  H16 UNL     1      17.935   4.257  25.147  0.00  0.00    +0.156 HD
ENDROOT
BRANCH  19  23
ATOM     23  C13 UNL     1      17.307   3.138  23.449  0.00  0.00    +0.038 A 
ATOM     24  C14 UNL     1      17.756   3.438  22.152  0.00  0.00    +0.027 A 
ATOM     25  C15 UNL     1      16.950   3.168  21.041  0.00  0.00    +0.051 A 
ATOM     26  C16 UNL     1      15.694   2.582  21.219  0.00  0.00    +0.162 A 
ATOM     27  C17 UNL     1      15.260   2.230  22.503  0.00  0.00    +0.164 A 
ATOM     28  C18 UNL     1      16.055   2.514  23.616  0.00  0.00    +0.072 A 
ATOM     29  O3  UNL     1      14.025   1.589  22.650  0.00  0.00    -0.485 OA
ATOM     30  C19 UNL     1      13.332   1.051  21.521  0.00  0.00    +0.270 C 
ATOM     31  C20 UNL     1      13.485   1.982  20.312  0.00  0.00    +0.270 C 
ATOM     32  O4  UNL     1      14.859   2.330  20.126  0.00  0.00    -0.485 OA
ENDBRANCH  19  23
TORSDOF 1
ENDMDL
