MODEL 1
REMARK VINA RESULT:    -5.914      0.000      0.000
REMARK INTER + INTRA:          -8.594
REMARK INTER:                  -7.297
REMARK INTRA:                  -1.296
REMARK UNBOUND:                -1.296
REMARK  Name = /home/qwerty/github/datacon2025hack/step_04_hit_selection/docking/ligands/lig_704.pdb
REMARK  6 active torsions:
REMARK  status: ('A' for Active; 'I' for Inactive)
REMARK    1  A    between atoms: C1_1  and  O1_2
REMARK    2  A    between atoms: O1_2  and  C2_3
REMARK    3  A    between atoms: C2_3  and  C3_5
REMARK    4  A    between atoms: C5_7  and  N1_8
REMARK    5  A    between atoms: C10_15  and  C11_16
REMARK    6  A    between atoms: C14_19  and  C15_20
REMARK                            x       y       z     vdW  Elec       q    Type
REMARK                         _______ _______ _______ _____ _____    ______ ____
ROOT
ATOM      1  N1  UNL     1      22.595   5.489  31.666  0.00  0.00    -0.267 N 
ATOM      2  C6  UNL     1      22.308   6.821  31.227  0.00  0.00    +0.307 C 
ATOM      3  O3  UNL     1      21.257   7.048  30.566  0.00  0.00    -0.252 OA
ATOM      4  N2  UNL     1      23.204   7.897  31.546  0.00  0.00    -0.278 N 
ATOM      5  C7  UNL     1      23.133   9.200  30.912  0.00  0.00    +0.110 C 
ATOM      6  C8  UNL     1      24.351   9.966  31.412  0.00  0.00    +0.021 C 
ATOM      7  C9  UNL     1      24.829   9.232  32.664  0.00  0.00    +0.029 C 
ATOM      8  C10 UNL     1      24.239   7.820  32.570  0.00  0.00    +0.114 C 
ATOM      9  H5  UNL     1      23.567   5.136  31.518  0.00  0.00    +0.156 HD
ENDROOT
BRANCH   1  12
ATOM     10  C3  UNL     1      19.877   4.551  34.106  0.00  0.00    +0.096 A 
ATOM     11  C4  UNL     1      20.693   5.314  33.249  0.00  0.00    +0.044 A 
ATOM     12  C5  UNL     1      21.688   4.704  32.462  0.00  0.00    +0.071 A 
ATOM     13  C16 UNL     1      21.857   3.314  32.534  0.00  0.00    +0.147 A 
ATOM     14  F1  UNL     1      22.817   2.698  31.799  0.00  0.00    -0.203 F 
ATOM     15  C17 UNL     1      21.042   2.547  33.368  0.00  0.00    +0.079 A 
ATOM     16  C18 UNL     1      20.059   3.155  34.153  0.00  0.00    +0.140 A 
ATOM     17  F2  UNL     1      19.300   2.371  34.959  0.00  0.00    -0.205 F 
BRANCH  10  18
ATOM     18  C2  UNL     1      18.863   5.223  34.956  0.00  0.00    +0.342 C 
ATOM     19  O2  UNL     1      17.733   5.517  34.477  0.00  0.00    -0.245 OA
BRANCH  18  21
ATOM     20  C1  UNL     1      18.145   5.758  37.265  0.00  0.00    +0.280 C 
ATOM     21  O1  UNL     1      19.156   5.538  36.288  0.00  0.00    -0.464 OA
ENDBRANCH  18  21
ENDBRANCH  10  18
ENDBRANCH   1  12
BRANCH   8  22
ATOM     22  C11 UNL     1      23.659   7.366  33.885  0.00  0.00    +0.010 A 
ATOM     23  C12 UNL     1      24.116   6.298  34.655  0.00  0.00    +0.013 A 
ATOM     24  C13 UNL     1      23.482   6.201  35.898  0.00  0.00    +0.011 A 
ATOM     25  C14 UNL     1      22.518   7.181  36.099  0.00  0.00    -0.013 A 
ATOM     26  C15 UNL     1      21.776   7.420  37.369  0.00  0.00    +0.051 C 
ATOM     27  S1  UNL     1      22.475   8.189  34.753  0.00  0.00    -0.097 S 
ENDBRANCH   8  22
TORSDOF 4
ENDMDL
MODEL 2
REMARK VINA RESULT:    -5.885      3.442      6.389
REMARK INTER + INTRA:          -8.558
REMARK INTER:                  -7.552
REMARK INTRA:                  -1.006
REMARK UNBOUND:                -1.296
REMARK  Name = /home/qwerty/github/datacon2025hack/step_04_hit_selection/docking/ligands/lig_704.pdb
REMARK  6 active torsions:
REMARK  status: ('A' for Active; 'I' for Inactive)
REMARK    1  A    between atoms: C1_1  and  O1_2
REMARK    2  A    between atoms: O1_2  and  C2_3
REMARK    3  A    between atoms: C2_3  and  C3_5
REMARK    4  A    between atoms: C5_7  and  N1_8
REMARK    5  A    between atoms: C10_15  and  C11_16
REMARK    6  A    between atoms: C14_19  and  C15_20
REMARK                            x       y       z     vdW  Elec       q    Type
REMARK                         _______ _______ _______ _____ _____    ______ ____
ROOT
ATOM      1  N1  UNL     1      21.408   9.288  36.772  0.00  0.00    -0.267 N 
ATOM      2  C6  UNL     1      20.403  10.174  36.269  0.00  0.00    +0.307 C 
ATOM      3  O3  UNL     1      20.693  10.996  35.357  0.00  0.00    -0.252 OA
ATOM      4  N2  UNL     1      19.065  10.120  36.790  0.00  0.00    -0.278 N 
ATOM      5  C7  UNL     1      18.076  11.153  36.538  0.00  0.00    +0.110 C 
ATOM      6  C8  UNL     1      16.875  10.788  37.401  0.00  0.00    +0.021 C 
ATOM      7  C9  UNL     1      17.049   9.315  37.769  0.00  0.00    +0.029 C 
ATOM      8  C10 UNL     1      18.538   9.010  37.573  0.00  0.00    +0.114 C 
ATOM      9  H5  UNL     1      21.484   9.190  37.809  0.00  0.00    +0.156 HD
ENDROOT
BRANCH   1  12
ATOM     10  C3  UNL     1      23.029   7.747  33.736  0.00  0.00    +0.096 A 
ATOM     11  C4  UNL     1      22.378   8.673  34.572  0.00  0.00    +0.044 A 
ATOM     12  C5  UNL     1      22.167   8.395  35.936  0.00  0.00    +0.071 A 
ATOM     13  C16 UNL     1      22.625   7.177  36.462  0.00  0.00    +0.147 A 
ATOM     14  F1  UNL     1      22.425   6.874  37.769  0.00  0.00    -0.203 F 
ATOM     15  C17 UNL     1      23.288   6.261  35.644  0.00  0.00    +0.079 A 
ATOM     16  C18 UNL     1      23.490   6.536  34.289  0.00  0.00    +0.140 A 
ATOM     17  F2  UNL     1      24.126   5.610  33.529  0.00  0.00    -0.205 F 
BRANCH  10  18
ATOM     18  C2  UNL     1      23.201   8.047  32.292  0.00  0.00    +0.342 C 
ATOM     19  O2  UNL     1      22.620   7.335  31.426  0.00  0.00    -0.245 OA
BRANCH  18  21
ATOM     20  C1  UNL     1      25.311   9.338  32.413  0.00  0.00    +0.280 C 
ATOM     21  O1  UNL     1      24.009   9.114  31.884  0.00  0.00    -0.464 OA
ENDBRANCH  18  21
ENDBRANCH  10  18
ENDBRANCH   1  12
BRANCH   8  22
ATOM     22  C11 UNL     1      18.753   7.700  36.858  0.00  0.00    +0.010 A 
ATOM     23  C12 UNL     1      19.132   6.497  37.451  0.00  0.00    +0.013 A 
ATOM     24  C13 UNL     1      19.109   5.413  36.566  0.00  0.00    +0.011 A 
ATOM     25  C14 UNL     1      18.727   5.766  35.278  0.00  0.00    -0.013 A 
ATOM     26  C15 UNL     1      18.478   4.816  34.156  0.00  0.00    +0.051 C 
ATOM     27  S1  UNL     1      18.384   7.413  35.241  0.00  0.00    -0.097 S 
ENDBRANCH   8  22
TORSDOF 4
ENDMDL
MODEL 3
REMARK VINA RESULT:    -5.793     12.421     14.004
REMARK INTER + INTRA:          -8.444
REMARK INTER:                  -7.116
REMARK INTRA:                  -1.327
REMARK UNBOUND:                -1.296
REMARK  Name = /home/qwerty/github/datacon2025hack/step_04_hit_selection/docking/ligands/lig_704.pdb
REMARK  6 active torsions:
REMARK  status: ('A' for Active; 'I' for Inactive)
REMARK    1  A    between atoms: C1_1  and  O1_2
REMARK    2  A    between atoms: O1_2  and  C2_3
REMARK    3  A    between atoms: C2_3  and  C3_5
REMARK    4  A    between atoms: C5_7  and  N1_8
REMARK    5  A    between atoms: C10_15  and  C11_16
REMARK    6  A    between atoms: C14_19  and  C15_20
REMARK                            x       y       z     vdW  Elec       q    Type
REMARK                         _______ _______ _______ _____ _____    ______ ____
ROOT
ATOM      1  N1  UNL     1      14.638   0.432  20.873  0.00  0.00    -0.267 N 
ATOM      2  C6  UNL     1      13.448   1.196  21.091  0.00  0.00    +0.307 C 
ATOM      3  O3  UNL     1      12.490   0.691  21.739  0.00  0.00    -0.252 OA
ATOM      4  N2  UNL     1      13.346   2.537  20.585  0.00  0.00    -0.278 N 
ATOM      5  C7  UNL     1      12.093   3.266  20.520  0.00  0.00    +0.110 C 
ATOM      6  C8  UNL     1      12.408   4.557  19.776  0.00  0.00    +0.021 C 
ATOM      7  C9  UNL     1      13.925   4.723  19.840  0.00  0.00    +0.029 C 
ATOM      8  C10 UNL     1      14.486   3.329  20.137  0.00  0.00    +0.114 C 
ATOM      9  H5  UNL     1      15.034   0.428  19.906  0.00  0.00    +0.156 HD
ENDROOT
BRANCH   1  12
ATOM     10  C3  UNL     1      16.040  -0.269  24.303  0.00  0.00    +0.096 A 
ATOM     11  C4  UNL     1      15.213   0.229  23.278  0.00  0.00    +0.044 A 
ATOM     12  C5  UNL     1      15.409  -0.155  21.937  0.00  0.00    +0.071 A 
ATOM     13  C16 UNL     1      16.441  -1.054  21.630  0.00  0.00    +0.147 A 
ATOM     14  F1  UNL     1      16.663  -1.432  20.346  0.00  0.00    -0.203 F 
ATOM     15  C17 UNL     1      17.254  -1.567  22.641  0.00  0.00    +0.079 A 
ATOM     16  C18 UNL     1      17.062  -1.180  23.970  0.00  0.00    +0.140 A 
ATOM     17  F2  UNL     1      17.886  -1.693  24.918  0.00  0.00    -0.205 F 
BRANCH  10  18
ATOM     18  C2  UNL     1      15.839   0.184  25.702  0.00  0.00    +0.342 C 
ATOM     19  O2  UNL     1      16.093   1.378  26.021  0.00  0.00    -0.245 OA
BRANCH  18  21
ATOM     20  C1  UNL     1      14.256  -1.564  26.458  0.00  0.00    +0.280 C 
ATOM     21  O1  UNL     1      15.373  -0.709  26.673  0.00  0.00    -0.464 OA
ENDBRANCH  18  21
ENDBRANCH  10  18
ENDBRANCH   1  12
BRANCH   8  22
ATOM     22  C11 UNL     1      15.560   3.369  21.195  0.00  0.00    +0.010 A 
ATOM     23  C12 UNL     1      16.912   3.101  20.997  0.00  0.00    +0.013 A 
ATOM     24  C13 UNL     1      17.698   3.361  22.125  0.00  0.00    +0.011 A 
ATOM     25  C14 UNL     1      16.963   3.819  23.211  0.00  0.00    -0.013 A 
ATOM     26  C15 UNL     1      17.532   4.307  24.499  0.00  0.00    +0.051 C 
ATOM     27  S1  UNL     1      15.345   3.934  22.766  0.00  0.00    -0.097 S 
ENDBRANCH   8  22
TORSDOF 4
ENDMDL
MODEL 4
REMARK VINA RESULT:    -5.751     15.872     17.558
REMARK INTER + INTRA:          -8.392
REMARK INTER:                  -7.469
REMARK INTRA:                  -0.923
REMARK UNBOUND:                -1.296
REMARK  Name = /home/qwerty/github/datacon2025hack/step_04_hit_selection/docking/ligands/lig_704.pdb
REMARK  6 active torsions:
REMARK  status: ('A' for Active; 'I' for Inactive)
REMARK    1  A    between atoms: C1_1  and  O1_2
REMARK    2  A    between atoms: O1_2  and  C2_3
REMARK    3  A    between atoms: C2_3  and  C3_5
REMARK    4  A    between atoms: C5_7  and  N1_8
REMARK    5  A    between atoms: C10_15  and  C11_16
REMARK    6  A    between atoms: C14_19  and  C15_20
REMARK                            x       y       z     vdW  Elec       q    Type
REMARK                         _______ _______ _______ _____ _____    ______ ____
ROOT
ATOM      1  N1  UNL     1       9.608   4.765  20.238  0.00  0.00    -0.267 N 
ATOM      2  C6  UNL     1      10.908   4.239  20.527  0.00  0.00    +0.307 C 
ATOM      3  O3  UNL     1      11.933   4.822  20.078  0.00  0.00    -0.252 OA
ATOM      4  N2  UNL     1      11.047   3.059  21.335  0.00  0.00    -0.278 N 
ATOM      5  C7  UNL     1      12.289   2.314  21.439  0.00  0.00    +0.110 C 
ATOM      6  C8  UNL     1      11.950   1.067  22.245  0.00  0.00    +0.021 C 
ATOM      7  C9  UNL     1      10.632   1.366  22.957  0.00  0.00    +0.029 C 
ATOM      8  C10 UNL     1       9.987   2.515  22.174  0.00  0.00    +0.114 C 
ATOM      9  H5  UNL     1       8.877   4.088  19.925  0.00  0.00    +0.156 HD
ENDROOT
BRANCH   1  12
ATOM     10  C3  UNL     1       9.760   8.492  20.794  0.00  0.00    +0.096 A 
ATOM     11  C4  UNL     1      10.115   7.189  20.396  0.00  0.00    +0.044 A 
ATOM     12  C5  UNL     1       9.215   6.116  20.542  0.00  0.00    +0.071 A 
ATOM     13  C16 UNL     1       7.946   6.361  21.086  0.00  0.00    +0.147 A 
ATOM     14  F1  UNL     1       7.061   5.345  21.253  0.00  0.00    -0.203 F 
ATOM     15  C17 UNL     1       7.579   7.652  21.467  0.00  0.00    +0.079 A 
ATOM     16  C18 UNL     1       8.475   8.714  21.328  0.00  0.00    +0.140 A 
ATOM     17  F2  UNL     1       8.081   9.950  21.725  0.00  0.00    -0.205 F 
BRANCH  10  18
ATOM     18  C2  UNL     1      10.742   9.598  20.668  0.00  0.00    +0.342 C 
ATOM     19  O2  UNL     1      11.156   9.948  19.528  0.00  0.00    -0.245 OA
BRANCH  18  21
ATOM     20  C1  UNL     1      11.702   9.556  22.951  0.00  0.00    +0.280 C 
ATOM     21  O1  UNL     1      11.217  10.254  21.809  0.00  0.00    -0.464 OA
ENDBRANCH  18  21
ENDBRANCH  10  18
ENDBRANCH   1  12
BRANCH   8  22
ATOM     22  C11 UNL     1       9.431   3.576  23.090  0.00  0.00    +0.010 A 
ATOM     23  C12 UNL     1       8.110   3.669  23.524  0.00  0.00    +0.013 A 
ATOM     24  C13 UNL     1       7.914   4.666  24.486  0.00  0.00    +0.011 A 
ATOM     25  C14 UNL     1       9.075   5.364  24.796  0.00  0.00    -0.013 A 
ATOM     26  C15 UNL     1       9.212   6.384  25.874  0.00  0.00    +0.051 C 
ATOM     27  S1  UNL     1      10.351   4.725  23.905  0.00  0.00    -0.097 S 
ENDBRANCH   8  22
TORSDOF 4
ENDMDL
MODEL 5
REMARK VINA RESULT:    -5.733     14.722     15.998
REMARK INTER + INTRA:          -8.370
REMARK INTER:                  -7.129
REMARK INTRA:                  -1.241
REMARK UNBOUND:                -1.296
REMARK  Name = /home/qwerty/github/datacon2025hack/step_04_hit_selection/docking/ligands/lig_704.pdb
REMARK  6 active torsions:
REMARK  status: ('A' for Active; 'I' for Inactive)
REMARK    1  A    between atoms: C1_1  and  O1_2
REMARK    2  A    between atoms: O1_2  and  C2_3
REMARK    3  A    between atoms: C2_3  and  C3_5
REMARK    4  A    between atoms: C5_7  and  N1_8
REMARK    5  A    between atoms: C10_15  and  C11_16
REMARK    6  A    between atoms: C14_19  and  C15_20
REMARK                            x       y       z     vdW  Elec       q    Type
REMARK                         _______ _______ _______ _____ _____    ______ ____
ROOT
ATOM      1  N1  UNL     1       7.664   9.028  24.588  0.00  0.00    -0.267 N 
ATOM      2  C6  UNL     1       7.847   9.893  23.462  0.00  0.00    +0.307 C 
ATOM      3  O3  UNL     1       7.090  10.891  23.311  0.00  0.00    -0.252 OA
ATOM      4  N2  UNL     1       8.895   9.635  22.514  0.00  0.00    -0.278 N 
ATOM      5  C7  UNL     1       8.970  10.288  21.220  0.00  0.00    +0.110 C 
ATOM      6  C8  UNL     1      10.118   9.609  20.485  0.00  0.00    +0.021 C 
ATOM      7  C9  UNL     1      10.948   8.902  21.555  0.00  0.00    +0.029 C 
ATOM      8  C10 UNL     1      10.020   8.742  22.764  0.00  0.00    +0.114 C 
ATOM      9  H5  UNL     1       7.671   7.999  24.406  0.00  0.00    +0.156 HD
ENDROOT
BRANCH   1  12
ATOM     10  C3  UNL     1       8.240  11.186  27.627  0.00  0.00    +0.096 A 
ATOM     11  C4  UNL     1       8.136  10.777  26.284  0.00  0.00    +0.044 A 
ATOM     12  C5  UNL     1       7.672   9.490  25.951  0.00  0.00    +0.071 A 
ATOM     13  C16 UNL     1       7.304   8.612  26.981  0.00  0.00    +0.147 A 
ATOM     14  F1  UNL     1       6.866   7.360  26.694  0.00  0.00    -0.203 F 
ATOM     15  C17 UNL     1       7.387   9.014  28.314  0.00  0.00    +0.079 A 
ATOM     16  C18 UNL     1       7.854  10.289  28.642  0.00  0.00    +0.140 A 
ATOM     17  F2  UNL     1       7.931  10.632  29.953  0.00  0.00    -0.205 F 
BRANCH  10  18
ATOM     18  C2  UNL     1       8.772  12.533  27.952  0.00  0.00    +0.342 C 
ATOM     19  O2  UNL     1      10.017  12.741  27.935  0.00  0.00    -0.245 OA
BRANCH  18  21
ATOM     20  C1  UNL     1       7.534  13.876  29.624  0.00  0.00    +0.280 C 
ATOM     21  O1  UNL     1       7.899  13.576  28.282  0.00  0.00    -0.464 OA
ENDBRANCH  18  21
ENDBRANCH  10  18
ENDBRANCH   1  12
BRANCH   8  22
ATOM     22  C11 UNL     1      10.712   9.100  24.055  0.00  0.00    +0.010 A 
ATOM     23  C12 UNL     1      11.117  10.377  24.438  0.00  0.00    +0.013 A 
ATOM     24  C13 UNL     1      11.598  10.433  25.751  0.00  0.00    +0.011 A 
ATOM     25  C14 UNL     1      11.585   9.201  26.392  0.00  0.00    -0.013 A 
ATOM     26  C15 UNL     1      11.905   8.969  27.830  0.00  0.00    +0.051 C 
ATOM     27  S1  UNL     1      10.946   8.048  25.348  0.00  0.00    -0.097 S 
ENDBRANCH   8  22
TORSDOF 4
ENDMDL
MODEL 6
REMARK VINA RESULT:    -5.668     13.354     15.488
REMARK INTER + INTRA:          -8.290
REMARK INTER:                  -7.080
REMARK INTRA:                  -1.211
REMARK UNBOUND:                -1.296
REMARK  Name = /home/qwerty/github/datacon2025hack/step_04_hit_selection/docking/ligands/lig_704.pdb
REMARK  6 active torsions:
REMARK  status: ('A' for Active; 'I' for Inactive)
REMARK    1  A    between atoms: C1_1  and  O1_2
REMARK    2  A    between atoms: O1_2  and  C2_3
REMARK    3  A    between atoms: C2_3  and  C3_5
REMARK    4  A    between atoms: C5_7  and  N1_8
REMARK    5  A    between atoms: C10_15  and  C11_16
REMARK    6  A    between atoms: C14_19  and  C15_20
REMARK                            x       y       z     vdW  Elec       q    Type
REMARK                         _______ _______ _______ _____ _____    ______ ____
ROOT
ATOM      1  N1  UNL     1       9.227   8.549  30.559  0.00  0.00    -0.267 N 
ATOM      2  C6  UNL     1       7.907   8.009  30.436  0.00  0.00    +0.307 C 
ATOM      3  O3  UNL     1       6.984   8.435  31.183  0.00  0.00    -0.252 OA
ATOM      4  N2  UNL     1       7.629   6.993  29.458  0.00  0.00    -0.278 N 
ATOM      5  C7  UNL     1       6.409   6.207  29.458  0.00  0.00    +0.110 C 
ATOM      6  C8  UNL     1       6.600   5.154  28.374  0.00  0.00    +0.021 C 
ATOM      7  C9  UNL     1       7.737   5.660  27.488  0.00  0.00    +0.029 C 
ATOM      8  C10 UNL     1       8.505   6.680  28.336  0.00  0.00    +0.114 C 
ATOM      9  H5  UNL     1      10.021   7.871  30.583  0.00  0.00    +0.156 HD
ENDROOT
BRANCH   1  12
ATOM     10  C3  UNL     1       8.908  12.212  29.722  0.00  0.00    +0.096 A 
ATOM     11  C4  UNL     1       8.579  10.859  29.923  0.00  0.00    +0.044 A 
ATOM     12  C5  UNL     1       9.520   9.954  30.451  0.00  0.00    +0.071 A 
ATOM     13  C16 UNL     1      10.799  10.421  30.788  0.00  0.00    +0.147 A 
ATOM     14  F1  UNL     1      11.733   9.571  31.286  0.00  0.00    -0.203 F 
ATOM     15  C17 UNL     1      11.129  11.765  30.609  0.00  0.00    +0.079 A 
ATOM     16  C18 UNL     1      10.196  12.659  30.078  0.00  0.00    +0.140 A 
ATOM     17  F2  UNL     1      10.566  13.954  29.908  0.00  0.00    -0.205 F 
BRANCH  10  18
ATOM     18  C2  UNL     1       7.912  13.136  29.124  0.00  0.00    +0.342 C 
ATOM     19  O2  UNL     1       7.219  13.884  29.868  0.00  0.00    -0.245 OA
BRANCH  18  21
ATOM     20  C1  UNL     1       7.496  14.392  27.030  0.00  0.00    +0.280 C 
ATOM     21  O1  UNL     1       7.733  13.179  27.737  0.00  0.00    -0.464 OA
ENDBRANCH  18  21
ENDBRANCH  10  18
ENDBRANCH   1  12
BRANCH   8  22
ATOM     22  C11 UNL     1       8.839   7.924  27.552  0.00  0.00    +0.010 A 
ATOM     23  C12 UNL     1       7.920   8.835  27.036  0.00  0.00    +0.013 A 
ATOM     24  C13 UNL     1       8.520   9.972  26.484  0.00  0.00    +0.011 A 
ATOM     25  C14 UNL     1       9.908   9.947  26.553  0.00  0.00    -0.013 A 
ATOM     26  C15 UNL     1      10.815  11.069  26.176  0.00  0.00    +0.051 C 
ATOM     27  S1  UNL     1      10.391   8.535  27.329  0.00  0.00    -0.097 S 
ENDBRANCH   8  22
TORSDOF 4
ENDMDL
MODEL 7
REMARK VINA RESULT:    -5.577      6.423      8.664
REMARK INTER + INTRA:          -8.177
REMARK INTER:                  -6.988
REMARK INTRA:                  -1.189
REMARK UNBOUND:                -1.296
REMARK  Name = /home/qwerty/github/datacon2025hack/step_04_hit_selection/docking/ligands/lig_704.pdb
REMARK  6 active torsions:
REMARK  status: ('A' for Active; 'I' for Inactive)
REMARK    1  A    between atoms: C1_1  and  O1_2
REMARK    2  A    between atoms: O1_2  and  C2_3
REMARK    3  A    between atoms: C2_3  and  C3_5
REMARK    4  A    between atoms: C5_7  and  N1_8
REMARK    5  A    between atoms: C10_15  and  C11_16
REMARK    6  A    between atoms: C14_19  and  C15_20
REMARK                            x       y       z     vdW  Elec       q    Type
REMARK                         _______ _______ _______ _____ _____    ______ ____
ROOT
ATOM      1  N1  UNL     1      21.299   5.282  26.834  0.00  0.00    -0.267 N 
ATOM      2  C6  UNL     1      21.967   5.130  25.577  0.00  0.00    +0.307 C 
ATOM      3  O3  UNL     1      23.228   5.111  25.538  0.00  0.00    -0.252 OA
ATOM      4  N2  UNL     1      21.207   4.988  24.366  0.00  0.00    -0.278 N 
ATOM      5  C7  UNL     1      21.795   5.109  23.045  0.00  0.00    +0.110 C 
ATOM      6  C8  UNL     1      20.624   5.059  22.070  0.00  0.00    +0.021 C 
ATOM      7  C9  UNL     1      19.454   4.457  22.845  0.00  0.00    +0.029 C 
ATOM      8  C10 UNL     1      19.789   4.654  24.328  0.00  0.00    +0.114 C 
ATOM      9  H5  UNL     1      20.515   5.971  26.878  0.00  0.00    +0.156 HD
ENDROOT
BRANCH   1  12
ATOM     10  C3  UNL     1      22.252   2.261  28.880  0.00  0.00    +0.096 A 
ATOM     11  C4  UNL     1      22.135   3.154  27.798  0.00  0.00    +0.044 A 
ATOM     12  C5  UNL     1      21.518   4.409  27.958  0.00  0.00    +0.071 A 
ATOM     13  C16 UNL     1      21.023   4.770  29.220  0.00  0.00    +0.147 A 
ATOM     14  F1  UNL     1      20.411   5.967  29.402  0.00  0.00    -0.203 F 
ATOM     15  C17 UNL     1      21.150   3.899  30.302  0.00  0.00    +0.079 A 
ATOM     16  C18 UNL     1      21.756   2.650  30.140  0.00  0.00    +0.140 A 
ATOM     17  F2  UNL     1      21.845   1.830  31.218  0.00  0.00    -0.205 F 
BRANCH  10  18
ATOM     18  C2  UNL     1      22.869   0.926  28.676  0.00  0.00    +0.342 C 
ATOM     19  O2  UNL     1      22.172  -0.030  28.237  0.00  0.00    -0.245 OA
BRANCH  18  21
ATOM     20  C1  UNL     1      24.781  -0.576  29.144  0.00  0.00    +0.280 C 
ATOM     21  O1  UNL     1      24.221   0.721  28.972  0.00  0.00    -0.464 OA
ENDBRANCH  18  21
ENDBRANCH  10  18
ENDBRANCH   1  12
BRANCH   8  22
ATOM     22  C11 UNL     1      19.508   3.414  25.137  0.00  0.00    +0.010 A 
ATOM     23  C12 UNL     1      20.172   2.195  25.021  0.00  0.00    +0.013 A 
ATOM     24  C13 UNL     1      19.802   1.268  26.002  0.00  0.00    +0.011 A 
ATOM     25  C14 UNL     1      18.838   1.753  26.877  0.00  0.00    -0.013 A 
ATOM     26  C15 UNL     1      18.347   1.055  28.099  0.00  0.00    +0.051 C 
ATOM     27  S1  UNL     1      18.469   3.340  26.459  0.00  0.00    -0.097 S 
ENDBRANCH   8  22
TORSDOF 4
ENDMDL
MODEL 8
REMARK VINA RESULT:    -5.369     14.751     16.003
REMARK INTER + INTRA:          -7.921
REMARK INTER:                  -7.271
REMARK INTRA:                  -0.650
REMARK UNBOUND:                -1.296
REMARK  Name = /home/qwerty/github/datacon2025hack/step_04_hit_selection/docking/ligands/lig_704.pdb
REMARK  6 active torsions:
REMARK  status: ('A' for Active; 'I' for Inactive)
REMARK    1  A    between atoms: C1_1  and  O1_2
REMARK    2  A    between atoms: O1_2  and  C2_3
REMARK    3  A    between atoms: C2_3  and  C3_5
REMARK    4  A    between atoms: C5_7  and  N1_8
REMARK    5  A    between atoms: C10_15  and  C11_16
REMARK    6  A    between atoms: C14_19  and  C15_20
REMARK                            x       y       z     vdW  Elec       q    Type
REMARK                         _______ _______ _______ _____ _____    ______ ____
ROOT
ATOM      1  N1  UNL     1      11.798   3.971  19.881  0.00  0.00    -0.267 N 
ATOM      2  C6  UNL     1      12.918   4.847  20.045  0.00  0.00    +0.307 C 
ATOM      3  O3  UNL     1      12.725   6.069  20.294  0.00  0.00    -0.252 OA
ATOM      4  N2  UNL     1      14.257   4.337  19.938  0.00  0.00    -0.278 N 
ATOM      5  C7  UNL     1      15.422   5.194  19.815  0.00  0.00    +0.110 C 
ATOM      6  C8  UNL     1      16.595   4.255  19.563  0.00  0.00    +0.021 C 
ATOM      7  C9  UNL     1      16.130   2.868  20.002  0.00  0.00    +0.029 C 
ATOM      8  C10 UNL     1      14.598   2.921  19.999  0.00  0.00    +0.114 C 
ATOM      9  H5  UNL     1      11.817   3.318  19.065  0.00  0.00    +0.156 HD
ENDROOT
BRANCH   1  12
ATOM     10  C3  UNL     1       9.655   2.468  22.596  0.00  0.00    +0.096 A 
ATOM     11  C4  UNL     1      10.723   2.672  21.701  0.00  0.00    +0.044 A 
ATOM     12  C5  UNL     1      10.767   3.809  20.872  0.00  0.00    +0.071 A 
ATOM     13  C16 UNL     1       9.731   4.751  20.952  0.00  0.00    +0.147 A 
ATOM     14  F1  UNL     1       9.737   5.850  20.156  0.00  0.00    -0.203 F 
ATOM     15  C17 UNL     1       8.677   4.566  21.848  0.00  0.00    +0.079 A 
ATOM     16  C18 UNL     1       8.632   3.434  22.665  0.00  0.00    +0.140 A 
ATOM     17  F2  UNL     1       7.581   3.289  23.511  0.00  0.00    -0.205 F 
BRANCH  10  18
ATOM     18  C2  UNL     1       9.611   1.240  23.429  0.00  0.00    +0.342 C 
ATOM     19  O2  UNL     1       9.466   0.112  22.881  0.00  0.00    -0.245 OA
BRANCH  18  21
ATOM     20  C1  UNL     1       8.644   1.043  25.700  0.00  0.00    +0.280 C 
ATOM     21  O1  UNL     1       9.726   1.327  24.820  0.00  0.00    -0.464 OA
ENDBRANCH  18  21
ENDBRANCH  10  18
ENDBRANCH   1  12
BRANCH   8  22
ATOM     22  C11 UNL     1      14.011   2.280  21.231  0.00  0.00    +0.010 A 
ATOM     23  C12 UNL     1      13.490   0.991  21.312  0.00  0.00    +0.013 A 
ATOM     24  C13 UNL     1      13.153   0.612  22.616  0.00  0.00    +0.011 A 
ATOM     25  C14 UNL     1      13.395   1.607  23.555  0.00  0.00    -0.013 A 
ATOM     26  C15 UNL     1      13.268   1.454  25.033  0.00  0.00    +0.051 C 
ATOM     27  S1  UNL     1      14.058   2.943  22.777  0.00  0.00    -0.097 S 
ENDBRANCH   8  22
TORSDOF 4
ENDMDL
MODEL 9
REMARK VINA RESULT:    -5.333     15.459     16.923
REMARK INTER + INTRA:          -7.877
REMARK INTER:                  -6.588
REMARK INTRA:                  -1.289
REMARK UNBOUND:                -1.296
REMARK  Name = /home/qwerty/github/datacon2025hack/step_04_hit_selection/docking/ligands/lig_704.pdb
REMARK  6 active torsions:
REMARK  status: ('A' for Active; 'I' for Inactive)
REMARK    1  A    between atoms: C1_1  and  O1_2
REMARK    2  A    between atoms: O1_2  and  C2_3
REMARK    3  A    between atoms: C2_3  and  C3_5
REMARK    4  A    between atoms: C5_7  and  N1_8
REMARK    5  A    between atoms: C10_15  and  C11_16
REMARK    6  A    between atoms: C14_19  and  C15_20
REMARK                            x       y       z     vdW  Elec       q    Type
REMARK                         _______ _______ _______ _____ _____    ______ ____
ROOT
ATOM      1  N1  UNL     1      12.004   8.155  20.637  0.00  0.00    -0.267 N 
ATOM      2  C6  UNL     1      12.977   7.428  21.395  0.00  0.00    +0.307 C 
ATOM      3  O3  UNL     1      13.647   8.021  22.284  0.00  0.00    -0.252 OA
ATOM      4  N2  UNL     1      13.184   6.027  21.152  0.00  0.00    -0.278 N 
ATOM      5  C7  UNL     1      14.325   5.294  21.670  0.00  0.00    +0.110 C 
ATOM      6  C8  UNL     1      14.240   3.908  21.044  0.00  0.00    +0.021 C 
ATOM      7  C9  UNL     1      12.804   3.756  20.546  0.00  0.00    +0.029 C 
ATOM      8  C10 UNL     1      12.254   5.181  20.415  0.00  0.00    +0.114 C 
ATOM      9  H5  UNL     1      12.003   8.016  19.602  0.00  0.00    +0.156 HD
ENDROOT
BRANCH   1  12
ATOM     10  C3  UNL     1       9.389   9.289  23.107  0.00  0.00    +0.096 A 
ATOM     11  C4  UNL     1      10.512   8.640  22.560  0.00  0.00    +0.044 A 
ATOM     12  C5  UNL     1      10.924   8.893  21.237  0.00  0.00    +0.071 A 
ATOM     13  C16 UNL     1      10.202   9.814  20.464  0.00  0.00    +0.147 A 
ATOM     14  F1  UNL     1      10.566  10.070  19.182  0.00  0.00    -0.203 F 
ATOM     15  C17 UNL     1       9.099  10.476  21.003  0.00  0.00    +0.079 A 
ATOM     16  C18 UNL     1       8.688  10.219  22.313  0.00  0.00    +0.140 A 
ATOM     17  F2  UNL     1       7.600  10.875  22.791  0.00  0.00    -0.205 F 
BRANCH  10  18
ATOM     18  C2  UNL     1       8.951   8.973  24.489  0.00  0.00    +0.342 C 
ATOM     19  O2  UNL     1       8.451   7.843  24.750  0.00  0.00    -0.245 OA
BRANCH  18  21
ATOM     20  C1  UNL     1       8.055  10.184  26.455  0.00  0.00    +0.280 C 
ATOM     21  O1  UNL     1       9.084   9.924  25.507  0.00  0.00    -0.464 OA
ENDBRANCH  18  21
ENDBRANCH  10  18
ENDBRANCH   1  12
BRANCH   8  22
ATOM     22  C11 UNL     1      10.860   5.299  20.978  0.00  0.00    +0.010 A 
ATOM     23  C12 UNL     1       9.724   5.686  20.272  0.00  0.00    +0.013 A 
ATOM     24  C13 UNL     1       8.543   5.561  21.012  0.00  0.00    +0.011 A 
ATOM     25  C14 UNL     1       8.754   5.090  22.302  0.00  0.00    -0.013 A 
ATOM     26  C15 UNL     1       7.686   4.725  23.276  0.00  0.00    +0.051 C 
ATOM     27  S1  UNL     1      10.396   4.795  22.515  0.00  0.00    -0.097 S 
ENDBRANCH   8  22
TORSDOF 4
ENDMDL
