REMARK  Name = /home/qwerty/github/datacon2025hack/step_04_hit_selection/docking/ligands/lig_278.pdb
REMARK  8 active torsions:
REMARK  status: ('A' for Active; 'I' for Inactive)
REMARK    1  A    between atoms: C1_1  and  C2_2
REMARK    2  A    between atoms: C2_2  and  C3_3
REMARK    3  A    between atoms: C2_2  and  N3_18
REMARK    4  A    between atoms: C3_3  and  N1_4
REMARK    5  A    between atoms: N1_4  and  C4_5
REMARK    6  A    between atoms: C5_6  and  C6_8
REMARK    7  A    between atoms: C14_19  and  C15_21
REMARK    8  A    between atoms: C17_23  and  C18_24
REMARK                            x       y       z     vdW  Elec       q    Type
REMARK                         _______ _______ _______ _____ _____    ______ ____
ROOT
ATOM      1  N1  UNL     1      -0.521  -1.636  -0.619  0.00  0.00    -0.298 N 
ATOM      2  C4  UNL     1      -0.907  -3.043  -0.457  0.00  0.00    +0.132 C 
ATOM      3  C5  UNL     1      -1.526  -0.610  -0.775  0.00  0.00    +0.265 C 
ATOM      4  O1  UNL     1      -1.275   0.387  -1.507  0.00  0.00    -0.268 OA
ENDROOT
BRANCH   3   5
ATOM      5  C6  UNL     1      -2.834  -0.679  -0.079  0.00  0.00    +0.126 A 
ATOM      6  C7  UNL     1      -3.888   0.176  -0.446  0.00  0.00    +0.040 A 
ATOM      7  C8  UNL     1      -5.105   0.113   0.245  0.00  0.00    -0.002 A 
ATOM      8  C9  UNL     1      -5.264  -0.827   1.278  0.00  0.00    +0.142 A 
ATOM      9  C10 UNL     1      -4.190  -1.646   1.626  0.00  0.00    +0.157 A 
ATOM     10  N2  UNL     1      -3.014  -1.552   0.951  0.00  0.00    -0.247 NA
ATOM     11  O2  UNL     1      -6.477  -0.925   1.969  0.00  0.00    -0.490 OA
ATOM     12  C11 UNL     1      -7.651  -0.236   1.537  0.00  0.00    +0.229 C 
ATOM     13  C12 UNL     1      -7.282   1.142   0.980  0.00  0.00    +0.046 C 
ATOM     14  C13 UNL     1      -6.259   0.999  -0.155  0.00  0.00    +0.042 C 
ENDBRANCH   3   5
BRANCH   1  15
ATOM     15  C3  UNL     1       0.903  -1.284  -0.738  0.00  0.00    +0.129 C 
BRANCH  15  17
ATOM     16  C1  UNL     1       1.238  -1.098   1.771  0.00  0.00    +0.029 C 
ATOM     17  C2  UNL     1       1.355  -0.378   0.424  0.00  0.00    +0.087 C 
BRANCH  17  18
ATOM     18  N3  UNL     1       2.742   0.044   0.213  0.00  0.00    -0.311 N 
ATOM     19  C14 UNL     1       3.256   1.283   0.721  0.00  0.00    +0.217 C 
ATOM     20  O3  UNL     1       2.527   2.041   1.417  0.00  0.00    -0.275 OA
ATOM     21  H18 UNL     1       3.401  -0.600  -0.283  0.00  0.00    +0.149 HD
BRANCH  19  22
ATOM     22  C15 UNL     1       4.683   1.663   0.470  0.00  0.00    +0.079 C 
ATOM     23  C16 UNL     1       4.870   3.002  -0.235  0.00  0.00    +0.017 C 
ATOM     24  C17 UNL     1       5.074   1.704  -1.003  0.00  0.00    +0.005 C 
BRANCH  24  25
ATOM     25  C18 UNL     1       6.539   1.340  -1.261  0.00  0.00    -0.007 C 
ATOM     26  C19 UNL     1       6.748  -0.110  -1.666  0.00  0.00    +0.004 C 
ATOM     27  C20 UNL     1       6.864   0.994  -2.705  0.00  0.00    +0.004 C 
ENDBRANCH  24  25
ENDBRANCH  19  22
ENDBRANCH  17  18
ENDBRANCH  15  17
ENDBRANCH   1  15
TORSDOF 6
