MODEL 1
REMARK VINA RESULT:    -5.767      0.000      0.000
REMARK INTER + INTRA:          -7.597
REMARK INTER:                  -7.115
REMARK INTRA:                  -0.482
REMARK UNBOUND:                -0.482
REMARK  Name = /home/qwerty/github/datacon2025hack/step_04_hit_selection/docking/ligands/lig_420.pdb
REMARK  5 active torsions:
REMARK  status: ('A' for Active; 'I' for Inactive)
REMARK    1  A    between atoms: C2_2  and  C3_3
REMARK    2  A    between atoms: C3_3  and  C4_4
REMARK    3  A    between atoms: C4_4  and  C5_5
REMARK    4  A    between atoms: C13_16  and  C14_18
REMARK    5  A    between atoms: C17_22  and  C18_23
REMARK                            x       y       z     vdW  Elec       q    Type
REMARK                         _______ _______ _______ _____ _____    ______ ____
ROOT
ATOM      1  C5  UNL     1      19.618   3.167  23.932  0.00  0.00    +0.216 C 
ATOM      2  O1  UNL     1      18.847   2.205  23.661  0.00  0.00    -0.276 OA
ATOM      3  N1  UNL     1      20.586   3.022  24.997  0.00  0.00    -0.297 N 
ATOM      4  C6  UNL     1      21.751   3.923  25.042  0.00  0.00    +0.108 C 
ATOM      5  C7  UNL     1      22.925   3.304  25.790  0.00  0.00    +0.021 C 
ATOM      6  C8  UNL     1      22.473   2.865  27.171  0.00  0.00    +0.026 C 
ATOM      7  C9  UNL     1      21.432   1.748  27.052  0.00  0.00    +0.097 C 
ATOM      8  C10 UNL     1      20.273   2.080  26.095  0.00  0.00    +0.098 C 
ATOM      9  C11 UNL     1      19.159   2.613  26.996  0.00  0.00    +0.043 C 
ATOM     10  C12 UNL     1      19.395   1.950  28.347  0.00  0.00    +0.110 C 
ATOM     11  N2  UNL     1      20.794   1.544  28.347  0.00  0.00    -0.293 N 
ATOM     12  C13 UNL     1      21.394   0.784  29.409  0.00  0.00    +0.250 C 
ATOM     13  O2  UNL     1      22.325  -0.026  29.151  0.00  0.00    -0.270 OA
ENDROOT
BRANCH  12  14
ATOM     14  C14 UNL     1      20.924   0.904  30.798  0.00  0.00    +0.077 A 
ATOM     15  C15 UNL     1      20.032   0.056  31.420  0.00  0.00    +0.054 A 
ATOM     16  C16 UNL     1      19.912   0.520  32.714  0.00  0.00    +0.196 A 
ATOM     17  O3  UNL     1      20.693   1.563  32.888  0.00  0.00    -0.467 OA
ATOM     18  C17 UNL     1      21.324   1.814  31.765  0.00  0.00    +0.114 A 
ATOM     19  C18 UNL     1      22.336   2.906  31.621  0.00  0.00    +0.087 C 
ENDBRANCH  12  14
BRANCH   1  20
ATOM     20  C4  UNL     1      19.540   4.425  23.100  0.00  0.00    +0.100 C 
BRANCH  20  21
ATOM     21  C3  UNL     1      20.248   4.271  21.745  0.00  0.00    +0.036 C 
BRANCH  21  23
ATOM     22  C1  UNL     1      21.886   5.534  20.371  0.00  0.00    +0.004 C 
ATOM     23  C2  UNL     1      21.297   5.331  21.554  0.00  0.00    -0.034 C 
ENDBRANCH  21  23
ENDBRANCH  20  21
ENDBRANCH   1  20
TORSDOF 4
ENDMDL
MODEL 2
REMARK VINA RESULT:    -5.748     11.371     12.322
REMARK INTER + INTRA:          -7.574
REMARK INTER:                  -6.955
REMARK INTRA:                  -0.618
REMARK UNBOUND:                -0.482
REMARK  Name = /home/qwerty/github/datacon2025hack/step_04_hit_selection/docking/ligands/lig_420.pdb
REMARK  5 active torsions:
REMARK  status: ('A' for Active; 'I' for Inactive)
REMARK    1  A    between atoms: C2_2  and  C3_3
REMARK    2  A    between atoms: C3_3  and  C4_4
REMARK    3  A    between atoms: C4_4  and  C5_5
REMARK    4  A    between atoms: C13_16  and  C14_18
REMARK    5  A    between atoms: C17_22  and  C18_23
REMARK                            x       y       z     vdW  Elec       q    Type
REMARK                         _______ _______ _______ _____ _____    ______ ____
ROOT
ATOM      1  C5  UNL     1      22.703  13.446  21.284  0.00  0.00    +0.216 C 
ATOM      2  O1  UNL     1      22.509  12.200  21.313  0.00  0.00    -0.276 OA
ATOM      3  N1  UNL     1      23.202  14.115  22.466  0.00  0.00    -0.297 N 
ATOM      4  C6  UNL     1      23.837  15.438  22.335  0.00  0.00    +0.108 C 
ATOM      5  C7  UNL     1      24.806  15.724  23.476  0.00  0.00    +0.021 C 
ATOM      6  C8  UNL     1      24.093  15.548  24.804  0.00  0.00    +0.026 C 
ATOM      7  C9  UNL     1      23.672  14.087  24.984  0.00  0.00    +0.097 C 
ATOM      8  C10 UNL     1      22.900  13.511  23.783  0.00  0.00    +0.098 C 
ATOM      9  C11 UNL     1      21.424  13.668  24.152  0.00  0.00    +0.043 C 
ATOM     10  C12 UNL     1      21.394  13.636  25.675  0.00  0.00    +0.110 C 
ATOM     11  N2  UNL     1      22.741  13.988  26.102  0.00  0.00    -0.293 N 
ATOM     12  C13 UNL     1      23.161  13.969  27.477  0.00  0.00    +0.250 C 
ATOM     13  O2  UNL     1      24.354  13.684  27.763  0.00  0.00    -0.270 OA
ENDROOT
BRANCH  12  14
ATOM     14  C14 UNL     1      22.216  14.246  28.571  0.00  0.00    +0.077 A 
ATOM     15  C15 UNL     1      21.863  13.364  29.569  0.00  0.00    +0.054 A 
ATOM     16  C16 UNL     1      20.993  14.053  30.389  0.00  0.00    +0.196 A 
ATOM     17  O3  UNL     1      20.838  15.280  29.945  0.00  0.00    -0.467 OA
ATOM     18  C17 UNL     1      21.568  15.436  28.864  0.00  0.00    +0.114 A 
ATOM     19  C18 UNL     1      21.670  16.733  28.127  0.00  0.00    +0.087 C 
ENDBRANCH  12  14
BRANCH   1  20
ATOM     20  C4  UNL     1      22.457  14.197  19.996  0.00  0.00    +0.100 C 
BRANCH  20  21
ATOM     21  C3  UNL     1      20.979  14.572  19.816  0.00  0.00    +0.036 C 
BRANCH  21  23
ATOM     22  C1  UNL     1      19.500  12.660  19.247  0.00  0.00    +0.004 C 
ATOM     23  C2  UNL     1      20.299  13.653  18.840  0.00  0.00    -0.034 C 
ENDBRANCH  21  23
ENDBRANCH  20  21
ENDBRANCH   1  20
TORSDOF 4
ENDMDL
MODEL 3
REMARK VINA RESULT:    -5.734     11.323     14.043
REMARK INTER + INTRA:          -7.556
REMARK INTER:                  -7.034
REMARK INTRA:                  -0.522
REMARK UNBOUND:                -0.482
REMARK  Name = /home/qwerty/github/datacon2025hack/step_04_hit_selection/docking/ligands/lig_420.pdb
REMARK  5 active torsions:
REMARK  status: ('A' for Active; 'I' for Inactive)
REMARK    1  A    between atoms: C2_2  and  C3_3
REMARK    2  A    between atoms: C3_3  and  C4_4
REMARK    3  A    between atoms: C4_4  and  C5_5
REMARK    4  A    between atoms: C13_16  and  C14_18
REMARK    5  A    between atoms: C17_22  and  C18_23
REMARK                            x       y       z     vdW  Elec       q    Type
REMARK                         _______ _______ _______ _____ _____    ______ ____
ROOT
ATOM      1  C5  UNL     1      21.990  15.982  24.890  0.00  0.00    +0.216 C 
ATOM      2  O1  UNL     1      20.829  16.474  24.947  0.00  0.00    -0.276 OA
ATOM      3  N1  UNL     1      22.460  15.411  23.647  0.00  0.00    -0.297 N 
ATOM      4  C6  UNL     1      23.906  15.240  23.430  0.00  0.00    +0.108 C 
ATOM      5  C7  UNL     1      24.265  15.217  21.950  0.00  0.00    +0.021 C 
ATOM      6  C8  UNL     1      23.441  14.157  21.243  0.00  0.00    +0.026 C 
ATOM      7  C9  UNL     1      21.956  14.527  21.296  0.00  0.00    +0.097 C 
ATOM      8  C10 UNL     1      21.450  14.867  22.710  0.00  0.00    +0.098 C 
ATOM      9  C11 UNL     1      20.838  13.568  23.233  0.00  0.00    +0.043 C 
ATOM     10  C12 UNL     1      20.382  12.819  21.986  0.00  0.00    +0.110 C 
ATOM     11  N2  UNL     1      21.158  13.377  20.887  0.00  0.00    -0.293 N 
ATOM     12  C13 UNL     1      20.951  13.011  19.512  0.00  0.00    +0.250 C 
ATOM     13  O2  UNL     1      21.153  13.858  18.602  0.00  0.00    -0.270 OA
ENDROOT
BRANCH  12  14
ATOM     14  C14 UNL     1      20.476  11.669  19.139  0.00  0.00    +0.077 A 
ATOM     15  C15 UNL     1      21.277  10.587  18.846  0.00  0.00    +0.054 A 
ATOM     16  C16 UNL     1      20.416   9.539  18.593  0.00  0.00    +0.196 A 
ATOM     17  O3  UNL     1      19.172   9.937  18.744  0.00  0.00    -0.467 OA
ATOM     18  C17 UNL     1      19.171  11.205  19.085  0.00  0.00    +0.114 A 
ATOM     19  C18 UNL     1      17.921  11.968  19.390  0.00  0.00    +0.087 C 
ENDBRANCH  12  14
BRANCH   1  20
ATOM     20  C4  UNL     1      22.876  16.050  26.113  0.00  0.00    +0.100 C 
BRANCH  20  21
ATOM     21  C3  UNL     1      22.601  14.902  27.095  0.00  0.00    +0.036 C 
BRANCH  21  23
ATOM     22  C1  UNL     1      24.304  13.437  28.151  0.00  0.00    +0.004 C 
ATOM     23  C2  UNL     1      23.691  13.868  27.044  0.00  0.00    -0.034 C 
ENDBRANCH  21  23
ENDBRANCH  20  21
ENDBRANCH   1  20
TORSDOF 4
ENDMDL
MODEL 4
REMARK VINA RESULT:    -5.683     13.700     15.132
REMARK INTER + INTRA:          -7.494
REMARK INTER:                  -7.107
REMARK INTRA:                  -0.387
REMARK UNBOUND:                -0.482
REMARK  Name = /home/qwerty/github/datacon2025hack/step_04_hit_selection/docking/ligands/lig_420.pdb
REMARK  5 active torsions:
REMARK  status: ('A' for Active; 'I' for Inactive)
REMARK    1  A    between atoms: C2_2  and  C3_3
REMARK    2  A    between atoms: C3_3  and  C4_4
REMARK    3  A    between atoms: C4_4  and  C5_5
REMARK    4  A    between atoms: C13_16  and  C14_18
REMARK    5  A    between atoms: C17_22  and  C18_23
REMARK                            x       y       z     vdW  Elec       q    Type
REMARK                         _______ _______ _______ _____ _____    ______ ____
ROOT
ATOM      1  C5  UNL     1       8.164   8.004  26.021  0.00  0.00    +0.216 C 
ATOM      2  O1  UNL     1       8.365   8.560  24.906  0.00  0.00    -0.276 OA
ATOM      3  N1  UNL     1       8.007   8.822  27.205  0.00  0.00    -0.297 N 
ATOM      4  C6  UNL     1       7.353   8.253  28.395  0.00  0.00    +0.108 C 
ATOM      5  C7  UNL     1       6.736   9.329  29.280  0.00  0.00    +0.021 C 
ATOM      6  C8  UNL     1       7.789  10.364  29.631  0.00  0.00    +0.026 C 
ATOM      7  C9  UNL     1       8.251  11.092  28.366  0.00  0.00    +0.097 C 
ATOM      8  C10 UNL     1       8.665  10.148  27.222  0.00  0.00    +0.098 C 
ATOM      9  C11 UNL     1      10.183  10.024  27.343  0.00  0.00    +0.043 C 
ATOM     10  C12 UNL     1      10.634  11.326  27.994  0.00  0.00    +0.110 C 
ATOM     11  N2  UNL     1       9.455  11.859  28.663  0.00  0.00    -0.293 N 
ATOM     12  C13 UNL     1       9.431  13.141  29.315  0.00  0.00    +0.250 C 
ATOM     13  O2  UNL     1       8.364  13.811  29.338  0.00  0.00    -0.270 OA
ENDROOT
BRANCH  12  14
ATOM     14  C14 UNL     1      10.639  13.709  29.933  0.00  0.00    +0.077 A 
ATOM     15  C15 UNL     1      11.030  13.532  31.243  0.00  0.00    +0.054 A 
ATOM     16  C16 UNL     1      12.228  14.203  31.372  0.00  0.00    +0.196 A 
ATOM     17  O3  UNL     1      12.568  14.736  30.219  0.00  0.00    -0.467 OA
ATOM     18  C17 UNL     1      11.645  14.448  29.330  0.00  0.00    +0.114 A 
ATOM     19  C18 UNL     1      11.740  14.854  27.893  0.00  0.00    +0.087 C 
ENDBRANCH  12  14
BRANCH   1  20
ATOM     20  C4  UNL     1       8.041   6.499  26.079  0.00  0.00    +0.100 C 
BRANCH  20  21
ATOM     21  C3  UNL     1       8.664   5.818  24.852  0.00  0.00    +0.036 C 
BRANCH  21  23
ATOM     22  C1  UNL     1       7.540   4.328  23.213  0.00  0.00    +0.004 C 
ATOM     23  C2  UNL     1       7.907   4.575  24.475  0.00  0.00    -0.034 C 
ENDBRANCH  21  23
ENDBRANCH  20  21
ENDBRANCH   1  20
TORSDOF 4
ENDMDL
MODEL 5
REMARK VINA RESULT:    -5.637      1.616      2.305
REMARK INTER + INTRA:          -7.437
REMARK INTER:                  -7.111
REMARK INTRA:                  -0.325
REMARK UNBOUND:                -0.482
REMARK  Name = /home/qwerty/github/datacon2025hack/step_04_hit_selection/docking/ligands/lig_420.pdb
REMARK  5 active torsions:
REMARK  status: ('A' for Active; 'I' for Inactive)
REMARK    1  A    between atoms: C2_2  and  C3_3
REMARK    2  A    between atoms: C3_3  and  C4_4
REMARK    3  A    between atoms: C4_4  and  C5_5
REMARK    4  A    between atoms: C13_16  and  C14_18
REMARK    5  A    between atoms: C17_22  and  C18_23
REMARK                            x       y       z     vdW  Elec       q    Type
REMARK                         _______ _______ _______ _____ _____    ______ ____
ROOT
ATOM      1  C5  UNL     1      19.186   2.118  24.356  0.00  0.00    +0.216 C 
ATOM      2  O1  UNL     1      18.557   1.030  24.478  0.00  0.00    -0.276 OA
ATOM      3  N1  UNL     1      20.307   2.393  25.228  0.00  0.00    -0.297 N 
ATOM      4  C6  UNL     1      21.298   3.408  24.833  0.00  0.00    +0.108 C 
ATOM      5  C7  UNL     1      22.654   3.169  25.485  0.00  0.00    +0.021 C 
ATOM      6  C8  UNL     1      22.485   3.073  26.991  0.00  0.00    +0.026 C 
ATOM      7  C9  UNL     1      21.640   1.846  27.346  0.00  0.00    +0.097 C 
ATOM      8  C10 UNL     1      20.316   1.756  26.564  0.00  0.00    +0.098 C 
ATOM      9  C11 UNL     1      19.269   2.373  27.491  0.00  0.00    +0.043 C 
ATOM     10  C12 UNL     1      19.804   2.141  28.899  0.00  0.00    +0.110 C 
ATOM     11  N2  UNL     1      21.237   1.928  28.745  0.00  0.00    -0.293 N 
ATOM     12  C13 UNL     1      22.101   1.568  29.836  0.00  0.00    +0.250 C 
ATOM     13  O2  UNL     1      23.108   0.841  29.623  0.00  0.00    -0.270 OA
ENDROOT
BRANCH  12  14
ATOM     14  C14 UNL     1      21.821   2.006  31.212  0.00  0.00    +0.077 A 
ATOM     15  C15 UNL     1      22.345   3.126  31.821  0.00  0.00    +0.054 A 
ATOM     16  C16 UNL     1      21.784   3.166  33.081  0.00  0.00    +0.196 A 
ATOM     17  O3  UNL     1      20.953   2.158  33.232  0.00  0.00    -0.467 OA
ATOM     18  C17 UNL     1      20.940   1.449  32.127  0.00  0.00    +0.114 A 
ATOM     19  C18 UNL     1      20.061   0.255  31.932  0.00  0.00    +0.087 C 
ENDBRANCH  12  14
BRANCH   1  20
ATOM     20  C4  UNL     1      18.780   3.080  23.264  0.00  0.00    +0.100 C 
BRANCH  20  21
ATOM     21  C3  UNL     1      17.380   2.774  22.711  0.00  0.00    +0.036 C 
BRANCH  21  23
ATOM     22  C1  UNL     1      16.525   2.656  20.382  0.00  0.00    +0.004 C 
ATOM     23  C2  UNL     1      17.213   3.318  21.319  0.00  0.00    -0.034 C 
ENDBRANCH  21  23
ENDBRANCH  20  21
ENDBRANCH   1  20
TORSDOF 4
ENDMDL
MODEL 6
REMARK VINA RESULT:    -5.631     13.557     15.126
REMARK INTER + INTRA:          -7.429
REMARK INTER:                  -6.781
REMARK INTRA:                  -0.649
REMARK UNBOUND:                -0.482
REMARK  Name = /home/qwerty/github/datacon2025hack/step_04_hit_selection/docking/ligands/lig_420.pdb
REMARK  5 active torsions:
REMARK  status: ('A' for Active; 'I' for Inactive)
REMARK    1  A    between atoms: C2_2  and  C3_3
REMARK    2  A    between atoms: C3_3  and  C4_4
REMARK    3  A    between atoms: C4_4  and  C5_5
REMARK    4  A    between atoms: C13_16  and  C14_18
REMARK    5  A    between atoms: C17_22  and  C18_23
REMARK                            x       y       z     vdW  Elec       q    Type
REMARK                         _______ _______ _______ _____ _____    ______ ____
ROOT
ATOM      1  C5  UNL     1      14.836  14.013  29.890  0.00  0.00    +0.216 C 
ATOM      2  O1  UNL     1      14.757  14.010  31.150  0.00  0.00    -0.276 OA
ATOM      3  N1  UNL     1      13.623  13.994  29.102  0.00  0.00    -0.297 N 
ATOM      4  C6  UNL     1      13.666  14.430  27.696  0.00  0.00    +0.108 C 
ATOM      5  C7  UNL     1      12.310  14.919  27.205  0.00  0.00    +0.021 C 
ATOM      6  C8  UNL     1      11.263  13.848  27.452  0.00  0.00    +0.026 C 
ATOM      7  C9  UNL     1      11.093  13.618  28.956  0.00  0.00    +0.097 C 
ATOM      8  C10 UNL     1      12.418  13.374  29.701  0.00  0.00    +0.098 C 
ATOM      9  C11 UNL     1      12.548  11.854  29.786  0.00  0.00    +0.043 C 
ATOM     10  C12 UNL     1      11.116  11.335  29.766  0.00  0.00    +0.110 C 
ATOM     11  N2  UNL     1      10.320  12.400  29.172  0.00  0.00    -0.293 N 
ATOM     12  C13 UNL     1       8.887  12.348  29.067  0.00  0.00    +0.250 C 
ATOM     13  O2  UNL     1       8.216  13.413  29.132  0.00  0.00    -0.270 OA
ENDROOT
BRANCH  12  14
ATOM     14  C14 UNL     1       8.176  11.069  28.917  0.00  0.00    +0.077 A 
ATOM     15  C15 UNL     1       7.543  10.379  29.928  0.00  0.00    +0.054 A 
ATOM     16  C16 UNL     1       6.983   9.268  29.332  0.00  0.00    +0.196 A 
ATOM     17  O3  UNL     1       7.230   9.282  28.040  0.00  0.00    -0.467 OA
ATOM     18  C17 UNL     1       7.931  10.355  27.754  0.00  0.00    +0.114 A 
ATOM     19  C18 UNL     1       8.342  10.715  26.362  0.00  0.00    +0.087 C 
ENDBRANCH  12  14
BRANCH   1  20
ATOM     20  C4  UNL     1      16.198  14.088  29.241  0.00  0.00    +0.100 C 
BRANCH  20  21
ATOM     21  C3  UNL     1      17.023  15.276  29.759  0.00  0.00    +0.036 C 
BRANCH  21  23
ATOM     22  C1  UNL     1      16.554  16.793  27.849  0.00  0.00    +0.004 C 
ATOM     23  C2  UNL     1      16.542  16.572  29.168  0.00  0.00    -0.034 C 
ENDBRANCH  21  23
ENDBRANCH  20  21
ENDBRANCH   1  20
TORSDOF 4
ENDMDL
MODEL 7
REMARK VINA RESULT:    -5.568     12.868     15.530
REMARK INTER + INTRA:          -7.352
REMARK INTER:                  -6.527
REMARK INTRA:                  -0.825
REMARK UNBOUND:                -0.482
REMARK  Name = /home/qwerty/github/datacon2025hack/step_04_hit_selection/docking/ligands/lig_420.pdb
REMARK  5 active torsions:
REMARK  status: ('A' for Active; 'I' for Inactive)
REMARK    1  A    between atoms: C2_2  and  C3_3
REMARK    2  A    between atoms: C3_3  and  C4_4
REMARK    3  A    between atoms: C4_4  and  C5_5
REMARK    4  A    between atoms: C13_16  and  C14_18
REMARK    5  A    between atoms: C17_22  and  C18_23
REMARK                            x       y       z     vdW  Elec       q    Type
REMARK                         _______ _______ _______ _____ _____    ______ ____
ROOT
ATOM      1  C5  UNL     1      10.227  10.100  28.856  0.00  0.00    +0.216 C 
ATOM      2  O1  UNL     1      11.411   9.678  28.968  0.00  0.00    -0.276 OA
ATOM      3  N1  UNL     1       9.452   9.739  27.689  0.00  0.00    -0.297 N 
ATOM      4  C6  UNL     1       7.983   9.841  27.737  0.00  0.00    +0.108 C 
ATOM      5  C7  UNL     1       7.311   8.906  26.739  0.00  0.00    +0.021 C 
ATOM      6  C8  UNL     1       7.868   9.160  25.350  0.00  0.00    +0.026 C 
ATOM      7  C9  UNL     1       9.356   8.799  25.308  0.00  0.00    +0.097 C 
ATOM      8  C10 UNL     1      10.183   9.442  26.436  0.00  0.00    +0.098 C 
ATOM      9  C11 UNL     1      10.780  10.706  25.817  0.00  0.00    +0.043 C 
ATOM     10  C12 UNL     1      10.887  10.400  24.328  0.00  0.00    +0.110 C 
ATOM     11  N2  UNL     1       9.943   9.319  24.079  0.00  0.00    -0.293 N 
ATOM     12  C13 UNL     1       9.815   8.664  22.806  0.00  0.00    +0.250 C 
ATOM     13  O2  UNL     1       9.495   7.446  22.758  0.00  0.00    -0.270 OA
ENDROOT
BRANCH  12  14
ATOM     14  C14 UNL     1      10.080   9.377  21.546  0.00  0.00    +0.077 A 
ATOM     15  C15 UNL     1      11.106   9.101  20.668  0.00  0.00    +0.054 A 
ATOM     16  C16 UNL     1      10.948   9.981  19.617  0.00  0.00    +0.196 A 
ATOM     17  O3  UNL     1       9.886  10.730  19.818  0.00  0.00    -0.467 OA
ATOM     18  C17 UNL     1       9.333  10.386  20.958  0.00  0.00    +0.114 A 
ATOM     19  C18 UNL     1       8.071  11.001  21.472  0.00  0.00    +0.087 C 
ENDBRANCH  12  14
BRANCH   1  20
ATOM     20  C4  UNL     1       9.636  10.932  29.971  0.00  0.00    +0.100 C 
BRANCH  20  21
ATOM     21  C3  UNL     1       9.961  12.425  29.817  0.00  0.00    +0.036 C 
BRANCH  21  23
ATOM     22  C1  UNL     1       8.932  13.523  27.841  0.00  0.00    +0.004 C 
ATOM     23  C2  UNL     1       8.845  13.157  29.124  0.00  0.00    -0.034 C 
ENDBRANCH  21  23
ENDBRANCH  20  21
ENDBRANCH   1  20
TORSDOF 4
ENDMDL
MODEL 8
REMARK VINA RESULT:    -5.567     13.862     14.783
REMARK INTER + INTRA:          -7.351
REMARK INTER:                  -6.558
REMARK INTRA:                  -0.792
REMARK UNBOUND:                -0.482
REMARK  Name = /home/qwerty/github/datacon2025hack/step_04_hit_selection/docking/ligands/lig_420.pdb
REMARK  5 active torsions:
REMARK  status: ('A' for Active; 'I' for Inactive)
REMARK    1  A    between atoms: C2_2  and  C3_3
REMARK    2  A    between atoms: C3_3  and  C4_4
REMARK    3  A    between atoms: C4_4  and  C5_5
REMARK    4  A    between atoms: C13_16  and  C14_18
REMARK    5  A    between atoms: C17_22  and  C18_23
REMARK                            x       y       z     vdW  Elec       q    Type
REMARK                         _______ _______ _______ _____ _____    ______ ____
ROOT
ATOM      1  C5  UNL     1      11.879  11.924  28.598  0.00  0.00    +0.216 C 
ATOM      2  O1  UNL     1      12.412  10.784  28.499  0.00  0.00    -0.276 OA
ATOM      3  N1  UNL     1      12.081  12.700  29.802  0.00  0.00    -0.297 N 
ATOM      4  C6  UNL     1      11.854  14.155  29.771  0.00  0.00    +0.108 C 
ATOM      5  C7  UNL     1      12.648  14.882  30.849  0.00  0.00    +0.021 C 
ATOM      6  C8  UNL     1      12.339  14.273  32.205  0.00  0.00    +0.026 C 
ATOM      7  C9  UNL     1      12.825  12.822  32.250  0.00  0.00    +0.097 C 
ATOM      8  C10 UNL     1      12.345  11.969  31.062  0.00  0.00    +0.098 C 
ATOM      9  C11 UNL     1      11.096  11.251  31.572  0.00  0.00    +0.043 C 
ATOM     10  C12 UNL     1      11.295  11.136  33.078  0.00  0.00    +0.110 C 
ATOM     11  N2  UNL     1      12.267  12.164  33.425  0.00  0.00    -0.293 N 
ATOM     12  C13 UNL     1      12.810  12.319  34.748  0.00  0.00    +0.250 C 
ATOM     13  O2  UNL     1      13.988  12.742  34.894  0.00  0.00    -0.270 OA
ENDROOT
BRANCH  12  14
ATOM     14  C14 UNL     1      12.029  11.964  35.943  0.00  0.00    +0.077 A 
ATOM     15  C15 UNL     1      12.311  10.928  36.807  0.00  0.00    +0.054 A 
ATOM     16  C16 UNL     1      11.350  10.991  37.796  0.00  0.00    +0.196 A 
ATOM     17  O3  UNL     1      10.548  12.009  37.574  0.00  0.00    -0.467 OA
ATOM     18  C17 UNL     1      10.933  12.623  36.479  0.00  0.00    +0.114 A 
ATOM     19  C18 UNL     1      10.273  13.860  35.960  0.00  0.00    +0.087 C 
ENDBRANCH  12  14
BRANCH   1  20
ATOM     20  C4  UNL     1      11.086  12.466  27.432  0.00  0.00    +0.100 C 
BRANCH  20  21
ATOM     21  C3  UNL     1       9.649  11.926  27.405  0.00  0.00    +0.036 C 
BRANCH  21  23
ATOM     22  C1  UNL     1       8.076  12.105  29.319  0.00  0.00    +0.004 C 
ATOM     23  C2  UNL     1       8.757  12.702  28.335  0.00  0.00    -0.034 C 
ENDBRANCH  21  23
ENDBRANCH  20  21
ENDBRANCH   1  20
TORSDOF 4
ENDMDL
MODEL 9
REMARK VINA RESULT:    -5.470      8.773     12.130
REMARK INTER + INTRA:          -7.231
REMARK INTER:                  -6.688
REMARK INTRA:                  -0.543
REMARK UNBOUND:                -0.482
REMARK  Name = /home/qwerty/github/datacon2025hack/step_04_hit_selection/docking/ligands/lig_420.pdb
REMARK  5 active torsions:
REMARK  status: ('A' for Active; 'I' for Inactive)
REMARK    1  A    between atoms: C2_2  and  C3_3
REMARK    2  A    between atoms: C3_3  and  C4_4
REMARK    3  A    between atoms: C4_4  and  C5_5
REMARK    4  A    between atoms: C13_16  and  C14_18
REMARK    5  A    between atoms: C17_22  and  C18_23
REMARK                            x       y       z     vdW  Elec       q    Type
REMARK                         _______ _______ _______ _____ _____    ______ ____
ROOT
ATOM      1  C5  UNL     1      18.420  11.360  36.689  0.00  0.00    +0.216 C 
ATOM      2  O1  UNL     1      19.204  12.347  36.642  0.00  0.00    -0.276 OA
ATOM      3  N1  UNL     1      18.963  10.027  36.835  0.00  0.00    -0.297 N 
ATOM      4  C6  UNL     1      18.096   8.941  37.322  0.00  0.00    +0.108 C 
ATOM      5  C7  UNL     1      18.893   7.820  37.977  0.00  0.00    +0.021 C 
ATOM      6  C8  UNL     1      19.960   7.327  37.017  0.00  0.00    +0.026 C 
ATOM      7  C9  UNL     1      20.974   8.442  36.743  0.00  0.00    +0.097 C 
ATOM      8  C10 UNL     1      20.331   9.777  36.325  0.00  0.00    +0.098 C 
ATOM      9  C11 UNL     1      20.373   9.774  34.797  0.00  0.00    +0.043 C 
ATOM     10  C12 UNL     1      21.567   8.898  34.439  0.00  0.00    +0.110 C 
ATOM     11  N2  UNL     1      21.809   8.065  35.609  0.00  0.00    -0.293 N 
ATOM     12  C13 UNL     1      22.925   7.165  35.717  0.00  0.00    +0.250 C 
ATOM     13  O2  UNL     1      23.441   6.941  36.845  0.00  0.00    -0.270 OA
ENDROOT
BRANCH  12  14
ATOM     14  C14 UNL     1      23.504   6.516  34.531  0.00  0.00    +0.077 A 
ATOM     15  C15 UNL     1      24.760   6.758  34.016  0.00  0.00    +0.054 A 
ATOM     16  C16 UNL     1      24.895   5.908  32.938  0.00  0.00    +0.196 A 
ATOM     17  O3  UNL     1      23.811   5.175  32.809  0.00  0.00    -0.467 OA
ATOM     18  C17 UNL     1      22.962   5.503  33.755  0.00  0.00    +0.114 A 
ATOM     19  C18 UNL     1      21.641   4.825  33.938  0.00  0.00    +0.087 C 
ENDBRANCH  12  14
BRANCH   1  20
ATOM     20  C4  UNL     1      16.930  11.604  36.643  0.00  0.00    +0.100 C 
BRANCH  20  21
ATOM     21  C3  UNL     1      16.567  13.051  37.011  0.00  0.00    +0.036 C 
BRANCH  21  23
ATOM     22  C1  UNL     1      16.344  13.490  34.577  0.00  0.00    +0.004 C 
ATOM     23  C2  UNL     1      15.990  13.785  35.832  0.00  0.00    -0.034 C 
ENDBRANCH  21  23
ENDBRANCH  20  21
ENDBRANCH   1  20
TORSDOF 4
ENDMDL
