REMARK  Name = /home/qwerty/github/datacon2025hack/step_04_hit_selection/docking/ligands/lig_639.pdb
REMARK  4 active torsions:
REMARK  status: ('A' for Active; 'I' for Inactive)
REMARK    1  A    between atoms: C1_1  and  C2_2
REMARK    2  A    between atoms: C7_8  and  N1_9
REMARK    3  A    between atoms: N2_12  and  C9_13
REMARK    4  A    between atoms: C13_18  and  C14_19
REMARK                            x       y       z     vdW  Elec       q    Type
REMARK                         _______ _______ _______ _____ _____    ______ ____
ROOT
ATOM      1  N1  UNL     1       3.770   1.055   0.539  0.00  0.00    -0.269 N 
ATOM      2  C8  UNL     1       2.514   0.404   0.305  0.00  0.00    +0.308 C 
ATOM      3  O1  UNL     1       2.485  -0.813  -0.026  0.00  0.00    -0.252 OA
ATOM      4  N2  UNL     1       1.296   1.152   0.431  0.00  0.00    -0.267 N 
ATOM      5  H7  UNL     1       3.764   1.970   1.041  0.00  0.00    +0.156 HD
ATOM      6  H8  UNL     1       1.368   2.195   0.435  0.00  0.00    +0.156 HD
ENDROOT
BRANCH   4   7
ATOM      7  C9  UNL     1      -0.017   0.567   0.426  0.00  0.00    +0.071 A 
ATOM      8  C10 UNL     1      -0.275  -0.705   0.996  0.00  0.00    +0.138 A 
ATOM      9  N3  UNL     1      -1.539  -1.222   1.000  0.00  0.00    -0.234 NA
ATOM     10  C11 UNL     1      -2.542  -0.494   0.455  0.00  0.00    +0.156 A 
ATOM     11  C12 UNL     1      -3.872  -0.819   0.358  0.00  0.00    +0.073 A 
ATOM     12  C13 UNL     1      -4.420   0.303  -0.271  0.00  0.00    +0.069 A 
ATOM     13  N4  UNL     1      -3.459   1.226  -0.522  0.00  0.00    -0.170 NA
ATOM     14  N5  UNL     1      -2.327   0.716  -0.070  0.00  0.00    -0.220 N 
ATOM     15  C18 UNL     1      -1.101   1.289  -0.103  0.00  0.00    +0.139 A 
BRANCH  12  16
ATOM     16  C14 UNL     1      -5.868   0.506  -0.637  0.00  0.00    +0.040 C 
ATOM     17  C15 UNL     1      -6.840   0.251   0.513  0.00  0.00    +0.010 C 
ATOM     18  C16 UNL     1      -7.446  -0.912  -0.261  0.00  0.00    +0.001 C 
ATOM     19  C17 UNL     1      -6.482  -0.658  -1.412  0.00  0.00    +0.010 C 
ENDBRANCH  12  16
ENDBRANCH   4   7
BRANCH   1  27
ATOM     20  C1  UNL     1       4.605   0.135  -2.153  0.00  0.00    +0.045 C 
ATOM     21  C2  UNL     1       5.445  -0.068  -0.921  0.00  0.00    -0.029 A 
ATOM     22  C3  UNL     1       6.673  -0.741  -1.039  0.00  0.00    +0.008 A 
ATOM     23  C4  UNL     1       7.498  -0.913   0.075  0.00  0.00    +0.039 A 
ATOM     24  C5  UNL     1       7.106  -0.417   1.319  0.00  0.00    +0.125 A 
ATOM     25  F1  UNL     1       7.913  -0.576   2.397  0.00  0.00    -0.205 F 
ATOM     26  C6  UNL     1       5.879   0.237   1.456  0.00  0.00    +0.062 A 
ATOM     27  C7  UNL     1       5.029   0.392   0.352  0.00  0.00    +0.040 A 
ENDBRANCH   1  27
TORSDOF 3
