MODEL 1
REMARK VINA RESULT:    -7.058      0.000      0.000
REMARK INTER + INTRA:          -9.839
REMARK INTER:                  -9.122
REMARK INTRA:                  -0.718
REMARK UNBOUND:                -0.718
REMARK  Name = /home/qwerty/github/datacon2025hack/step_04_hit_selection/docking/ligands/lig_242.pdb
REMARK  8 active torsions:
REMARK  status: ('A' for Active; 'I' for Inactive)
REMARK    1  A    between atoms: C1_1  and  C2_2
REMARK    2  A    between atoms: C2_2  and  C3_3
REMARK    3  A    between atoms: C2_2  and  C4_4
REMARK    4  A    between atoms: N1_6  and  C5_7
REMARK    5  A    between atoms: C8_10  and  C9_11
REMARK    6  A    between atoms: C9_11  and  N2_12
REMARK    7  A    between atoms: N3_15  and  C11_16
REMARK    8  A    between atoms: N4_26  and  C20_27
REMARK                            x       y       z     vdW  Elec       q    Type
REMARK                         _______ _______ _______ _____ _____    ______ ____
ROOT
ATOM      1  N2  UNL     1      12.783  12.693  36.773  0.00  0.00    -0.295 N 
ATOM      2  C10 UNL     1      13.867  11.756  36.785  0.00  0.00    +0.304 C 
ATOM      3  O2  UNL     1      13.735  10.631  36.233  0.00  0.00    -0.252 OA
ATOM      4  N3  UNL     1      15.090  12.094  37.457  0.00  0.00    -0.269 N 
ATOM      5  H13 UNL     1      12.922  13.633  37.208  0.00  0.00    +0.151 HD
ATOM      6  H14 UNL     1      15.064  12.886  38.141  0.00  0.00    +0.156 HD
ENDROOT
BRANCH   4   7
ATOM      7  C11 UNL     1      16.308  11.339  37.341  0.00  0.00    +0.035 A 
ATOM      8  C12 UNL     1      16.634  10.333  38.263  0.00  0.00    +0.025 A 
ATOM      9  C13 UNL     1      17.807   9.588  38.113  0.00  0.00    +0.025 A 
ATOM     10  C14 UNL     1      18.675   9.827  37.031  0.00  0.00    +0.039 A 
ATOM     11  C15 UNL     1      18.351  10.845  36.109  0.00  0.00    -0.024 A 
ATOM     12  C16 UNL     1      17.161  11.573  36.254  0.00  0.00    +0.028 A 
ATOM     13  C17 UNL     1      19.248  11.092  34.925  0.00  0.00    +0.046 C 
ATOM     14  C18 UNL     1      20.721  10.910  35.301  0.00  0.00    +0.101 C 
ATOM     15  C19 UNL     1      20.927   9.597  35.998  0.00  0.00    +0.220 C 
ATOM     16  O3  UNL     1      22.028   8.996  35.869  0.00  0.00    -0.275 OA
ATOM     17  N4  UNL     1      19.892   9.064  36.850  0.00  0.00    -0.274 N 
ATOM     18  C20 UNL     1      20.102   7.791  37.552  0.00  0.00    +0.138 C 
ENDBRANCH   4   7
BRANCH   1  19
ATOM     19  C9  UNL     1      11.494  12.398  36.150  0.00  0.00    +0.141 C 
BRANCH  19  23
ATOM     20  C5  UNL     1      11.492  13.546  31.986  0.00  0.00    +0.033 A 
ATOM     21  C6  UNL     1      11.399  14.517  32.991  0.00  0.00    +0.023 A 
ATOM     22  C7  UNL     1      11.398  14.144  34.338  0.00  0.00    +0.007 A 
ATOM     23  C8  UNL     1      11.516  12.793  34.699  0.00  0.00    -0.030 A 
ATOM     24  C21 UNL     1      11.622  11.819  33.695  0.00  0.00    +0.007 A 
ATOM     25  C22 UNL     1      11.615  12.192  32.348  0.00  0.00    +0.023 A 
BRANCH  20  28
ATOM     26  C4  UNL     1      10.413  13.760  29.706  0.00  0.00    +0.220 C 
ATOM     27  O1  UNL     1       9.257  13.523  30.154  0.00  0.00    -0.275 OA
ATOM     28  N1  UNL     1      11.512  13.953  30.608  0.00  0.00    -0.285 N 
ATOM     29  H8  UNL     1      12.343  14.486  30.263  0.00  0.00    +0.155 HD
BRANCH  26  31
ATOM     30  C1  UNL     1      10.805  12.594  27.540  0.00  0.00    +0.017 C 
ATOM     31  C2  UNL     1      10.618  13.951  28.226  0.00  0.00    +0.069 C 
ATOM     32  C3  UNL     1      11.809  14.874  27.947  0.00  0.00    +0.017 C 
ENDBRANCH  26  31
ENDBRANCH  20  28
ENDBRANCH  19  23
ENDBRANCH   1  19
TORSDOF 5
ENDMDL
MODEL 2
REMARK VINA RESULT:    -6.881      2.929     10.192
REMARK INTER + INTRA:          -9.610
REMARK INTER:                  -9.169
REMARK INTRA:                  -0.441
REMARK UNBOUND:                -0.718
REMARK  Name = /home/qwerty/github/datacon2025hack/step_04_hit_selection/docking/ligands/lig_242.pdb
REMARK  8 active torsions:
REMARK  status: ('A' for Active; 'I' for Inactive)
REMARK    1  A    between atoms: C1_1  and  C2_2
REMARK    2  A    between atoms: C2_2  and  C3_3
REMARK    3  A    between atoms: C2_2  and  C4_4
REMARK    4  A    between atoms: N1_6  and  C5_7
REMARK    5  A    between atoms: C8_10  and  C9_11
REMARK    6  A    between atoms: C9_11  and  N2_12
REMARK    7  A    between atoms: N3_15  and  C11_16
REMARK    8  A    between atoms: N4_26  and  C20_27
REMARK                            x       y       z     vdW  Elec       q    Type
REMARK                         _______ _______ _______ _____ _____    ______ ____
ROOT
ATOM      1  N2  UNL     1      18.055   9.503  38.251  0.00  0.00    -0.295 N 
ATOM      2  C10 UNL     1      17.124  10.112  37.348  0.00  0.00    +0.304 C 
ATOM      3  O2  UNL     1      16.682   9.461  36.363  0.00  0.00    -0.252 OA
ATOM      4  N3  UNL     1      16.725  11.476  37.553  0.00  0.00    -0.269 N 
ATOM      5  H13 UNL     1      18.386  10.048  39.080  0.00  0.00    +0.151 HD
ATOM      6  H14 UNL     1      17.319  12.065  38.182  0.00  0.00    +0.156 HD
ENDROOT
BRANCH   4   7
ATOM      7  C11 UNL     1      15.639  12.111  36.857  0.00  0.00    +0.035 A 
ATOM      8  C12 UNL     1      15.873  13.066  35.855  0.00  0.00    +0.025 A 
ATOM      9  C13 UNL     1      14.804  13.646  35.167  0.00  0.00    +0.025 A 
ATOM     10  C14 UNL     1      13.477  13.277  35.459  0.00  0.00    +0.039 A 
ATOM     11  C15 UNL     1      13.243  12.322  36.472  0.00  0.00    -0.024 A 
ATOM     12  C16 UNL     1      14.322  11.729  37.142  0.00  0.00    +0.028 A 
ATOM     13  C17 UNL     1      11.833  11.887  36.774  0.00  0.00    +0.046 C 
ATOM     14  C18 UNL     1      10.856  13.059  36.655  0.00  0.00    +0.101 C 
ATOM     15  C19 UNL     1      11.042  13.768  35.345  0.00  0.00    +0.220 C 
ATOM     16  O3  UNL     1      10.049  14.321  34.797  0.00  0.00    -0.275 OA
ATOM     17  N4  UNL     1      12.354  13.859  34.754  0.00  0.00    -0.274 N 
ATOM     18  C20 UNL     1      12.541  14.573  33.484  0.00  0.00    +0.138 C 
ENDBRANCH   4   7
BRANCH   1  19
ATOM     19  C9  UNL     1      18.542   8.136  38.077  0.00  0.00    +0.141 C 
BRANCH  19  23
ATOM     20  C5  UNL     1      22.062   8.139  35.573  0.00  0.00    +0.033 A 
ATOM     21  C6  UNL     1      21.470   9.346  35.968  0.00  0.00    +0.023 A 
ATOM     22  C7  UNL     1      20.329   9.343  36.777  0.00  0.00    +0.007 A 
ATOM     23  C8  UNL     1      19.780   8.132  37.224  0.00  0.00    -0.030 A 
ATOM     24  C21 UNL     1      20.379   6.922  36.840  0.00  0.00    +0.007 A 
ATOM     25  C22 UNL     1      21.514   6.925  36.025  0.00  0.00    +0.023 A 
BRANCH  20  28
ATOM     26  C4  UNL     1      23.226   8.329  33.333  0.00  0.00    +0.220 C 
ATOM     27  O1  UNL     1      22.198   8.786  32.760  0.00  0.00    -0.275 OA
ATOM     28  N1  UNL     1      23.245   8.165  34.758  0.00  0.00    -0.285 N 
ATOM     29  H8  UNL     1      24.174   8.138  35.238  0.00  0.00    +0.155 HD
BRANCH  26  31
ATOM     30  C1  UNL     1      25.210   6.842  33.099  0.00  0.00    +0.017 C 
ATOM     31  C2  UNL     1      24.473   8.060  32.533  0.00  0.00    +0.069 C 
ATOM     32  C3  UNL     1      25.388   9.289  32.504  0.00  0.00    +0.017 C 
ENDBRANCH  26  31
ENDBRANCH  20  28
ENDBRANCH  19  23
ENDBRANCH   1  19
TORSDOF 5
ENDMDL
MODEL 3
REMARK VINA RESULT:    -6.833      9.694     14.763
REMARK INTER + INTRA:          -9.549
REMARK INTER:                  -8.871
REMARK INTRA:                  -0.677
REMARK UNBOUND:                -0.718
REMARK  Name = /home/qwerty/github/datacon2025hack/step_04_hit_selection/docking/ligands/lig_242.pdb
REMARK  8 active torsions:
REMARK  status: ('A' for Active; 'I' for Inactive)
REMARK    1  A    between atoms: C1_1  and  C2_2
REMARK    2  A    between atoms: C2_2  and  C3_3
REMARK    3  A    between atoms: C2_2  and  C4_4
REMARK    4  A    between atoms: N1_6  and  C5_7
REMARK    5  A    between atoms: C8_10  and  C9_11
REMARK    6  A    between atoms: C9_11  and  N2_12
REMARK    7  A    between atoms: N3_15  and  C11_16
REMARK    8  A    between atoms: N4_26  and  C20_27
REMARK                            x       y       z     vdW  Elec       q    Type
REMARK                         _______ _______ _______ _____ _____    ______ ____
ROOT
ATOM      1  N2  UNL     1       9.565   8.719  20.568  0.00  0.00    -0.295 N 
ATOM      2  C10 UNL     1      10.566   7.701  20.678  0.00  0.00    +0.304 C 
ATOM      3  O2  UNL     1      11.632   7.929  21.312  0.00  0.00    -0.252 OA
ATOM      4  N3  UNL     1      10.364   6.433  20.034  0.00  0.00    -0.269 N 
ATOM      5  H13 UNL     1       8.675   8.501  20.066  0.00  0.00    +0.151 HD
ATOM      6  H14 UNL     1       9.631   6.380  19.289  0.00  0.00    +0.156 HD
ENDROOT
BRANCH   4   7
ATOM      7  C11 UNL     1      11.183   5.274  20.263  0.00  0.00    +0.035 A 
ATOM      8  C12 UNL     1      12.264   4.967  19.422  0.00  0.00    +0.025 A 
ATOM      9  C13 UNL     1      13.068   3.854  19.681  0.00  0.00    +0.025 A 
ATOM     10  C14 UNL     1      12.815   3.029  20.794  0.00  0.00    +0.039 A 
ATOM     11  C15 UNL     1      11.723   3.334  21.634  0.00  0.00    -0.024 A 
ATOM     12  C16 UNL     1      10.934   4.465  21.379  0.00  0.00    +0.028 A 
ATOM     13  C17 UNL     1      11.457   2.485  22.849  0.00  0.00    +0.046 C 
ATOM     14  C18 UNL     1      11.752   1.010  22.568  0.00  0.00    +0.101 C 
ATOM     15  C19 UNL     1      13.116   0.853  21.962  0.00  0.00    +0.220 C 
ATOM     16  O3  UNL     1      13.774  -0.199  22.188  0.00  0.00    -0.275 OA
ATOM     17  N4  UNL     1      13.638   1.875  21.088  0.00  0.00    -0.274 N 
ATOM     18  C20 UNL     1      14.964   1.711  20.475  0.00  0.00    +0.138 C 
ENDBRANCH   4   7
BRANCH   1  19
ATOM     19  C9  UNL     1       9.724  10.048  21.156  0.00  0.00    +0.141 C 
BRANCH  19  23
ATOM     20  C5  UNL     1       8.478  10.065  25.292  0.00  0.00    +0.033 A 
ATOM     21  C6  UNL     1       7.528  10.030  24.263  0.00  0.00    +0.023 A 
ATOM     22  C7  UNL     1       7.932  10.027  22.926  0.00  0.00    +0.007 A 
ATOM     23  C8  UNL     1       9.297  10.032  22.598  0.00  0.00    -0.030 A 
ATOM     24  C21 UNL     1      10.252  10.055  23.626  0.00  0.00    +0.007 A 
ATOM     25  C22 UNL     1       9.846  10.066  24.964  0.00  0.00    +0.023 A 
BRANCH  20  28
ATOM     26  C4  UNL     1       8.148  11.174  27.544  0.00  0.00    +0.220 C 
ATOM     27  O1  UNL     1       8.327  12.333  27.077  0.00  0.00    -0.275 OA
ATOM     28  N1  UNL     1       8.041  10.049  26.660  0.00  0.00    -0.285 N 
ATOM     29  H8  UNL     1       7.550   9.194  27.010  0.00  0.00    +0.155 HD
BRANCH  26  31
ATOM     30  C1  UNL     1       9.282  10.847  29.737  0.00  0.00    +0.017 C 
ATOM     31  C2  UNL     1       7.934  10.987  29.023  0.00  0.00    +0.069 C 
ATOM     32  C3  UNL     1       7.039   9.775  29.304  0.00  0.00    +0.017 C 
ENDBRANCH  26  31
ENDBRANCH  20  28
ENDBRANCH  19  23
ENDBRANCH   1  19
TORSDOF 5
ENDMDL
MODEL 4
REMARK VINA RESULT:    -6.782     12.612     14.235
REMARK INTER + INTRA:          -9.482
REMARK INTER:                  -8.874
REMARK INTRA:                  -0.607
REMARK UNBOUND:                -0.718
REMARK  Name = /home/qwerty/github/datacon2025hack/step_04_hit_selection/docking/ligands/lig_242.pdb
REMARK  8 active torsions:
REMARK  status: ('A' for Active; 'I' for Inactive)
REMARK    1  A    between atoms: C1_1  and  C2_2
REMARK    2  A    between atoms: C2_2  and  C3_3
REMARK    3  A    between atoms: C2_2  and  C4_4
REMARK    4  A    between atoms: N1_6  and  C5_7
REMARK    5  A    between atoms: C8_10  and  C9_11
REMARK    6  A    between atoms: C9_11  and  N2_12
REMARK    7  A    between atoms: N3_15  and  C11_16
REMARK    8  A    between atoms: N4_26  and  C20_27
REMARK                            x       y       z     vdW  Elec       q    Type
REMARK                         _______ _______ _______ _____ _____    ______ ____
ROOT
ATOM      1  N2  UNL     1      22.804   6.386  23.336  0.00  0.00    -0.295 N 
ATOM      2  C10 UNL     1      22.042   5.515  24.181  0.00  0.00    +0.304 C 
ATOM      3  O2  UNL     1      21.261   4.666  23.673  0.00  0.00    -0.252 OA
ATOM      4  N3  UNL     1      22.150   5.636  25.608  0.00  0.00    -0.269 N 
ATOM      5  H13 UNL     1      23.470   7.061  23.775  0.00  0.00    +0.151 HD
ATOM      6  H14 UNL     1      22.563   6.519  25.988  0.00  0.00    +0.156 HD
ENDROOT
BRANCH   4   7
ATOM      7  C11 UNL     1      21.618   4.680  26.540  0.00  0.00    +0.035 A 
ATOM      8  C12 UNL     1      20.286   4.750  26.978  0.00  0.00    +0.025 A 
ATOM      9  C13 UNL     1      19.779   3.791  27.858  0.00  0.00    +0.025 A 
ATOM     10  C14 UNL     1      20.590   2.734  28.313  0.00  0.00    +0.039 A 
ATOM     11  C15 UNL     1      21.932   2.669  27.879  0.00  0.00    -0.024 A 
ATOM     12  C16 UNL     1      22.426   3.623  26.978  0.00  0.00    +0.028 A 
ATOM     13  C17 UNL     1      22.805   1.527  28.326  0.00  0.00    +0.046 C 
ATOM     14  C18 UNL     1      22.502   1.133  29.774  0.00  0.00    +0.101 C 
ATOM     15  C19 UNL     1      21.028   0.926  29.964  0.00  0.00    +0.220 C 
ATOM     16  O3  UNL     1      20.629   0.084  30.814  0.00  0.00    -0.275 OA
ATOM     17  N4  UNL     1      20.086   1.725  29.220  0.00  0.00    -0.274 N 
ATOM     18  C20 UNL     1      18.642   1.539  29.424  0.00  0.00    +0.138 C 
ENDBRANCH   4   7
BRANCH   1  19
ATOM     19  C9  UNL     1      22.708   6.351  21.878  0.00  0.00    +0.141 C 
BRANCH  19  23
ATOM     20  C5  UNL     1      21.342  10.147  20.333  0.00  0.00    +0.033 A 
ATOM     21  C6  UNL     1      20.470   9.315  21.047  0.00  0.00    +0.023 A 
ATOM     22  C7  UNL     1      20.913   8.086  21.545  0.00  0.00    +0.007 A 
ATOM     23  C8  UNL     1      22.244   7.683  21.357  0.00  0.00    -0.030 A 
ATOM     24  C21 UNL     1      23.123   8.520  20.653  0.00  0.00    +0.007 A 
ATOM     25  C22 UNL     1      22.678   9.745  20.148  0.00  0.00    +0.023 A 
BRANCH  20  28
ATOM     26  C4  UNL     1      20.848  12.611  20.639  0.00  0.00    +0.220 C 
ATOM     27  O1  UNL     1      21.542  12.690  21.691  0.00  0.00    -0.275 OA
ATOM     28  N1  UNL     1      20.872  11.414  19.847  0.00  0.00    -0.285 N 
ATOM     29  H8  UNL     1      20.602  11.486  18.839  0.00  0.00    +0.155 HD
BRANCH  26  31
ATOM     30  C1  UNL     1      20.541  14.195  18.742  0.00  0.00    +0.017 C 
ATOM     31  C2  UNL     1      20.083  13.814  20.153  0.00  0.00    +0.069 C 
ATOM     32  C3  UNL     1      20.238  14.995  21.117  0.00  0.00    +0.017 C 
ENDBRANCH  26  31
ENDBRANCH  20  28
ENDBRANCH  19  23
ENDBRANCH   1  19
TORSDOF 5
ENDMDL
MODEL 5
REMARK VINA RESULT:    -6.750     10.688     15.001
REMARK INTER + INTRA:          -9.441
REMARK INTER:                  -8.816
REMARK INTRA:                  -0.624
REMARK UNBOUND:                -0.718
REMARK  Name = /home/qwerty/github/datacon2025hack/step_04_hit_selection/docking/ligands/lig_242.pdb
REMARK  8 active torsions:
REMARK  status: ('A' for Active; 'I' for Inactive)
REMARK    1  A    between atoms: C1_1  and  C2_2
REMARK    2  A    between atoms: C2_2  and  C3_3
REMARK    3  A    between atoms: C2_2  and  C4_4
REMARK    4  A    between atoms: N1_6  and  C5_7
REMARK    5  A    between atoms: C8_10  and  C9_11
REMARK    6  A    between atoms: C9_11  and  N2_12
REMARK    7  A    between atoms: N3_15  and  C11_16
REMARK    8  A    between atoms: N4_26  and  C20_27
REMARK                            x       y       z     vdW  Elec       q    Type
REMARK                         _______ _______ _______ _____ _____    ______ ____
ROOT
ATOM      1  N2  UNL     1      21.233   0.433  29.455  0.00  0.00    -0.295 N 
ATOM      2  C10 UNL     1      20.725   1.142  28.318  0.00  0.00    +0.304 C 
ATOM      3  O2  UNL     1      19.635   1.769  28.401  0.00  0.00    -0.252 OA
ATOM      4  N3  UNL     1      21.447   1.105  27.078  0.00  0.00    -0.269 N 
ATOM      5  H13 UNL     1      22.154  -0.055  29.376  0.00  0.00    +0.151 HD
ATOM      6  H14 UNL     1      22.167   0.355  26.958  0.00  0.00    +0.156 HD
ENDROOT
BRANCH   4   7
ATOM      7  C11 UNL     1      21.158   1.952  25.953  0.00  0.00    +0.035 A 
ATOM      8  C12 UNL     1      20.267   1.550  24.946  0.00  0.00    +0.025 A 
ATOM      9  C13 UNL     1      19.974   2.402  23.878  0.00  0.00    +0.025 A 
ATOM     10  C14 UNL     1      20.559   3.680  23.798  0.00  0.00    +0.039 A 
ATOM     11  C15 UNL     1      21.461   4.080  24.807  0.00  0.00    -0.024 A 
ATOM     12  C16 UNL     1      21.733   3.228  25.886  0.00  0.00    +0.028 A 
ATOM     13  C17 UNL     1      22.070   5.457  24.758  0.00  0.00    +0.046 C 
ATOM     14  C18 UNL     1      22.374   5.876  23.318  0.00  0.00    +0.101 C 
ATOM     15  C19 UNL     1      21.169   5.677  22.446  0.00  0.00    +0.220 C 
ATOM     16  O3  UNL     1      20.986   6.445  21.463  0.00  0.00    -0.275 OA
ATOM     17  N4  UNL     1      20.265   4.583  22.705  0.00  0.00    -0.274 N 
ATOM     18  C20 UNL     1      19.098   4.373  21.838  0.00  0.00    +0.138 C 
ENDBRANCH   4   7
BRANCH   1  19
ATOM     19  C9  UNL     1      20.528   0.387  30.734  0.00  0.00    +0.141 C 
BRANCH  19  23
ATOM     20  C5  UNL     1      22.060   3.444  33.374  0.00  0.00    +0.033 A 
ATOM     21  C6  UNL     1      22.580   3.295  32.082  0.00  0.00    +0.023 A 
ATOM     22  C7  UNL     1      22.085   2.304  31.229  0.00  0.00    +0.007 A 
ATOM     23  C8  UNL     1      21.042   1.464  31.650  0.00  0.00    -0.030 A 
ATOM     24  C21 UNL     1      20.510   1.619  32.939  0.00  0.00    +0.007 A 
ATOM     25  C22 UNL     1      21.011   2.605  33.793  0.00  0.00    +0.023 A 
BRANCH  20  28
ATOM     26  C4  UNL     1      22.156   5.854  34.145  0.00  0.00    +0.220 C 
ATOM     27  O1  UNL     1      21.088   6.161  33.547  0.00  0.00    -0.275 OA
ATOM     28  N1  UNL     1      22.570   4.482  34.226  0.00  0.00    -0.285 N 
ATOM     29  H8  UNL     1      23.223   4.210  34.997  0.00  0.00    +0.155 HD
BRANCH  26  31
ATOM     30  C1  UNL     1      24.261   7.185  34.145  0.00  0.00    +0.017 C 
ATOM     31  C2  UNL     1      22.940   6.915  34.872  0.00  0.00    +0.069 C 
ATOM     32  C3  UNL     1      23.190   6.517  36.331  0.00  0.00    +0.017 C 
ENDBRANCH  26  31
ENDBRANCH  20  28
ENDBRANCH  19  23
ENDBRANCH   1  19
TORSDOF 5
ENDMDL
MODEL 6
REMARK VINA RESULT:    -6.592     12.746     14.737
REMARK INTER + INTRA:          -9.237
REMARK INTER:                  -8.660
REMARK INTRA:                  -0.577
REMARK UNBOUND:                -0.718
REMARK  Name = /home/qwerty/github/datacon2025hack/step_04_hit_selection/docking/ligands/lig_242.pdb
REMARK  8 active torsions:
REMARK  status: ('A' for Active; 'I' for Inactive)
REMARK    1  A    between atoms: C1_1  and  C2_2
REMARK    2  A    between atoms: C2_2  and  C3_3
REMARK    3  A    between atoms: C2_2  and  C4_4
REMARK    4  A    between atoms: N1_6  and  C5_7
REMARK    5  A    between atoms: C8_10  and  C9_11
REMARK    6  A    between atoms: C9_11  and  N2_12
REMARK    7  A    between atoms: N3_15  and  C11_16
REMARK    8  A    between atoms: N4_26  and  C20_27
REMARK                            x       y       z     vdW  Elec       q    Type
REMARK                         _______ _______ _______ _____ _____    ______ ____
ROOT
ATOM      1  N2  UNL     1      18.054  -0.690  23.269  0.00  0.00    -0.295 N 
ATOM      2  C10 UNL     1      18.164  -0.112  24.575  0.00  0.00    +0.304 C 
ATOM      3  O2  UNL     1      17.262  -0.314  25.432  0.00  0.00    -0.252 OA
ATOM      4  N3  UNL     1      19.289   0.722  24.890  0.00  0.00    -0.269 N 
ATOM      5  H13 UNL     1      18.828  -0.538  22.582  0.00  0.00    +0.151 HD
ATOM      6  H14 UNL     1      19.848   1.103  24.092  0.00  0.00    +0.156 HD
ENDROOT
BRANCH   4   7
ATOM      7  C11 UNL     1      19.618   1.163  26.219  0.00  0.00    +0.035 A 
ATOM      8  C12 UNL     1      18.821   2.098  26.896  0.00  0.00    +0.025 A 
ATOM      9  C13 UNL     1      19.139   2.488  28.200  0.00  0.00    +0.025 A 
ATOM     10  C14 UNL     1      20.258   1.943  28.859  0.00  0.00    +0.039 A 
ATOM     11  C15 UNL     1      21.064   1.009  28.173  0.00  0.00    -0.024 A 
ATOM     12  C16 UNL     1      20.724   0.607  26.873  0.00  0.00    +0.028 A 
ATOM     13  C17 UNL     1      22.244   0.387  28.873  0.00  0.00    +0.046 C 
ATOM     14  C18 UNL     1      22.940   1.399  29.786  0.00  0.00    +0.101 C 
ATOM     15  C19 UNL     1      21.942   2.071  30.684  0.00  0.00    +0.220 C 
ATOM     16  O3  UNL     1      22.303   2.450  31.831  0.00  0.00    -0.275 OA
ATOM     17  N4  UNL     1      20.604   2.325  30.211  0.00  0.00    -0.274 N 
ATOM     18  C20 UNL     1      19.634   3.005  31.081  0.00  0.00    +0.138 C 
ENDBRANCH   4   7
BRANCH   1  19
ATOM     19  C9  UNL     1      16.914  -1.510  22.863  0.00  0.00    +0.141 C 
BRANCH  19  23
ATOM     20  C5  UNL     1      13.828   1.040  21.240  0.00  0.00    +0.033 A 
ATOM     21  C6  UNL     1      15.031   0.851  20.547  0.00  0.00    +0.023 A 
ATOM     22  C7  UNL     1      16.030   0.027  21.074  0.00  0.00    +0.007 A 
ATOM     23  C8  UNL     1      15.828  -0.641  22.292  0.00  0.00    -0.030 A 
ATOM     24  C21 UNL     1      14.619  -0.463  22.982  0.00  0.00    +0.007 A 
ATOM     25  C22 UNL     1      13.624   0.367  22.458  0.00  0.00    +0.023 A 
BRANCH  20  28
ATOM     26  C4  UNL     1      12.669   3.273  20.961  0.00  0.00    +0.220 C 
ATOM     27  O1  UNL     1      13.630   3.914  21.471  0.00  0.00    -0.275 OA
ATOM     28  N1  UNL     1      12.808   1.875  20.670  0.00  0.00    -0.285 N 
ATOM     29  H8  UNL     1      12.177   1.459  19.947  0.00  0.00    +0.155 HD
BRANCH  26  31
ATOM     30  C1  UNL     1      11.668   5.513  20.528  0.00  0.00    +0.017 C 
ATOM     31  C2  UNL     1      11.416   4.002  20.552  0.00  0.00    +0.069 C 
ATOM     32  C3  UNL     1      10.247   3.657  21.481  0.00  0.00    +0.017 C 
ENDBRANCH  26  31
ENDBRANCH  20  28
ENDBRANCH  19  23
ENDBRANCH   1  19
TORSDOF 5
ENDMDL
MODEL 7
REMARK VINA RESULT:    -6.553     10.558     13.389
REMARK INTER + INTRA:          -9.186
REMARK INTER:                  -8.664
REMARK INTRA:                  -0.522
REMARK UNBOUND:                -0.718
REMARK  Name = /home/qwerty/github/datacon2025hack/step_04_hit_selection/docking/ligands/lig_242.pdb
REMARK  8 active torsions:
REMARK  status: ('A' for Active; 'I' for Inactive)
REMARK    1  A    between atoms: C1_1  and  C2_2
REMARK    2  A    between atoms: C2_2  and  C3_3
REMARK    3  A    between atoms: C2_2  and  C4_4
REMARK    4  A    between atoms: N1_6  and  C5_7
REMARK    5  A    between atoms: C8_10  and  C9_11
REMARK    6  A    between atoms: C9_11  and  N2_12
REMARK    7  A    between atoms: N3_15  and  C11_16
REMARK    8  A    between atoms: N4_26  and  C20_27
REMARK                            x       y       z     vdW  Elec       q    Type
REMARK                         _______ _______ _______ _____ _____    ______ ____
ROOT
ATOM      1  N2  UNL     1      20.353   0.708  29.903  0.00  0.00    -0.295 N 
ATOM      2  C10 UNL     1      19.895   1.024  31.224  0.00  0.00    +0.304 C 
ATOM      3  O2  UNL     1      20.659   1.622  32.029  0.00  0.00    -0.252 OA
ATOM      4  N3  UNL     1      18.577   0.628  31.633  0.00  0.00    -0.269 N 
ATOM      5  H13 UNL     1      19.695   0.240  29.239  0.00  0.00    +0.151 HD
ATOM      6  H14 UNL     1      18.094  -0.106  31.065  0.00  0.00    +0.156 HD
ENDROOT
BRANCH   4   7
ATOM      7  C11 UNL     1      17.936   1.085  32.836  0.00  0.00    +0.035 A 
ATOM      8  C12 UNL     1      17.539   2.423  32.988  0.00  0.00    +0.025 A 
ATOM      9  C13 UNL     1      16.887   2.839  34.152  0.00  0.00    +0.025 A 
ATOM     10  C14 UNL     1      16.609   1.924  35.185  0.00  0.00    +0.039 A 
ATOM     11  C15 UNL     1      17.016   0.582  35.034  0.00  0.00    -0.024 A 
ATOM     12  C16 UNL     1      17.650   0.167  33.854  0.00  0.00    +0.028 A 
ATOM     13  C17 UNL     1      16.696  -0.420  36.113  0.00  0.00    +0.046 C 
ATOM     14  C18 UNL     1      16.809   0.210  37.503  0.00  0.00    +0.101 C 
ATOM     15  C19 UNL     1      16.029   1.491  37.565  0.00  0.00    +0.220 C 
ATOM     16  O3  UNL     1      15.508   1.842  38.658  0.00  0.00    -0.275 OA
ATOM     17  N4  UNL     1      15.928   2.330  36.397  0.00  0.00    -0.274 N 
ATOM     18  C20 UNL     1      15.185   3.596  36.463  0.00  0.00    +0.138 C 
ENDBRANCH   4   7
BRANCH   1  19
ATOM     19  C9  UNL     1      21.697   1.037  29.435  0.00  0.00    +0.141 C 
BRANCH  19  23
ATOM     20  C5  UNL     1      21.569   2.446  25.353  0.00  0.00    +0.033 A 
ATOM     21  C6  UNL     1      20.638   1.503  25.810  0.00  0.00    +0.023 A 
ATOM     22  C7  UNL     1      20.682   1.047  27.130  0.00  0.00    +0.007 A 
ATOM     23  C8  UNL     1      21.644   1.547  28.021  0.00  0.00    -0.030 A 
ATOM     24  C21 UNL     1      22.570   2.500  27.571  0.00  0.00    +0.007 A 
ATOM     25  C22 UNL     1      22.531   2.950  26.248  0.00  0.00    +0.023 A 
BRANCH  20  28
ATOM     26  C4  UNL     1      20.615   3.965  23.567  0.00  0.00    +0.220 C 
ATOM     27  O1  UNL     1      20.103   4.751  24.411  0.00  0.00    -0.275 OA
ATOM     28  N1  UNL     1      21.494   2.915  23.998  0.00  0.00    -0.285 N 
ATOM     29  H8  UNL     1      22.169   2.523  23.302  0.00  0.00    +0.155 HD
BRANCH  26  31
ATOM     30  C1  UNL     1      21.241   5.380  21.615  0.00  0.00    +0.017 C 
ATOM     31  C2  UNL     1      20.394   4.197  22.095  0.00  0.00    +0.069 C 
ATOM     32  C3  UNL     1      18.910   4.426  21.788  0.00  0.00    +0.017 C 
ENDBRANCH  26  31
ENDBRANCH  20  28
ENDBRANCH  19  23
ENDBRANCH   1  19
TORSDOF 5
ENDMDL
MODEL 8
REMARK VINA RESULT:    -6.420     11.001     14.905
REMARK INTER + INTRA:          -9.014
REMARK INTER:                  -8.367
REMARK INTRA:                  -0.648
REMARK UNBOUND:                -0.718
REMARK  Name = /home/qwerty/github/datacon2025hack/step_04_hit_selection/docking/ligands/lig_242.pdb
REMARK  8 active torsions:
REMARK  status: ('A' for Active; 'I' for Inactive)
REMARK    1  A    between atoms: C1_1  and  C2_2
REMARK    2  A    between atoms: C2_2  and  C3_3
REMARK    3  A    between atoms: C2_2  and  C4_4
REMARK    4  A    between atoms: N1_6  and  C5_7
REMARK    5  A    between atoms: C8_10  and  C9_11
REMARK    6  A    between atoms: C9_11  and  N2_12
REMARK    7  A    between atoms: N3_15  and  C11_16
REMARK    8  A    between atoms: N4_26  and  C20_27
REMARK                            x       y       z     vdW  Elec       q    Type
REMARK                         _______ _______ _______ _____ _____    ______ ____
ROOT
ATOM      1  N2  UNL     1      10.086   7.935  19.954  0.00  0.00    -0.295 N 
ATOM      2  C10 UNL     1      11.102   6.991  20.314  0.00  0.00    +0.304 C 
ATOM      3  O2  UNL     1      12.107   7.368  20.976  0.00  0.00    -0.252 OA
ATOM      4  N3  UNL     1      10.985   5.625  19.890  0.00  0.00    -0.269 N 
ATOM      5  H13 UNL     1       9.245   7.598  19.432  0.00  0.00    +0.151 HD
ATOM      6  H14 UNL     1      10.317   5.415  19.113  0.00  0.00    +0.156 HD
ENDROOT
BRANCH   4   7
ATOM      7  C11 UNL     1      11.814   4.556  20.378  0.00  0.00    +0.035 A 
ATOM      8  C12 UNL     1      11.380   3.710  21.411  0.00  0.00    +0.025 A 
ATOM      9  C13 UNL     1      12.187   2.656  21.849  0.00  0.00    +0.025 A 
ATOM     10  C14 UNL     1      13.442   2.419  21.256  0.00  0.00    +0.039 A 
ATOM     11  C15 UNL     1      13.880   3.276  20.223  0.00  0.00    -0.024 A 
ATOM     12  C16 UNL     1      13.055   4.317  19.775  0.00  0.00    +0.028 A 
ATOM     13  C17 UNL     1      15.203   3.017  19.552  0.00  0.00    +0.046 C 
ATOM     14  C18 UNL     1      16.244   2.517  20.557  0.00  0.00    +0.101 C 
ATOM     15  C19 UNL     1      15.695   1.371  21.355  0.00  0.00    +0.220 C 
ATOM     16  O3  UNL     1      16.481   0.476  21.770  0.00  0.00    -0.275 OA
ATOM     17  N4  UNL     1      14.292   1.330  21.687  0.00  0.00    -0.274 N 
ATOM     18  C20 UNL     1      13.758   0.220  22.489  0.00  0.00    +0.138 C 
ENDBRANCH   4   7
BRANCH   1  19
ATOM     19  C9  UNL     1      10.163   9.350  20.310  0.00  0.00    +0.141 C 
BRANCH  19  23
ATOM     20  C5  UNL     1       8.777   9.892  24.366  0.00  0.00    +0.033 A 
ATOM     21  C6  UNL     1      10.127  10.081  24.045  0.00  0.00    +0.023 A 
ATOM     22  C7  UNL     1      10.575   9.903  22.733  0.00  0.00    +0.007 A 
ATOM     23  C8  UNL     1       9.671   9.559  21.716  0.00  0.00    -0.030 A 
ATOM     24  C21 UNL     1       8.315   9.381  22.032  0.00  0.00    +0.007 A 
ATOM     25  C22 UNL     1       7.870   9.551  23.346  0.00  0.00    +0.023 A 
BRANCH  20  28
ATOM     26  C4  UNL     1       8.028   9.032  26.626  0.00  0.00    +0.220 C 
ATOM     27  O1  UNL     1       8.444   7.862  26.396  0.00  0.00    -0.275 OA
ATOM     28  N1  UNL     1       8.335  10.099  25.717  0.00  0.00    -0.285 N 
ATOM     29  H8  UNL     1       8.306  11.079  26.081  0.00  0.00    +0.155 HD
BRANCH  26  31
ATOM     30  C1  UNL     1       7.815  10.647  28.510  0.00  0.00    +0.017 C 
ATOM     31  C2  UNL     1       7.306   9.331  27.914  0.00  0.00    +0.069 C 
ATOM     32  C3  UNL     1       7.458   8.181  28.914  0.00  0.00    +0.017 C 
ENDBRANCH  26  31
ENDBRANCH  20  28
ENDBRANCH  19  23
ENDBRANCH   1  19
TORSDOF 5
ENDMDL
MODEL 9
REMARK VINA RESULT:    -6.376      7.767     12.470
REMARK INTER + INTRA:          -8.958
REMARK INTER:                  -8.815
REMARK INTRA:                  -0.143
REMARK UNBOUND:                -0.718
REMARK  Name = /home/qwerty/github/datacon2025hack/step_04_hit_selection/docking/ligands/lig_242.pdb
REMARK  8 active torsions:
REMARK  status: ('A' for Active; 'I' for Inactive)
REMARK    1  A    between atoms: C1_1  and  C2_2
REMARK    2  A    between atoms: C2_2  and  C3_3
REMARK    3  A    between atoms: C2_2  and  C4_4
REMARK    4  A    between atoms: N1_6  and  C5_7
REMARK    5  A    between atoms: C8_10  and  C9_11
REMARK    6  A    between atoms: C9_11  and  N2_12
REMARK    7  A    between atoms: N3_15  and  C11_16
REMARK    8  A    between atoms: N4_26  and  C20_27
REMARK                            x       y       z     vdW  Elec       q    Type
REMARK                         _______ _______ _______ _____ _____    ______ ____
ROOT
ATOM      1  N2  UNL     1       8.070  11.987  28.071  0.00  0.00    -0.295 N 
ATOM      2  C10 UNL     1       8.590  11.013  27.158  0.00  0.00    +0.304 C 
ATOM      3  O2  UNL     1       9.652  10.392  27.436  0.00  0.00    -0.252 OA
ATOM      4  N3  UNL     1       7.916  10.773  25.914  0.00  0.00    -0.269 N 
ATOM      5  H13 UNL     1       7.172  12.468  27.838  0.00  0.00    +0.151 HD
ATOM      6  H14 UNL     1       7.230  11.494  25.588  0.00  0.00    +0.156 HD
ENDROOT
BRANCH   4   7
ATOM      7  C11 UNL     1       8.212   9.674  25.035  0.00  0.00    +0.035 A 
ATOM      8  C12 UNL     1       8.320   8.361  25.520  0.00  0.00    +0.025 A 
ATOM      9  C13 UNL     1       8.575   7.303  24.644  0.00  0.00    +0.025 A 
ATOM     10  C14 UNL     1       8.718   7.533  23.263  0.00  0.00    +0.039 A 
ATOM     11  C15 UNL     1       8.618   8.855  22.778  0.00  0.00    -0.024 A 
ATOM     12  C16 UNL     1       8.340   9.908  23.661  0.00  0.00    +0.028 A 
ATOM     13  C17 UNL     1       8.732   9.117  21.299  0.00  0.00    +0.046 C 
ATOM     14  C18 UNL     1       9.769   8.195  20.653  0.00  0.00    +0.101 C 
ATOM     15  C19 UNL     1       9.512   6.766  21.033  0.00  0.00    +0.220 C 
ATOM     16  O3  UNL     1       9.813   5.849  20.222  0.00  0.00    -0.275 OA
ATOM     17  N4  UNL     1       8.976   6.452  22.335  0.00  0.00    -0.274 N 
ATOM     18  C20 UNL     1       8.746   5.052  22.716  0.00  0.00    +0.138 C 
ENDBRANCH   4   7
BRANCH   1  19
ATOM     19  C9  UNL     1       8.730  12.316  29.333  0.00  0.00    +0.141 C 
BRANCH  19  23
ATOM     20  C5  UNL     1      12.326  14.602  28.625  0.00  0.00    +0.033 A 
ATOM     21  C6  UNL     1      12.177  13.858  29.803  0.00  0.00    +0.023 A 
ATOM     22  C7  UNL     1      11.012  13.121  30.032  0.00  0.00    +0.007 A 
ATOM     23  C8  UNL     1       9.989  13.096  29.071  0.00  0.00    -0.030 A 
ATOM     24  C21 UNL     1      10.140  13.830  27.885  0.00  0.00    +0.007 A 
ATOM     25  C22 UNL     1      11.302  14.574  27.660  0.00  0.00    +0.023 A 
BRANCH  20  28
ATOM     26  C4  UNL     1      14.748  14.746  27.902  0.00  0.00    +0.220 C 
ATOM     27  O1  UNL     1      14.715  13.624  27.324  0.00  0.00    -0.275 OA
ATOM     28  N1  UNL     1      13.540  15.337  28.401  0.00  0.00    -0.285 N 
ATOM     29  H8  UNL     1      13.520  16.374  28.539  0.00  0.00    +0.155 HD
BRANCH  26  31
ATOM     30  C1  UNL     1      16.143  16.261  29.303  0.00  0.00    +0.017 C 
ATOM     31  C2  UNL     1      16.041  15.517  27.968  0.00  0.00    +0.069 C 
ATOM     32  C3  UNL     1      16.167  16.489  26.790  0.00  0.00    +0.017 C 
ENDBRANCH  26  31
ENDBRANCH  20  28
ENDBRANCH  19  23
ENDBRANCH   1  19
TORSDOF 5
ENDMDL
