MODEL 1
REMARK VINA RESULT:    -6.773      0.000      0.000
REMARK INTER + INTRA:         -10.476
REMARK INTER:                  -9.545
REMARK INTRA:                  -0.932
REMARK UNBOUND:                -0.932
REMARK  Name = /home/qwerty/github/datacon2025hack/step_04_hit_selection/docking/ligands/lig_111.pdb
REMARK  10 active torsions:
REMARK  status: ('A' for Active; 'I' for Inactive)
REMARK    1  A    between atoms: C1_1  and  O1_2
REMARK    2  A    between atoms: O1_2  and  C2_3
REMARK    3  A    between atoms: C6_7  and  C7_8
REMARK    4  A    between atoms: N1_10  and  C8_11
REMARK    5  A    between atoms: C11_14  and  O3_15
REMARK    6  A    between atoms: O3_15  and  C12_16
REMARK    7  A    between atoms: C13_17  and  N2_18
REMARK    8  A    between atoms: C14_19  and  C15_21
REMARK    9  A    between atoms: C19_25  and  O5_26
REMARK   10  A    between atoms: O5_26  and  C20_27
REMARK                            x       y       z     vdW  Elec       q    Type
REMARK                         _______ _______ _______ _____ _____    ______ ____
ROOT
ATOM      1  C8  UNL     1      22.043   3.201  25.503  0.00  0.00    +0.036 A 
ATOM      2  C9  UNL     1      22.705   3.304  26.731  0.00  0.00    +0.027 A 
ATOM      3  C10 UNL     1      22.339   2.493  27.806  0.00  0.00    +0.049 A 
ATOM      4  C11 UNL     1      21.299   1.553  27.669  0.00  0.00    +0.141 A 
ATOM      5  C13 UNL     1      20.630   1.437  26.435  0.00  0.00    +0.078 A 
ATOM      6  C22 UNL     1      21.022   2.247  25.354  0.00  0.00    +0.050 A 
ENDROOT
BRANCH   1   9
ATOM      7  C7  UNL     1      21.699   5.141  23.907  0.00  0.00    +0.248 C 
ATOM      8  O2  UNL     1      20.846   5.696  24.655  0.00  0.00    -0.270 OA
ATOM      9  N1  UNL     1      22.461   4.027  24.402  0.00  0.00    -0.281 N 
ATOM     10  H7  UNL     1      23.421   3.880  24.018  0.00  0.00    +0.155 HD
BRANCH   7  15
ATOM     11  C2  UNL     1      23.143   7.191  21.045  0.00  0.00    +0.121 A 
ATOM     12  C3  UNL     1      22.377   6.723  19.973  0.00  0.00    +0.045 A 
ATOM     13  C4  UNL     1      21.395   5.751  20.175  0.00  0.00    +0.004 A 
ATOM     14  C5  UNL     1      21.171   5.233  21.452  0.00  0.00    +0.013 A 
ATOM     15  C6  UNL     1      21.935   5.679  22.545  0.00  0.00    +0.040 A 
ATOM     16  C23 UNL     1      22.916   6.667  22.334  0.00  0.00    +0.058 A 
BRANCH  11  18
ATOM     17  C1  UNL     1      25.495   8.038  21.115  0.00  0.00    +0.277 C 
ATOM     18  O1  UNL     1      24.115   8.169  20.790  0.00  0.00    -0.495 OA
ENDBRANCH  11  18
ENDBRANCH   7  15
ENDBRANCH   1   9
BRANCH   5  19
ATOM     19  N2  UNL     1      19.594   0.451  26.272  0.00  0.00    -0.279 N 
ATOM     20  C14 UNL     1      18.199   0.728  26.482  0.00  0.00    +0.248 C 
ATOM     21  O4  UNL     1      17.857   1.716  27.189  0.00  0.00    -0.270 OA
ATOM     22  H13 UNL     1      19.875  -0.539  26.093  0.00  0.00    +0.155 HD
BRANCH  20  23
ATOM     23  C15 UNL     1      17.153  -0.159  25.915  0.00  0.00    +0.040 A 
ATOM     24  C16 UNL     1      16.072  -0.574  26.713  0.00  0.00    +0.013 A 
ATOM     25  C17 UNL     1      15.081  -1.405  26.186  0.00  0.00    +0.004 A 
ATOM     26  C18 UNL     1      15.154  -1.827  24.858  0.00  0.00    +0.045 A 
ATOM     27  C19 UNL     1      16.212  -1.419  24.039  0.00  0.00    +0.121 A 
ATOM     28  C21 UNL     1      17.211  -0.580  24.572  0.00  0.00    +0.058 A 
BRANCH  27  29
ATOM     29  O5  UNL     1      16.233  -1.864  22.710  0.00  0.00    -0.495 OA
ATOM     30  C20 UNL     1      16.984  -1.252  21.666  0.00  0.00    +0.277 C 
ENDBRANCH  27  29
ENDBRANCH  20  23
ENDBRANCH   5  19
BRANCH   4  31
ATOM     31  O3  UNL     1      20.904   0.728  28.734  0.00  0.00    -0.493 OA
ATOM     32  C12 UNL     1      21.796   0.139  29.676  0.00  0.00    +0.277 C 
ENDBRANCH   4  31
TORSDOF 7
ENDMDL
MODEL 2
REMARK VINA RESULT:    -6.509      7.368     13.051
REMARK INTER + INTRA:         -10.104
REMARK INTER:                  -9.196
REMARK INTRA:                  -0.908
REMARK UNBOUND:                -0.932
REMARK  Name = /home/qwerty/github/datacon2025hack/step_04_hit_selection/docking/ligands/lig_111.pdb
REMARK  10 active torsions:
REMARK  status: ('A' for Active; 'I' for Inactive)
REMARK    1  A    between atoms: C1_1  and  O1_2
REMARK    2  A    between atoms: O1_2  and  C2_3
REMARK    3  A    between atoms: C6_7  and  C7_8
REMARK    4  A    between atoms: N1_10  and  C8_11
REMARK    5  A    between atoms: C11_14  and  O3_15
REMARK    6  A    between atoms: O3_15  and  C12_16
REMARK    7  A    between atoms: C13_17  and  N2_18
REMARK    8  A    between atoms: C14_19  and  C15_21
REMARK    9  A    between atoms: C19_25  and  O5_26
REMARK   10  A    between atoms: O5_26  and  C20_27
REMARK                            x       y       z     vdW  Elec       q    Type
REMARK                         _______ _______ _______ _____ _____    ______ ____
ROOT
ATOM      1  C8  UNL     1      19.745   0.987  32.823  0.00  0.00    +0.036 A 
ATOM      2  C9  UNL     1      19.715   0.195  31.669  0.00  0.00    +0.027 A 
ATOM      3  C10 UNL     1      20.585   0.454  30.608  0.00  0.00    +0.049 A 
ATOM      4  C11 UNL     1      21.512   1.512  30.686  0.00  0.00    +0.141 A 
ATOM      5  C13 UNL     1      21.554   2.310  31.845  0.00  0.00    +0.078 A 
ATOM      6  C22 UNL     1      20.684   2.027  32.915  0.00  0.00    +0.050 A 
ENDROOT
BRANCH   1   9
ATOM      7  C7  UNL     1      17.833   1.572  34.381  0.00  0.00    +0.248 C 
ATOM      8  O2  UNL     1      17.392   2.473  33.614  0.00  0.00    -0.270 OA
ATOM      9  N1  UNL     1      18.859   0.680  33.914  0.00  0.00    -0.281 N 
ATOM     10  H7  UNL     1      18.889  -0.286  34.311  0.00  0.00    +0.155 HD
BRANCH   7  15
ATOM     11  C2  UNL     1      16.354  -0.021  37.504  0.00  0.00    +0.121 A 
ATOM     12  C3  UNL     1      16.123   1.110  38.293  0.00  0.00    +0.045 A 
ATOM     13  C4  UNL     1      16.441   2.383  37.816  0.00  0.00    +0.004 A 
ATOM     14  C5  UNL     1      16.998   2.538  36.544  0.00  0.00    +0.013 A 
ATOM     15  C6  UNL     1      17.250   1.416  35.736  0.00  0.00    +0.040 A 
ATOM     16  C23 UNL     1      16.916   0.137  36.221  0.00  0.00    +0.058 A 
BRANCH  11  18
ATOM     17  C1  UNL     1      16.547  -2.514  37.565  0.00  0.00    +0.277 C 
ATOM     18  O1  UNL     1      16.014  -1.277  38.028  0.00  0.00    -0.495 OA
ENDBRANCH  11  18
ENDBRANCH   7  15
ENDBRANCH   1   9
BRANCH   5  19
ATOM     19  N2  UNL     1      22.524   3.367  31.952  0.00  0.00    -0.279 N 
ATOM     20  C14 UNL     1      22.237   4.739  31.632  0.00  0.00    +0.248 C 
ATOM     21  O4  UNL     1      21.262   5.015  30.880  0.00  0.00    -0.270 OA
ATOM     22  H13 UNL     1      23.513   3.113  32.172  0.00  0.00    +0.155 HD
BRANCH  20  23
ATOM     23  C15 UNL     1      23.099   5.836  32.137  0.00  0.00    +0.040 A 
ATOM     24  C16 UNL     1      24.178   5.548  32.993  0.00  0.00    +0.013 A 
ATOM     25  C17 UNL     1      24.997   6.573  33.469  0.00  0.00    +0.004 A 
ATOM     26  C18 UNL     1      24.754   7.896  33.095  0.00  0.00    +0.045 A 
ATOM     27  C19 UNL     1      23.695   8.208  32.235  0.00  0.00    +0.121 A 
ATOM     28  C21 UNL     1      22.870   7.172  31.755  0.00  0.00    +0.058 A 
BRANCH  27  29
ATOM     29  O5  UNL     1      23.500   9.551  31.883  0.00  0.00    -0.495 OA
ATOM     30  C20 UNL     1      23.984  10.148  30.684  0.00  0.00    +0.277 C 
ENDBRANCH  27  29
ENDBRANCH  20  23
ENDBRANCH   5  19
BRANCH   4  31
ATOM     31  O3  UNL     1      22.395   1.798  29.633  0.00  0.00    -0.493 OA
ATOM     32  C12 UNL     1      23.540   1.019  29.301  0.00  0.00    +0.277 C 
ENDBRANCH   4  31
TORSDOF 7
ENDMDL
MODEL 3
REMARK VINA RESULT:    -6.434      1.603      2.571
REMARK INTER + INTRA:          -9.998
REMARK INTER:                  -9.068
REMARK INTRA:                  -0.930
REMARK UNBOUND:                -0.932
REMARK  Name = /home/qwerty/github/datacon2025hack/step_04_hit_selection/docking/ligands/lig_111.pdb
REMARK  10 active torsions:
REMARK  status: ('A' for Active; 'I' for Inactive)
REMARK    1  A    between atoms: C1_1  and  O1_2
REMARK    2  A    between atoms: O1_2  and  C2_3
REMARK    3  A    between atoms: C6_7  and  C7_8
REMARK    4  A    between atoms: N1_10  and  C8_11
REMARK    5  A    between atoms: C11_14  and  O3_15
REMARK    6  A    between atoms: O3_15  and  C12_16
REMARK    7  A    between atoms: C13_17  and  N2_18
REMARK    8  A    between atoms: C14_19  and  C15_21
REMARK    9  A    between atoms: C19_25  and  O5_26
REMARK   10  A    between atoms: O5_26  and  C20_27
REMARK                            x       y       z     vdW  Elec       q    Type
REMARK                         _______ _______ _______ _____ _____    ______ ____
ROOT
ATOM      1  C8  UNL     1      21.866   3.316  25.183  0.00  0.00    +0.036 A 
ATOM      2  C9  UNL     1      22.555   3.504  26.386  0.00  0.00    +0.027 A 
ATOM      3  C10 UNL     1      22.345   2.644  27.465  0.00  0.00    +0.049 A 
ATOM      4  C11 UNL     1      21.442   1.569  27.357  0.00  0.00    +0.141 A 
ATOM      5  C13 UNL     1      20.749   1.368  26.148  0.00  0.00    +0.078 A 
ATOM      6  C22 UNL     1      20.983   2.231  25.061  0.00  0.00    +0.050 A 
ENDROOT
BRANCH   1   9
ATOM      7  C7  UNL     1      21.194   5.195  23.620  0.00  0.00    +0.248 C 
ATOM      8  O2  UNL     1      20.299   5.621  24.403  0.00  0.00    -0.270 OA
ATOM      9  N1  UNL     1      22.123   4.199  24.076  0.00  0.00    -0.281 N 
ATOM     10  H7  UNL     1      23.080   4.191  23.657  0.00  0.00    +0.155 HD
BRANCH   7  15
ATOM     11  C2  UNL     1      20.283   6.292  20.092  0.00  0.00    +0.121 A 
ATOM     12  C3  UNL     1      21.500   6.831  19.661  0.00  0.00    +0.045 A 
ATOM     13  C4  UNL     1      22.611   6.836  20.506  0.00  0.00    +0.004 A 
ATOM     14  C5  UNL     1      22.516   6.306  21.794  0.00  0.00    +0.013 A 
ATOM     15  C6  UNL     1      21.302   5.768  22.255  0.00  0.00    +0.040 A 
ATOM     16  C23 UNL     1      20.189   5.758  21.392  0.00  0.00    +0.058 A 
BRANCH  11  18
ATOM     17  C1  UNL     1      18.724   7.473  18.532  0.00  0.00    +0.277 C 
ATOM     18  O1  UNL     1      19.198   6.309  19.203  0.00  0.00    -0.495 OA
ENDBRANCH  11  18
ENDBRANCH   7  15
ENDBRANCH   1   9
BRANCH   5  19
ATOM     19  N2  UNL     1      19.854   0.248  26.012  0.00  0.00    -0.279 N 
ATOM     20  C14 UNL     1      18.425   0.359  26.128  0.00  0.00    +0.248 C 
ATOM     21  O4  UNL     1      17.923   1.344  26.736  0.00  0.00    -0.270 OA
ATOM     22  H13 UNL     1      20.266  -0.708  25.928  0.00  0.00    +0.155 HD
BRANCH  20  23
ATOM     23  C15 UNL     1      17.533  -0.693  25.584  0.00  0.00    +0.040 A 
ATOM     24  C16 UNL     1      18.020  -1.609  24.634  0.00  0.00    +0.013 A 
ATOM     25  C17 UNL     1      17.188  -2.605  24.120  0.00  0.00    +0.004 A 
ATOM     26  C18 UNL     1      15.863  -2.703  24.549  0.00  0.00    +0.045 A 
ATOM     27  C19 UNL     1      15.358  -1.813  25.501  0.00  0.00    +0.121 A 
ATOM     28  C21 UNL     1      16.199  -0.808  26.020  0.00  0.00    +0.058 A 
BRANCH  27  29
ATOM     29  O5  UNL     1      14.023  -1.960  25.906  0.00  0.00    -0.495 OA
ATOM     30  C20 UNL     1      13.561  -1.784  27.241  0.00  0.00    +0.277 C 
ENDBRANCH  27  29
ENDBRANCH  20  23
ENDBRANCH   5  19
BRANCH   4  31
ATOM     31  O3  UNL     1      21.207   0.691  28.427  0.00  0.00    -0.493 OA
ATOM     32  C12 UNL     1      22.202  -0.119  29.044  0.00  0.00    +0.277 C 
ENDBRANCH   4  31
TORSDOF 7
ENDMDL
MODEL 4
REMARK VINA RESULT:    -6.277     14.584     16.288
REMARK INTER + INTRA:          -9.777
REMARK INTER:                  -8.928
REMARK INTRA:                  -0.849
REMARK UNBOUND:                -0.932
REMARK  Name = /home/qwerty/github/datacon2025hack/step_04_hit_selection/docking/ligands/lig_111.pdb
REMARK  10 active torsions:
REMARK  status: ('A' for Active; 'I' for Inactive)
REMARK    1  A    between atoms: C1_1  and  O1_2
REMARK    2  A    between atoms: O1_2  and  C2_3
REMARK    3  A    between atoms: C6_7  and  C7_8
REMARK    4  A    between atoms: N1_10  and  C8_11
REMARK    5  A    between atoms: C11_14  and  O3_15
REMARK    6  A    between atoms: O3_15  and  C12_16
REMARK    7  A    between atoms: C13_17  and  N2_18
REMARK    8  A    between atoms: C14_19  and  C15_21
REMARK    9  A    between atoms: C19_25  and  O5_26
REMARK   10  A    between atoms: O5_26  and  C20_27
REMARK                            x       y       z     vdW  Elec       q    Type
REMARK                         _______ _______ _______ _____ _____    ______ ____
ROOT
ATOM      1  C8  UNL     1      14.158  11.855  35.616  0.00  0.00    +0.036 A 
ATOM      2  C9  UNL     1      13.386  12.002  36.773  0.00  0.00    +0.027 A 
ATOM      3  C10 UNL     1      12.068  12.454  36.695  0.00  0.00    +0.049 A 
ATOM      4  C11 UNL     1      11.492  12.763  35.447  0.00  0.00    +0.141 A 
ATOM      5  C13 UNL     1      12.259  12.612  34.275  0.00  0.00    +0.078 A 
ATOM      6  C22 UNL     1      13.580  12.138  34.367  0.00  0.00    +0.050 A 
ENDROOT
BRANCH   1   9
ATOM      7  C7  UNL     1      16.618  12.161  36.145  0.00  0.00    +0.248 C 
ATOM      8  O2  UNL     1      16.413  13.203  36.828  0.00  0.00    -0.270 OA
ATOM      9  N1  UNL     1      15.504  11.358  35.721  0.00  0.00    -0.281 N 
ATOM     10  H7  UNL     1      15.657  10.333  35.594  0.00  0.00    +0.155 HD
BRANCH   7  15
ATOM     11  C2  UNL     1      19.734  10.019  35.720  0.00  0.00    +0.121 A 
ATOM     12  C3  UNL     1      20.651  10.974  35.269  0.00  0.00    +0.045 A 
ATOM     13  C4  UNL     1      20.264  12.306  35.107  0.00  0.00    +0.004 A 
ATOM     14  C5  UNL     1      18.954  12.696  35.390  0.00  0.00    +0.013 A 
ATOM     15  C6  UNL     1      18.010  11.754  35.834  0.00  0.00    +0.040 A 
ATOM     16  C23 UNL     1      18.412  10.415  36.005  0.00  0.00    +0.058 A 
BRANCH  11  18
ATOM     17  C1  UNL     1      21.215   8.287  36.752  0.00  0.00    +0.277 C 
ATOM     18  O1  UNL     1      20.174   8.696  35.869  0.00  0.00    -0.495 OA
ENDBRANCH  11  18
ENDBRANCH   7  15
ENDBRANCH   1   9
BRANCH   5  19
ATOM     19  N2  UNL     1      11.667  12.886  32.992  0.00  0.00    -0.279 N 
ATOM     20  C14 UNL     1      11.923  14.086  32.243  0.00  0.00    +0.248 C 
ATOM     21  O4  UNL     1      12.352  15.113  32.837  0.00  0.00    -0.270 OA
ATOM     22  H13 UNL     1      10.937  12.230  32.632  0.00  0.00    +0.155 HD
BRANCH  20  23
ATOM     23  C15 UNL     1      11.645  14.149  30.787  0.00  0.00    +0.040 A 
ATOM     24  C16 UNL     1      12.555  14.782  29.922  0.00  0.00    +0.013 A 
ATOM     25  C17 UNL     1      12.303  14.842  28.550  0.00  0.00    +0.004 A 
ATOM     26  C18 UNL     1      11.144  14.267  28.024  0.00  0.00    +0.045 A 
ATOM     27  C19 UNL     1      10.229  13.621  28.861  0.00  0.00    +0.121 A 
ATOM     28  C21 UNL     1      10.485  13.562  30.246  0.00  0.00    +0.058 A 
BRANCH  27  29
ATOM     29  O5  UNL     1       9.085  13.053  28.282  0.00  0.00    -0.495 OA
ATOM     30  C20 UNL     1       7.971  13.797  27.800  0.00  0.00    +0.277 C 
ENDBRANCH  27  29
ENDBRANCH  20  23
ENDBRANCH   5  19
BRANCH   4  31
ATOM     31  O3  UNL     1      10.170  13.225  35.337  0.00  0.00    -0.493 OA
ATOM     32  C12 UNL     1       9.741  14.540  35.675  0.00  0.00    +0.277 C 
ENDBRANCH   4  31
TORSDOF 7
ENDMDL
MODEL 5
REMARK VINA RESULT:    -6.152      2.920      5.914
REMARK INTER + INTRA:          -9.602
REMARK INTER:                  -8.696
REMARK INTRA:                  -0.906
REMARK UNBOUND:                -0.932
REMARK  Name = /home/qwerty/github/datacon2025hack/step_04_hit_selection/docking/ligands/lig_111.pdb
REMARK  10 active torsions:
REMARK  status: ('A' for Active; 'I' for Inactive)
REMARK    1  A    between atoms: C1_1  and  O1_2
REMARK    2  A    between atoms: O1_2  and  C2_3
REMARK    3  A    between atoms: C6_7  and  C7_8
REMARK    4  A    between atoms: N1_10  and  C8_11
REMARK    5  A    between atoms: C11_14  and  O3_15
REMARK    6  A    between atoms: O3_15  and  C12_16
REMARK    7  A    between atoms: C13_17  and  N2_18
REMARK    8  A    between atoms: C14_19  and  C15_21
REMARK    9  A    between atoms: C19_25  and  O5_26
REMARK   10  A    between atoms: O5_26  and  C20_27
REMARK                            x       y       z     vdW  Elec       q    Type
REMARK                         _______ _______ _______ _____ _____    ______ ____
ROOT
ATOM      1  C8  UNL     1      21.355   5.831  22.515  0.00  0.00    +0.036 A 
ATOM      2  C9  UNL     1      20.429   5.003  21.871  0.00  0.00    +0.027 A 
ATOM      3  C10 UNL     1      20.056   3.782  22.435  0.00  0.00    +0.049 A 
ATOM      4  C11 UNL     1      20.602   3.367  23.666  0.00  0.00    +0.141 A 
ATOM      5  C13 UNL     1      21.529   4.197  24.325  0.00  0.00    +0.078 A 
ATOM      6  C22 UNL     1      21.883   5.434  23.755  0.00  0.00    +0.050 A 
ENDROOT
BRANCH   1   9
ATOM      7  C7  UNL     1      22.817   7.289  21.044  0.00  0.00    +0.248 C 
ATOM      8  O2  UNL     1      23.298   6.301  20.423  0.00  0.00    -0.270 OA
ATOM      9  N1  UNL     1      21.699   7.098  21.927  0.00  0.00    -0.281 N 
ATOM     10  H7  UNL     1      21.035   7.894  22.059  0.00  0.00    +0.155 HD
BRANCH   7  15
ATOM     11  C2  UNL     1      23.056  11.048  20.501  0.00  0.00    +0.121 A 
ATOM     12  C3  UNL     1      24.438  11.206  20.357  0.00  0.00    +0.045 A 
ATOM     13  C4  UNL     1      25.289  10.102  20.432  0.00  0.00    +0.004 A 
ATOM     14  C5  UNL     1      24.766   8.826  20.656  0.00  0.00    +0.013 A 
ATOM     15  C6  UNL     1      23.382   8.642  20.814  0.00  0.00    +0.040 A 
ATOM     16  C23 UNL     1      22.530   9.760  20.727  0.00  0.00    +0.058 A 
BRANCH  11  18
ATOM     17  C1  UNL     1      21.171  12.483  21.304  0.00  0.00    +0.277 C 
ATOM     18  O1  UNL     1      22.244  12.189  20.415  0.00  0.00    -0.495 OA
ENDBRANCH  11  18
ENDBRANCH   7  15
ENDBRANCH   1   9
BRANCH   5  19
ATOM     19  N2  UNL     1      22.062   3.802  25.602  0.00  0.00    -0.279 N 
ATOM     20  C14 UNL     1      21.348   3.962  26.840  0.00  0.00    +0.248 C 
ATOM     21  O4  UNL     1      20.409   4.800  26.916  0.00  0.00    -0.270 OA
ATOM     22  H13 UNL     1      23.055   3.479  25.647  0.00  0.00    +0.155 HD
BRANCH  20  23
ATOM     23  C15 UNL     1      21.731   3.187  28.046  0.00  0.00    +0.040 A 
ATOM     24  C16 UNL     1      21.369   3.645  29.324  0.00  0.00    +0.013 A 
ATOM     25  C17 UNL     1      21.722   2.920  30.464  0.00  0.00    +0.004 A 
ATOM     26  C18 UNL     1      22.435   1.726  30.341  0.00  0.00    +0.045 A 
ATOM     27  C19 UNL     1      22.798   1.241  29.080  0.00  0.00    +0.121 A 
ATOM     28  C21 UNL     1      22.441   1.975  27.932  0.00  0.00    +0.058 A 
BRANCH  27  29
ATOM     29  O5  UNL     1      23.505   0.033  29.012  0.00  0.00    -0.495 OA
ATOM     30  C20 UNL     1      22.906  -1.243  28.806  0.00  0.00    +0.277 C 
ENDBRANCH  27  29
ENDBRANCH  20  23
ENDBRANCH   5  19
BRANCH   4  31
ATOM     31  O3  UNL     1      20.250   2.142  24.255  0.00  0.00    -0.493 OA
ATOM     32  C12 UNL     1      18.995   1.870  24.870  0.00  0.00    +0.277 C 
ENDBRANCH   4  31
TORSDOF 7
ENDMDL
MODEL 6
REMARK VINA RESULT:    -6.120      1.493      2.096
REMARK INTER + INTRA:          -9.556
REMARK INTER:                  -8.668
REMARK INTRA:                  -0.889
REMARK UNBOUND:                -0.932
REMARK  Name = /home/qwerty/github/datacon2025hack/step_04_hit_selection/docking/ligands/lig_111.pdb
REMARK  10 active torsions:
REMARK  status: ('A' for Active; 'I' for Inactive)
REMARK    1  A    between atoms: C1_1  and  O1_2
REMARK    2  A    between atoms: O1_2  and  C2_3
REMARK    3  A    between atoms: C6_7  and  C7_8
REMARK    4  A    between atoms: N1_10  and  C8_11
REMARK    5  A    between atoms: C11_14  and  O3_15
REMARK    6  A    between atoms: O3_15  and  C12_16
REMARK    7  A    between atoms: C13_17  and  N2_18
REMARK    8  A    between atoms: C14_19  and  C15_21
REMARK    9  A    between atoms: C19_25  and  O5_26
REMARK   10  A    between atoms: O5_26  and  C20_27
REMARK                            x       y       z     vdW  Elec       q    Type
REMARK                         _______ _______ _______ _____ _____    ______ ____
ROOT
ATOM      1  C8  UNL     1      22.145   3.894  25.127  0.00  0.00    +0.036 A 
ATOM      2  C9  UNL     1      22.619   4.015  26.438  0.00  0.00    +0.027 A 
ATOM      3  C10 UNL     1      22.283   3.067  27.405  0.00  0.00    +0.049 A 
ATOM      4  C11 UNL     1      21.466   1.968  27.075  0.00  0.00    +0.141 A 
ATOM      5  C13 UNL     1      20.989   1.833  25.757  0.00  0.00    +0.078 A 
ATOM      6  C22 UNL     1      21.350   2.786  24.787  0.00  0.00    +0.050 A 
ENDROOT
BRANCH   1   9
ATOM      7  C7  UNL     1      21.602   5.743  23.481  0.00  0.00    +0.248 C 
ATOM      8  O2  UNL     1      20.483   5.985  24.014  0.00  0.00    -0.270 OA
ATOM      9  N1  UNL     1      22.531   4.868  24.142  0.00  0.00    -0.281 N 
ATOM     10  H7  UNL     1      23.552   5.025  23.984  0.00  0.00    +0.155 HD
BRANCH   7  15
ATOM     11  C2  UNL     1      21.328   7.167  19.963  0.00  0.00    +0.121 A 
ATOM     12  C3  UNL     1      22.630   7.639  19.767  0.00  0.00    +0.045 A 
ATOM     13  C4  UNL     1      23.593   7.494  20.767  0.00  0.00    +0.004 A 
ATOM     14  C5  UNL     1      23.264   6.879  21.977  0.00  0.00    +0.013 A 
ATOM     15  C6  UNL     1      21.959   6.405  22.202  0.00  0.00    +0.040 A 
ATOM     16  C23 UNL     1      20.997   6.546  21.184  0.00  0.00    +0.058 A 
BRANCH  11  18
ATOM     17  C1  UNL     1      19.166   8.037  19.055  0.00  0.00    +0.277 C 
ATOM     18  O1  UNL     1      20.399   7.335  18.926  0.00  0.00    -0.495 OA
ENDBRANCH  11  18
ENDBRANCH   7  15
ENDBRANCH   1   9
BRANCH   5  19
ATOM     19  N2  UNL     1      20.187   0.693  25.399  0.00  0.00    -0.279 N 
ATOM     20  C14 UNL     1      18.750   0.699  25.418  0.00  0.00    +0.248 C 
ATOM     21  O4  UNL     1      18.138   1.554  26.116  0.00  0.00    -0.270 OA
ATOM     22  H13 UNL     1      20.671  -0.215  25.215  0.00  0.00    +0.155 HD
BRANCH  20  23
ATOM     23  C15 UNL     1      17.974  -0.316  24.665  0.00  0.00    +0.040 A 
ATOM     24  C16 UNL     1      17.743  -1.586  25.224  0.00  0.00    +0.013 A 
ATOM     25  C17 UNL     1      17.010  -2.545  24.523  0.00  0.00    +0.004 A 
ATOM     26  C18 UNL     1      16.494  -2.249  23.260  0.00  0.00    +0.045 A 
ATOM     27  C19 UNL     1      16.698  -0.990  22.687  0.00  0.00    +0.121 A 
ATOM     28  C21 UNL     1      17.438  -0.023  23.395  0.00  0.00    +0.058 A 
BRANCH  27  29
ATOM     29  O5  UNL     1      16.151  -0.741  21.420  0.00  0.00    -0.495 OA
ATOM     30  C20 UNL     1      16.792  -1.057  20.188  0.00  0.00    +0.277 C 
ENDBRANCH  27  29
ENDBRANCH  20  23
ENDBRANCH   5  19
BRANCH   4  31
ATOM     31  O3  UNL     1      21.107   1.001  28.028  0.00  0.00    -0.493 OA
ATOM     32  C12 UNL     1      20.626   1.294  29.336  0.00  0.00    +0.277 C 
ENDBRANCH   4  31
TORSDOF 7
ENDMDL
MODEL 7
REMARK VINA RESULT:    -6.118     14.216     15.466
REMARK INTER + INTRA:          -9.553
REMARK INTER:                  -8.650
REMARK INTRA:                  -0.903
REMARK UNBOUND:                -0.932
REMARK  Name = /home/qwerty/github/datacon2025hack/step_04_hit_selection/docking/ligands/lig_111.pdb
REMARK  10 active torsions:
REMARK  status: ('A' for Active; 'I' for Inactive)
REMARK    1  A    between atoms: C1_1  and  O1_2
REMARK    2  A    between atoms: O1_2  and  C2_3
REMARK    3  A    between atoms: C6_7  and  C7_8
REMARK    4  A    between atoms: N1_10  and  C8_11
REMARK    5  A    between atoms: C11_14  and  O3_15
REMARK    6  A    between atoms: O3_15  and  C12_16
REMARK    7  A    between atoms: C13_17  and  N2_18
REMARK    8  A    between atoms: C14_19  and  C15_21
REMARK    9  A    between atoms: C19_25  and  O5_26
REMARK   10  A    between atoms: O5_26  and  C20_27
REMARK                            x       y       z     vdW  Elec       q    Type
REMARK                         _______ _______ _______ _____ _____    ______ ____
ROOT
ATOM      1  C8  UNL     1      12.952  14.891  28.409  0.00  0.00    +0.036 A 
ATOM      2  C9  UNL     1      12.091  14.505  27.376  0.00  0.00    +0.027 A 
ATOM      3  C10 UNL     1      10.878  13.875  27.660  0.00  0.00    +0.049 A 
ATOM      4  C11 UNL     1      10.499  13.625  28.994  0.00  0.00    +0.141 A 
ATOM      5  C13 UNL     1      11.355  14.016  30.041  0.00  0.00    +0.078 A 
ATOM      6  C22 UNL     1      12.566  14.666  29.741  0.00  0.00    +0.050 A 
ENDROOT
BRANCH   1   9
ATOM      7  C7  UNL     1      15.458  14.908  28.031  0.00  0.00    +0.248 C 
ATOM      8  O2  UNL     1      15.510  13.659  27.851  0.00  0.00    -0.270 OA
ATOM      9  N1  UNL     1      14.182  15.565  28.090  0.00  0.00    -0.281 N 
ATOM     10  H7  UNL     1      14.126  16.560  27.775  0.00  0.00    +0.155 HD
BRANCH   7  15
ATOM     11  C2  UNL     1      18.688  16.668  27.055  0.00  0.00    +0.121 A 
ATOM     12  C3  UNL     1      19.120  17.135  28.301  0.00  0.00    +0.045 A 
ATOM     13  C4  UNL     1      18.373  16.878  29.452  0.00  0.00    +0.004 A 
ATOM     14  C5  UNL     1      17.181  16.155  29.369  0.00  0.00    +0.013 A 
ATOM     15  C6  UNL     1      16.719  15.684  28.128  0.00  0.00    +0.040 A 
ATOM     16  C23 UNL     1      17.485  15.939  26.973  0.00  0.00    +0.058 A 
BRANCH  11  18
ATOM     17  C1  UNL     1      20.495  16.092  25.425  0.00  0.00    +0.277 C 
ATOM     18  O1  UNL     1      19.476  16.951  25.931  0.00  0.00    -0.495 OA
ENDBRANCH  11  18
ENDBRANCH   7  15
ENDBRANCH   1   9
BRANCH   5  19
ATOM     19  N2  UNL     1      10.958  13.802  31.408  0.00  0.00    -0.279 N 
ATOM     20  C14 UNL     1      11.402  12.683  32.194  0.00  0.00    +0.248 C 
ATOM     21  O4  UNL     1      11.829  11.645  31.618  0.00  0.00    -0.270 OA
ATOM     22  H13 UNL     1      10.233  14.432  31.818  0.00  0.00    +0.155 HD
BRANCH  20  23
ATOM     23  C15 UNL     1      11.321  12.714  33.675  0.00  0.00    +0.040 A 
ATOM     24  C16 UNL     1      10.966  13.901  34.338  0.00  0.00    +0.013 A 
ATOM     25  C17 UNL     1      10.883  13.938  35.731  0.00  0.00    +0.004 A 
ATOM     26  C18 UNL     1      11.148  12.789  36.479  0.00  0.00    +0.045 A 
ATOM     27  C19 UNL     1      11.492  11.591  35.844  0.00  0.00    +0.121 A 
ATOM     28  C21 UNL     1      11.574  11.557  34.438  0.00  0.00    +0.058 A 
BRANCH  27  29
ATOM     29  O5  UNL     1      11.739  10.464  36.641  0.00  0.00    -0.495 OA
ATOM     30  C20 UNL     1      10.793   9.428  36.887  0.00  0.00    +0.277 C 
ENDBRANCH  27  29
ENDBRANCH  20  23
ENDBRANCH   5  19
BRANCH   4  31
ATOM     31  O3  UNL     1       9.287  12.989  29.310  0.00  0.00    -0.493 OA
ATOM     32  C12 UNL     1       8.036  13.654  29.451  0.00  0.00    +0.277 C 
ENDBRANCH   4  31
TORSDOF 7
ENDMDL
MODEL 8
REMARK VINA RESULT:    -6.110     11.758     13.675
REMARK INTER + INTRA:          -9.542
REMARK INTER:                  -8.692
REMARK INTRA:                  -0.850
REMARK UNBOUND:                -0.932
REMARK  Name = /home/qwerty/github/datacon2025hack/step_04_hit_selection/docking/ligands/lig_111.pdb
REMARK  10 active torsions:
REMARK  status: ('A' for Active; 'I' for Inactive)
REMARK    1  A    between atoms: C1_1  and  O1_2
REMARK    2  A    between atoms: O1_2  and  C2_3
REMARK    3  A    between atoms: C6_7  and  C7_8
REMARK    4  A    between atoms: N1_10  and  C8_11
REMARK    5  A    between atoms: C11_14  and  O3_15
REMARK    6  A    between atoms: O3_15  and  C12_16
REMARK    7  A    between atoms: C13_17  and  N2_18
REMARK    8  A    between atoms: C14_19  and  C15_21
REMARK    9  A    between atoms: C19_25  and  O5_26
REMARK   10  A    between atoms: O5_26  and  C20_27
REMARK                            x       y       z     vdW  Elec       q    Type
REMARK                         _______ _______ _______ _____ _____    ______ ____
ROOT
ATOM      1  C8  UNL     1       8.995   8.941  23.931  0.00  0.00    +0.036 A 
ATOM      2  C9  UNL     1       8.315   9.591  22.895  0.00  0.00    +0.027 A 
ATOM      3  C10 UNL     1       7.802   8.866  21.819  0.00  0.00    +0.049 A 
ATOM      4  C11 UNL     1       7.955   7.466  21.762  0.00  0.00    +0.141 A 
ATOM      5  C13 UNL     1       8.633   6.803  22.803  0.00  0.00    +0.078 A 
ATOM      6  C22 UNL     1       9.129   7.543  23.892  0.00  0.00    +0.050 A 
ENDROOT
BRANCH   1   9
ATOM      7  C7  UNL     1       8.691  10.050  26.191  0.00  0.00    +0.248 C 
ATOM      8  O2  UNL     1       7.669   9.363  26.469  0.00  0.00    -0.270 OA
ATOM      9  N1  UNL     1       9.488   9.708  25.044  0.00  0.00    -0.281 N 
ATOM     10  H7  UNL     1      10.508   9.929  25.071  0.00  0.00    +0.155 HD
BRANCH   7  15
ATOM     11  C2  UNL     1       8.530  12.739  28.878  0.00  0.00    +0.121 A 
ATOM     12  C3  UNL     1       9.803  13.306  28.761  0.00  0.00    +0.045 A 
ATOM     13  C4  UNL     1      10.709  12.822  27.815  0.00  0.00    +0.004 A 
ATOM     14  C5  UNL     1      10.352  11.763  26.977  0.00  0.00    +0.013 A 
ATOM     15  C6  UNL     1       9.082  11.170  27.082  0.00  0.00    +0.040 A 
ATOM     16  C23 UNL     1       8.171  11.671  28.032  0.00  0.00    +0.058 A 
BRANCH  11  18
ATOM     17  C1  UNL     1       6.911  14.467  29.684  0.00  0.00    +0.277 C 
ATOM     18  O1  UNL     1       7.656  13.263  29.842  0.00  0.00    -0.495 OA
ENDBRANCH  11  18
ENDBRANCH   7  15
ENDBRANCH   1   9
BRANCH   5  19
ATOM     19  N2  UNL     1       8.759   5.369  22.775  0.00  0.00    -0.279 N 
ATOM     20  C14 UNL     1       9.862   4.685  22.158  0.00  0.00    +0.248 C 
ATOM     21  O4  UNL     1      10.553   5.275  21.283  0.00  0.00    -0.270 OA
ATOM     22  H13 UNL     1       7.962   4.794  23.130  0.00  0.00    +0.155 HD
BRANCH  20  23
ATOM     23  C15 UNL     1      10.172   3.275  22.502  0.00  0.00    +0.040 A 
ATOM     24  C16 UNL     1       9.311   2.548  23.342  0.00  0.00    +0.013 A 
ATOM     25  C17 UNL     1       9.593   1.220  23.667  0.00  0.00    +0.004 A 
ATOM     26  C18 UNL     1      10.734   0.600  23.154  0.00  0.00    +0.045 A 
ATOM     27  C19 UNL     1      11.601   1.297  22.307  0.00  0.00    +0.121 A 
ATOM     28  C21 UNL     1      11.315   2.637  21.979  0.00  0.00    +0.058 A 
BRANCH  27  29
ATOM     29  O5  UNL     1      12.728   0.625  21.812  0.00  0.00    -0.495 OA
ATOM     30  C20 UNL     1      14.075   0.977  22.116  0.00  0.00    +0.277 C 
ENDBRANCH  27  29
ENDBRANCH  20  23
ENDBRANCH   5  19
BRANCH   4  31
ATOM     31  O3  UNL     1       7.454   6.711  20.689  0.00  0.00    -0.493 OA
ATOM     32  C12 UNL     1       6.108   6.261  20.574  0.00  0.00    +0.277 C 
ENDBRANCH   4  31
TORSDOF 7
ENDMDL
MODEL 9
REMARK VINA RESULT:    -6.061      2.572      5.327
REMARK INTER + INTRA:          -9.472
REMARK INTER:                  -8.558
REMARK INTRA:                  -0.915
REMARK UNBOUND:                -0.932
REMARK  Name = /home/qwerty/github/datacon2025hack/step_04_hit_selection/docking/ligands/lig_111.pdb
REMARK  10 active torsions:
REMARK  status: ('A' for Active; 'I' for Inactive)
REMARK    1  A    between atoms: C1_1  and  O1_2
REMARK    2  A    between atoms: O1_2  and  C2_3
REMARK    3  A    between atoms: C6_7  and  C7_8
REMARK    4  A    between atoms: N1_10  and  C8_11
REMARK    5  A    between atoms: C11_14  and  O3_15
REMARK    6  A    between atoms: O3_15  and  C12_16
REMARK    7  A    between atoms: C13_17  and  N2_18
REMARK    8  A    between atoms: C14_19  and  C15_21
REMARK    9  A    between atoms: C19_25  and  O5_26
REMARK   10  A    between atoms: O5_26  and  C20_27
REMARK                            x       y       z     vdW  Elec       q    Type
REMARK                         _______ _______ _______ _____ _____    ______ ____
ROOT
ATOM      1  C8  UNL     1      20.976   4.887  22.649  0.00  0.00    +0.036 A 
ATOM      2  C9  UNL     1      19.939   4.703  21.728  0.00  0.00    +0.027 A 
ATOM      3  C10 UNL     1      18.792   3.991  22.083  0.00  0.00    +0.049 A 
ATOM      4  C11 UNL     1      18.658   3.453  23.378  0.00  0.00    +0.141 A 
ATOM      5  C13 UNL     1      19.693   3.638  24.314  0.00  0.00    +0.078 A 
ATOM      6  C22 UNL     1      20.836   4.374  23.949  0.00  0.00    +0.050 A 
ENDROOT
BRANCH   1   9
ATOM      7  C7  UNL     1      22.104   7.061  21.996  0.00  0.00    +0.248 C 
ATOM      8  O2  UNL     1      21.171   7.769  22.469  0.00  0.00    -0.270 OA
ATOM      9  N1  UNL     1      22.134   5.650  22.267  0.00  0.00    -0.281 N 
ATOM     10  H7  UNL     1      23.064   5.176  22.300  0.00  0.00    +0.155 HD
BRANCH   7  15
ATOM     11  C2  UNL     1      23.975   9.571  19.831  0.00  0.00    +0.121 A 
ATOM     12  C3  UNL     1      25.212   8.932  19.697  0.00  0.00    +0.045 A 
ATOM     13  C4  UNL     1      25.439   7.694  20.300  0.00  0.00    +0.004 A 
ATOM     14  C5  UNL     1      24.432   7.082  21.049  0.00  0.00    +0.013 A 
ATOM     15  C6  UNL     1      23.183   7.708  21.209  0.00  0.00    +0.040 A 
ATOM     16  C23 UNL     1      22.959   8.952  20.588  0.00  0.00    +0.058 A 
BRANCH  11  18
ATOM     17  C1  UNL     1      23.538  12.033  19.891  0.00  0.00    +0.277 C 
ATOM     18  O1  UNL     1      23.797  10.812  19.203  0.00  0.00    -0.495 OA
ENDBRANCH  11  18
ENDBRANCH   7  15
ENDBRANCH   1   9
BRANCH   5  19
ATOM     19  N2  UNL     1      19.549   3.128  25.652  0.00  0.00    -0.279 N 
ATOM     20  C14 UNL     1      20.096   1.869  26.081  0.00  0.00    +0.248 C 
ATOM     21  O4  UNL     1      20.378   0.986  25.225  0.00  0.00    -0.270 OA
ATOM     22  H13 UNL     1      18.931   3.646  26.316  0.00  0.00    +0.155 HD
BRANCH  20  23
ATOM     23  C15 UNL     1      20.290   1.576  27.522  0.00  0.00    +0.040 A 
ATOM     24  C16 UNL     1      19.177   1.404  28.364  0.00  0.00    +0.013 A 
ATOM     25  C17 UNL     1      19.351   1.123  29.720  0.00  0.00    +0.004 A 
ATOM     26  C18 UNL     1      20.637   1.004  30.252  0.00  0.00    +0.045 A 
ATOM     27  C19 UNL     1      21.761   1.158  29.435  0.00  0.00    +0.121 A 
ATOM     28  C21 UNL     1      21.583   1.442  28.066  0.00  0.00    +0.058 A 
BRANCH  27  29
ATOM     29  O5  UNL     1      23.029   1.020  30.016  0.00  0.00    -0.495 OA
ATOM     30  C20 UNL     1      24.211   0.672  29.301  0.00  0.00    +0.277 C 
ENDBRANCH  27  29
ENDBRANCH  20  23
ENDBRANCH   5  19
BRANCH   4  31
ATOM     31  O3  UNL     1      17.518   2.728  23.762  0.00  0.00    -0.493 OA
ATOM     32  C12 UNL     1      17.247   1.384  23.380  0.00  0.00    +0.277 C 
ENDBRANCH   4  31
TORSDOF 7
ENDMDL
