MODEL 1
REMARK VINA RESULT:    -7.416      0.000      0.000
REMARK INTER + INTRA:         -11.310
REMARK INTER:                 -10.235
REMARK INTRA:                  -1.075
REMARK UNBOUND:                -1.075
REMARK  Name = /home/qwerty/github/datacon2025hack/step_04_hit_selection/docking/ligands/lig_805.pdb
REMARK  8 active torsions:
REMARK  status: ('A' for Active; 'I' for Inactive)
REMARK    1  A    between atoms: C1_1  and  C2_2
REMARK    2  A    between atoms: C2_2  and  C3_3
REMARK    3  A    between atoms: C2_2  and  N1_10
REMARK    4  A    between atoms: C12_14  and  N2_15
REMARK    5  A    between atoms: N3_18  and  C14_19
REMARK    6  A    between atoms: C14_19  and  C15_20
REMARK    7  A    between atoms: C15_20  and  O2_21
REMARK    8  A    between atoms: C15_20  and  C16_22
REMARK                            x       y       z     vdW  Elec       q    Type
REMARK                         _______ _______ _______ _____ _____    ______ ____
ROOT
ATOM      1  N2  UNL     1      20.860   5.678  33.160  0.00  0.00    -0.288 N 
ATOM      2  C13 UNL     1      21.431   6.433  34.237  0.00  0.00    +0.300 C 
ATOM      3  O1  UNL     1      22.116   5.853  35.124  0.00  0.00    -0.253 OA
ATOM      4  N3  UNL     1      21.223   7.852  34.297  0.00  0.00    -0.297 N 
ATOM      5  H16 UNL     1      20.309   6.192  32.436  0.00  0.00    +0.151 HD
ATOM      6  H17 UNL     1      20.715   8.319  33.513  0.00  0.00    +0.150 HD
ENDROOT
BRANCH   1  11
ATOM      7  N1  UNL     1      20.984   2.387  31.341  0.00  0.00    -0.293 N 
ATOM      8  C9  UNL     1      20.724   1.462  32.453  0.00  0.00    +0.108 C 
ATOM      9  C10 UNL     1      19.648   2.019  33.406  0.00  0.00    +0.021 C 
ATOM     10  C11 UNL     1      19.645   3.561  33.537  0.00  0.00    +0.033 C 
ATOM     11  C12 UNL     1      20.964   4.216  33.088  0.00  0.00    +0.161 C 
ATOM     12  C24 UNL     1      21.261   3.757  31.685  0.00  0.00    +0.236 C 
ATOM     13  O4  UNL     1      21.763   4.547  30.840  0.00  0.00    -0.274 OA
BRANCH   7  15
ATOM     14  C1  UNL     1      19.519   1.379  29.624  0.00  0.00    +0.033 C 
ATOM     15  C2  UNL     1      20.912   1.946  29.936  0.00  0.00    +0.103 C 
BRANCH  15  16
ATOM     16  C3  UNL     1      22.064   1.003  29.615  0.00  0.00    -0.027 A 
ATOM     17  C4  UNL     1      23.411   1.424  29.601  0.00  0.00    +0.008 A 
ATOM     18  C5  UNL     1      24.427   0.529  29.254  0.00  0.00    +0.038 A 
ATOM     19  C6  UNL     1      24.117  -0.787  28.906  0.00  0.00    +0.123 A 
ATOM     20  F1  UNL     1      25.106  -1.651  28.569  0.00  0.00    -0.205 F 
ATOM     21  C7  UNL     1      22.787  -1.211  28.901  0.00  0.00    +0.038 A 
ATOM     22  C8  UNL     1      21.766  -0.321  29.247  0.00  0.00    +0.008 A 
ENDBRANCH  15  16
ENDBRANCH   7  15
ENDBRANCH   1  11
BRANCH   4  23
ATOM     23  C14 UNL     1      21.731   8.686  35.386  0.00  0.00    +0.141 C 
BRANCH  23  24
ATOM     24  C15 UNL     1      20.767   8.666  36.588  0.00  0.00    +0.162 C 
BRANCH  24  25
ATOM     25  C16 UNL     1      19.811   9.843  36.560  0.00  0.00    -0.017 A 
ATOM     26  C17 UNL     1      20.205  11.063  35.955  0.00  0.00    +0.010 A 
ATOM     27  C18 UNL     1      19.327  12.158  35.913  0.00  0.00    +0.046 A 
ATOM     28  C19 UNL     1      18.062  12.011  36.476  0.00  0.00    +0.124 A 
ATOM     29  C20 UNL     1      17.667  10.842  37.057  0.00  0.00    -0.002 A 
ATOM     30  C21 UNL     1      18.515   9.736  37.117  0.00  0.00    +0.013 A 
ATOM     31  C22 UNL     1      16.276  10.975  37.565  0.00  0.00    +0.080 C 
ATOM     32  C23 UNL     1      15.919  12.436  37.194  0.00  0.00    +0.234 C 
ATOM     33  O3  UNL     1      17.069  12.963  36.533  0.00  0.00    -0.491 OA
ENDBRANCH  24  25
BRANCH  24  34
ATOM     34  O2  UNL     1      21.461   8.626  37.810  0.00  0.00    -0.386 OA
ATOM     35  H21 UNL     1      21.042   7.928  38.377  0.00  0.00    +0.210 HD
ENDBRANCH  24  34
ENDBRANCH  23  24
ENDBRANCH   4  23
TORSDOF 7
ENDMDL
MODEL 2
REMARK VINA RESULT:    -7.348      8.151     11.515
REMARK INTER + INTRA:         -11.215
REMARK INTER:                 -10.393
REMARK INTRA:                  -0.821
REMARK UNBOUND:                -1.075
REMARK  Name = /home/qwerty/github/datacon2025hack/step_04_hit_selection/docking/ligands/lig_805.pdb
REMARK  8 active torsions:
REMARK  status: ('A' for Active; 'I' for Inactive)
REMARK    1  A    between atoms: C1_1  and  C2_2
REMARK    2  A    between atoms: C2_2  and  C3_3
REMARK    3  A    between atoms: C2_2  and  N1_10
REMARK    4  A    between atoms: C12_14  and  N2_15
REMARK    5  A    between atoms: N3_18  and  C14_19
REMARK    6  A    between atoms: C14_19  and  C15_20
REMARK    7  A    between atoms: C15_20  and  O2_21
REMARK    8  A    between atoms: C15_20  and  C16_22
REMARK                            x       y       z     vdW  Elec       q    Type
REMARK                         _______ _______ _______ _____ _____    ______ ____
ROOT
ATOM      1  N2  UNL     1      21.678   3.403  24.636  0.00  0.00    -0.288 N 
ATOM      2  C13 UNL     1      21.596   4.763  24.189  0.00  0.00    +0.300 C 
ATOM      3  O1  UNL     1      20.883   5.595  24.818  0.00  0.00    -0.253 OA
ATOM      4  N3  UNL     1      22.330   5.174  23.027  0.00  0.00    -0.297 N 
ATOM      5  H16 UNL     1      22.287   2.745  24.100  0.00  0.00    +0.151 HD
ATOM      6  H17 UNL     1      22.969   4.487  22.568  0.00  0.00    +0.150 HD
ENDROOT
BRANCH   1  11
ATOM      7  N1  UNL     1      21.234   1.645  27.932  0.00  0.00    -0.293 N 
ATOM      8  C9  UNL     1      19.783   1.418  27.916  0.00  0.00    +0.108 C 
ATOM      9  C10 UNL     1      19.293   1.013  26.511  0.00  0.00    +0.021 C 
ATOM     10  C11 UNL     1      20.087   1.652  25.348  0.00  0.00    +0.033 C 
ATOM     11  C12 UNL     1      20.886   2.902  25.765  0.00  0.00    +0.161 C 
ATOM     12  C24 UNL     1      21.766   2.527  26.928  0.00  0.00    +0.236 C 
ATOM     13  O4  UNL     1      22.933   2.996  27.031  0.00  0.00    -0.274 OA
BRANCH   7  15
ATOM     14  C1  UNL     1      22.290  -0.517  28.504  0.00  0.00    +0.033 C 
ATOM     15  C2  UNL     1      22.113   0.958  28.898  0.00  0.00    +0.103 C 
BRANCH  15  16
ATOM     16  C3  UNL     1      21.615   1.177  30.319  0.00  0.00    -0.027 A 
ATOM     17  C4  UNL     1      20.711   0.298  30.953  0.00  0.00    +0.008 A 
ATOM     18  C5  UNL     1      20.247   0.570  32.243  0.00  0.00    +0.038 A 
ATOM     19  C6  UNL     1      20.667   1.721  32.913  0.00  0.00    +0.123 A 
ATOM     20  F1  UNL     1      20.215   1.982  34.165  0.00  0.00    -0.205 F 
ATOM     21  C7  UNL     1      21.550   2.606  32.291  0.00  0.00    +0.038 A 
ATOM     22  C8  UNL     1      22.016   2.340  31.000  0.00  0.00    +0.008 A 
ENDBRANCH  15  16
ENDBRANCH   7  15
ENDBRANCH   1  11
BRANCH   4  23
ATOM     23  C14 UNL     1      22.263   6.530  22.480  0.00  0.00    +0.141 C 
BRANCH  23  24
ATOM     24  C15 UNL     1      23.287   6.713  21.342  0.00  0.00    +0.162 C 
BRANCH  24  25
ATOM     25  C16 UNL     1      23.487   8.176  20.998  0.00  0.00    -0.017 A 
ATOM     26  C17 UNL     1      24.788   8.668  20.718  0.00  0.00    +0.010 A 
ATOM     27  C18 UNL     1      24.986  10.018  20.390  0.00  0.00    +0.046 A 
ATOM     28  C19 UNL     1      23.875  10.857  20.343  0.00  0.00    +0.124 A 
ATOM     29  C20 UNL     1      22.618  10.397  20.604  0.00  0.00    -0.002 A 
ATOM     30  C21 UNL     1      22.386   9.062  20.935  0.00  0.00    +0.013 A 
ATOM     31  C22 UNL     1      21.637  11.506  20.475  0.00  0.00    +0.080 C 
ATOM     32  C23 UNL     1      22.537  12.711  20.102  0.00  0.00    +0.234 C 
ATOM     33  O3  UNL     1      23.869  12.200  20.042  0.00  0.00    -0.491 OA
ENDBRANCH  24  25
BRANCH  24  34
ATOM     34  O2  UNL     1      22.926   5.983  20.196  0.00  0.00    -0.386 OA
ATOM     35  H21 UNL     1      23.393   5.108  20.231  0.00  0.00    +0.210 HD
ENDBRANCH  24  34
ENDBRANCH  23  24
ENDBRANCH   4  23
TORSDOF 7
ENDMDL
MODEL 3
REMARK VINA RESULT:    -7.282      9.621     13.194
REMARK INTER + INTRA:         -11.124
REMARK INTER:                 -10.247
REMARK INTRA:                  -0.878
REMARK UNBOUND:                -1.075
REMARK  Name = /home/qwerty/github/datacon2025hack/step_04_hit_selection/docking/ligands/lig_805.pdb
REMARK  8 active torsions:
REMARK  status: ('A' for Active; 'I' for Inactive)
REMARK    1  A    between atoms: C1_1  and  C2_2
REMARK    2  A    between atoms: C2_2  and  C3_3
REMARK    3  A    between atoms: C2_2  and  N1_10
REMARK    4  A    between atoms: C12_14  and  N2_15
REMARK    5  A    between atoms: N3_18  and  C14_19
REMARK    6  A    between atoms: C14_19  and  C15_20
REMARK    7  A    between atoms: C15_20  and  O2_21
REMARK    8  A    between atoms: C15_20  and  C16_22
REMARK                            x       y       z     vdW  Elec       q    Type
REMARK                         _______ _______ _______ _____ _____    ______ ____
ROOT
ATOM      1  N2  UNL     1      21.772   5.199  22.694  0.00  0.00    -0.288 N 
ATOM      2  C13 UNL     1      21.949   4.752  24.045  0.00  0.00    +0.300 C 
ATOM      3  O1  UNL     1      22.233   5.580  24.954  0.00  0.00    -0.253 OA
ATOM      4  N3  UNL     1      21.798   3.360  24.357  0.00  0.00    -0.297 N 
ATOM      5  H16 UNL     1      21.525   4.488  21.969  0.00  0.00    +0.151 HD
ATOM      6  H17 UNL     1      21.492   2.706  23.603  0.00  0.00    +0.150 HD
ENDROOT
BRANCH   1  11
ATOM      7  N1  UNL     1      20.937   8.348  20.813  0.00  0.00    -0.293 N 
ATOM      8  C9  UNL     1      22.212   9.070  20.931  0.00  0.00    +0.108 C 
ATOM      9  C10 UNL     1      23.414   8.118  20.770  0.00  0.00    +0.021 C 
ATOM     10  C11 UNL     1      23.172   6.687  21.304  0.00  0.00    +0.033 C 
ATOM     11  C12 UNL     1      21.996   6.594  22.295  0.00  0.00    +0.161 C 
ATOM     12  C24 UNL     1      20.776   7.175  21.630  0.00  0.00    +0.236 C 
ATOM     13  O4  UNL     1      19.638   6.660  21.806  0.00  0.00    -0.274 OA
BRANCH   7  15
ATOM     14  C1  UNL     1      20.155   8.171  18.475  0.00  0.00    +0.033 C 
ATOM     15  C2  UNL     1      19.893   8.774  19.863  0.00  0.00    +0.103 C 
BRANCH  15  16
ATOM     16  C3  UNL     1      19.748  10.289  19.876  0.00  0.00    -0.027 A 
ATOM     17  C4  UNL     1      20.279  11.114  18.861  0.00  0.00    +0.008 A 
ATOM     18  C5  UNL     1      20.159  12.504  18.945  0.00  0.00    +0.038 A 
ATOM     19  C6  UNL     1      19.521  13.091  20.040  0.00  0.00    +0.123 A 
ATOM     20  F1  UNL     1      19.407  14.440  20.117  0.00  0.00    -0.205 F 
ATOM     21  C7  UNL     1      19.005  12.286  21.058  0.00  0.00    +0.038 A 
ATOM     22  C8  UNL     1      19.122  10.895  20.980  0.00  0.00    +0.008 A 
ENDBRANCH  15  16
ENDBRANCH   7  15
ENDBRANCH   1  11
BRANCH   4  23
ATOM     23  C14 UNL     1      22.008   2.817  25.700  0.00  0.00    +0.141 C 
BRANCH  23  24
ATOM     24  C15 UNL     1      20.801   1.966  26.142  0.00  0.00    +0.162 C 
BRANCH  24  25
ATOM     25  C16 UNL     1      20.886   1.592  27.609  0.00  0.00    -0.017 A 
ATOM     26  C17 UNL     1      22.151   1.394  28.219  0.00  0.00    +0.010 A 
ATOM     27  C18 UNL     1      22.244   1.057  29.578  0.00  0.00    +0.046 A 
ATOM     28  C19 UNL     1      21.066   0.926  30.309  0.00  0.00    +0.124 A 
ATOM     29  C20 UNL     1      19.843   1.118  29.738  0.00  0.00    -0.002 A 
ATOM     30  C21 UNL     1      19.714   1.453  28.389  0.00  0.00    +0.013 A 
ATOM     31  C22 UNL     1      18.774   0.918  30.751  0.00  0.00    +0.080 C 
ATOM     32  C23 UNL     1      19.580   0.559  32.025  0.00  0.00    +0.234 C 
ATOM     33  O3  UNL     1      20.955   0.602  31.642  0.00  0.00    -0.491 OA
ENDBRANCH  24  25
BRANCH  24  34
ATOM     34  O2  UNL     1      20.659   0.815  25.348  0.00  0.00    -0.386 OA
ATOM     35  H21 UNL     1      21.521   0.325  25.364  0.00  0.00    +0.210 HD
ENDBRANCH  24  34
ENDBRANCH  23  24
ENDBRANCH   4  23
TORSDOF 7
ENDMDL
MODEL 4
REMARK VINA RESULT:    -7.242     13.522     15.060
REMARK INTER + INTRA:         -11.069
REMARK INTER:                  -9.970
REMARK INTRA:                  -1.100
REMARK UNBOUND:                -1.075
REMARK  Name = /home/qwerty/github/datacon2025hack/step_04_hit_selection/docking/ligands/lig_805.pdb
REMARK  8 active torsions:
REMARK  status: ('A' for Active; 'I' for Inactive)
REMARK    1  A    between atoms: C1_1  and  C2_2
REMARK    2  A    between atoms: C2_2  and  C3_3
REMARK    3  A    between atoms: C2_2  and  N1_10
REMARK    4  A    between atoms: C12_14  and  N2_15
REMARK    5  A    between atoms: N3_18  and  C14_19
REMARK    6  A    between atoms: C14_19  and  C15_20
REMARK    7  A    between atoms: C15_20  and  O2_21
REMARK    8  A    between atoms: C15_20  and  C16_22
REMARK                            x       y       z     vdW  Elec       q    Type
REMARK                         _______ _______ _______ _____ _____    ______ ____
ROOT
ATOM      1  N2  UNL     1       7.629   8.927  26.920  0.00  0.00    -0.288 N 
ATOM      2  C13 UNL     1       8.266   9.877  27.785  0.00  0.00    +0.300 C 
ATOM      3  O1  UNL     1       9.517  10.043  27.730  0.00  0.00    -0.253 OA
ATOM      4  N3  UNL     1       7.475  10.639  28.708  0.00  0.00    -0.297 N 
ATOM      5  H16 UNL     1       6.591   8.824  26.982  0.00  0.00    +0.151 HD
ATOM      6  H17 UNL     1       6.436  10.537  28.683  0.00  0.00    +0.150 HD
ENDROOT
BRANCH   1  11
ATOM      7  N1  UNL     1       8.510   7.506  23.550  0.00  0.00    -0.293 N 
ATOM      8  C9  UNL     1       9.272   6.318  23.957  0.00  0.00    +0.108 C 
ATOM      9  C10 UNL     1       8.629   5.629  25.177  0.00  0.00    +0.021 C 
ATOM     10  C11 UNL     1       7.931   6.595  26.163  0.00  0.00    +0.033 C 
ATOM     11  C12 UNL     1       8.390   8.058  26.015  0.00  0.00    +0.161 C 
ATOM     12  C24 UNL     1       8.201   8.465  24.577  0.00  0.00    +0.236 C 
ATOM     13  O4  UNL     1       7.805   9.625  24.282  0.00  0.00    -0.274 OA
BRANCH   7  15
ATOM     14  C1  UNL     1       7.516   6.351  21.603  0.00  0.00    +0.033 C 
ATOM     15  C2  UNL     1       8.036   7.683  22.164  0.00  0.00    +0.103 C 
BRANCH  15  16
ATOM     16  C3  UNL     1       9.110   8.350  21.316  0.00  0.00    -0.027 A 
ATOM     17  C4  UNL     1      10.253   7.661  20.856  0.00  0.00    +0.008 A 
ATOM     18  C5  UNL     1      11.233   8.332  20.119  0.00  0.00    +0.038 A 
ATOM     19  C6  UNL     1      11.095   9.694  19.841  0.00  0.00    +0.123 A 
ATOM     20  F1  UNL     1      12.049  10.341  19.127  0.00  0.00    -0.205 F 
ATOM     21  C7  UNL     1       9.976  10.389  20.304  0.00  0.00    +0.038 A 
ATOM     22  C8  UNL     1       8.992   9.724  21.041  0.00  0.00    +0.008 A 
ENDBRANCH  15  16
ENDBRANCH   7  15
ENDBRANCH   1  11
BRANCH   4  23
ATOM     23  C14 UNL     1       8.054  11.593  29.655  0.00  0.00    +0.141 C 
BRANCH  23  24
ATOM     24  C15 UNL     1       8.185  12.989  29.016  0.00  0.00    +0.162 C 
BRANCH  24  25
ATOM     25  C16 UNL     1       9.622  13.473  29.013  0.00  0.00    -0.017 A 
ATOM     26  C17 UNL     1      10.343  13.561  30.231  0.00  0.00    +0.010 A 
ATOM     27  C18 UNL     1      11.677  13.998  30.242  0.00  0.00    +0.046 A 
ATOM     28  C19 UNL     1      12.271  14.338  29.029  0.00  0.00    +0.124 A 
ATOM     29  C20 UNL     1      11.592  14.253  27.850  0.00  0.00    -0.002 A 
ATOM     30  C21 UNL     1      10.265  13.824  27.803  0.00  0.00    +0.013 A 
ATOM     31  C22 UNL     1      12.473  14.671  26.727  0.00  0.00    +0.080 C 
ATOM     32  C23 UNL     1      13.794  15.032  27.452  0.00  0.00    +0.234 C 
ATOM     33  O3  UNL     1      13.559  14.784  28.838  0.00  0.00    -0.491 OA
ENDBRANCH  24  25
BRANCH  24  34
ATOM     34  O2  UNL     1       7.351  13.929  29.647  0.00  0.00    -0.386 OA
ATOM     35  H21 UNL     1       6.687  14.245  28.980  0.00  0.00    +0.210 HD
ENDBRANCH  24  34
ENDBRANCH  23  24
ENDBRANCH   4  23
TORSDOF 7
ENDMDL
MODEL 5
REMARK VINA RESULT:    -7.205      7.448     11.838
REMARK INTER + INTRA:         -11.018
REMARK INTER:                  -9.945
REMARK INTRA:                  -1.073
REMARK UNBOUND:                -1.075
REMARK  Name = /home/qwerty/github/datacon2025hack/step_04_hit_selection/docking/ligands/lig_805.pdb
REMARK  8 active torsions:
REMARK  status: ('A' for Active; 'I' for Inactive)
REMARK    1  A    between atoms: C1_1  and  C2_2
REMARK    2  A    between atoms: C2_2  and  C3_3
REMARK    3  A    between atoms: C2_2  and  N1_10
REMARK    4  A    between atoms: C12_14  and  N2_15
REMARK    5  A    between atoms: N3_18  and  C14_19
REMARK    6  A    between atoms: C14_19  and  C15_20
REMARK    7  A    between atoms: C15_20  and  O2_21
REMARK    8  A    between atoms: C15_20  and  C16_22
REMARK                            x       y       z     vdW  Elec       q    Type
REMARK                         _______ _______ _______ _____ _____    ______ ____
ROOT
ATOM      1  N2  UNL     1      21.718   3.420  24.624  0.00  0.00    -0.288 N 
ATOM      2  C13 UNL     1      21.292   4.627  23.977  0.00  0.00    +0.300 C 
ATOM      3  O1  UNL     1      20.239   5.211  24.356  0.00  0.00    -0.253 OA
ATOM      4  N3  UNL     1      22.073   5.170  22.902  0.00  0.00    -0.297 N 
ATOM      5  H16 UNL     1      22.601   2.970  24.293  0.00  0.00    +0.151 HD
ATOM      6  H17 UNL     1      22.978   4.710  22.656  0.00  0.00    +0.150 HD
ENDROOT
BRANCH   1  11
ATOM      7  N1  UNL     1      21.277   1.460  27.804  0.00  0.00    -0.293 N 
ATOM      8  C9  UNL     1      19.869   1.059  27.672  0.00  0.00    +0.108 C 
ATOM      9  C10 UNL     1      19.531   0.666  26.220  0.00  0.00    +0.021 C 
ATOM     10  C11 UNL     1      20.315   1.455  25.145  0.00  0.00    +0.033 C 
ATOM     11  C12 UNL     1      20.920   2.770  25.670  0.00  0.00    +0.161 C 
ATOM     12  C24 UNL     1      21.761   2.449  26.878  0.00  0.00    +0.236 C 
ATOM     13  O4  UNL     1      22.849   3.051  27.085  0.00  0.00    -0.274 OA
BRANCH   7  15
ATOM     14  C1  UNL     1      22.381  -0.647  28.477  0.00  0.00    +0.033 C 
ATOM     15  C2  UNL     1      22.167   0.839  28.802  0.00  0.00    +0.103 C 
BRANCH  15  16
ATOM     16  C3  UNL     1      21.658   1.111  30.211  0.00  0.00    -0.027 A 
ATOM     17  C4  UNL     1      20.737   0.264  30.864  0.00  0.00    +0.008 A 
ATOM     18  C5  UNL     1      20.265   0.583  32.140  0.00  0.00    +0.038 A 
ATOM     19  C6  UNL     1      20.692   1.751  32.776  0.00  0.00    +0.123 A 
ATOM     20  F1  UNL     1      20.230   2.058  34.014  0.00  0.00    -0.205 F 
ATOM     21  C7  UNL     1      21.591   2.604  32.134  0.00  0.00    +0.038 A 
ATOM     22  C8  UNL     1      22.067   2.290  30.858  0.00  0.00    +0.008 A 
ENDBRANCH  15  16
ENDBRANCH   7  15
ENDBRANCH   1  11
BRANCH   4  23
ATOM     23  C14 UNL     1      21.683   6.370  22.161  0.00  0.00    +0.141 C 
BRANCH  23  24
ATOM     24  C15 UNL     1      21.518   6.059  20.661  0.00  0.00    +0.162 C 
BRANCH  24  25
ATOM     25  C16 UNL     1      20.058   6.020  20.253  0.00  0.00    -0.017 A 
ATOM     26  C17 UNL     1      19.628   6.705  19.088  0.00  0.00    +0.010 A 
ATOM     27  C18 UNL     1      18.281   6.670  18.694  0.00  0.00    +0.046 A 
ATOM     28  C19 UNL     1      17.383   5.945  19.473  0.00  0.00    +0.124 A 
ATOM     29  C20 UNL     1      17.783   5.278  20.593  0.00  0.00    -0.002 A 
ATOM     30  C21 UNL     1      19.113   5.293  21.014  0.00  0.00    +0.013 A 
ATOM     31  C22 UNL     1      16.620   4.593  21.216  0.00  0.00    +0.080 C 
ATOM     32  C23 UNL     1      15.454   4.984  20.274  0.00  0.00    +0.234 C 
ATOM     33  O3  UNL     1      16.033   5.795  19.251  0.00  0.00    -0.491 OA
ENDBRANCH  24  25
BRANCH  24  34
ATOM     34  O2  UNL     1      22.160   4.859  20.306  0.00  0.00    -0.386 OA
ATOM     35  H21 UNL     1      21.477   4.140  20.291  0.00  0.00    +0.210 HD
ENDBRANCH  24  34
ENDBRANCH  23  24
ENDBRANCH   4  23
TORSDOF 7
ENDMDL
MODEL 6
REMARK VINA RESULT:    -7.092      6.848      8.035
REMARK INTER + INTRA:         -10.863
REMARK INTER:                 -10.078
REMARK INTRA:                  -0.784
REMARK UNBOUND:                -1.075
REMARK  Name = /home/qwerty/github/datacon2025hack/step_04_hit_selection/docking/ligands/lig_805.pdb
REMARK  8 active torsions:
REMARK  status: ('A' for Active; 'I' for Inactive)
REMARK    1  A    between atoms: C1_1  and  C2_2
REMARK    2  A    between atoms: C2_2  and  C3_3
REMARK    3  A    between atoms: C2_2  and  N1_10
REMARK    4  A    between atoms: C12_14  and  N2_15
REMARK    5  A    between atoms: N3_18  and  C14_19
REMARK    6  A    between atoms: C14_19  and  C15_20
REMARK    7  A    between atoms: C15_20  and  O2_21
REMARK    8  A    between atoms: C15_20  and  C16_22
REMARK                            x       y       z     vdW  Elec       q    Type
REMARK                         _______ _______ _______ _____ _____    ______ ____
ROOT
ATOM      1  N2  UNL     1      22.645   9.271  31.318  0.00  0.00    -0.288 N 
ATOM      2  C13 UNL     1      23.326  10.266  30.542  0.00  0.00    +0.300 C 
ATOM      3  O1  UNL     1      24.462  10.018  30.052  0.00  0.00    -0.253 OA
ATOM      4  N3  UNL     1      22.707  11.541  30.322  0.00  0.00    -0.297 N 
ATOM      5  H16 UNL     1      21.700   9.505  31.698  0.00  0.00    +0.151 HD
ATOM      6  H17 UNL     1      21.736  11.696  30.675  0.00  0.00    +0.150 HD
ENDROOT
BRANCH   1  11
ATOM      7  N1  UNL     1      22.565   5.582  32.053  0.00  0.00    -0.293 N 
ATOM      8  C9  UNL     1      23.894   5.405  32.654  0.00  0.00    +0.108 C 
ATOM      9  C10 UNL     1      24.254   6.585  33.580  0.00  0.00    +0.021 C 
ATOM     10  C11 UNL     1      23.675   7.948  33.132  0.00  0.00    +0.033 C 
ATOM     11  C12 UNL     1      23.260   7.980  31.649  0.00  0.00    +0.161 C 
ATOM     12  C24 UNL     1      22.306   6.841  31.406  0.00  0.00    +0.236 C 
ATOM     13  O4  UNL     1      21.319   6.980  30.633  0.00  0.00    -0.274 OA
BRANCH   7  15
ATOM     14  C1  UNL     1      21.509   3.939  33.569  0.00  0.00    +0.033 C 
ATOM     15  C2  UNL     1      21.526   4.541  32.155  0.00  0.00    +0.103 C 
BRANCH  15  16
ATOM     16  C3  UNL     1      21.684   3.520  31.037  0.00  0.00    -0.027 A 
ATOM     17  C4  UNL     1      22.282   2.258  31.237  0.00  0.00    +0.008 A 
ATOM     18  C5  UNL     1      22.446   1.375  30.165  0.00  0.00    +0.038 A 
ATOM     19  C6  UNL     1      22.028   1.740  28.884  0.00  0.00    +0.123 A 
ATOM     20  F1  UNL     1      22.189   0.881  27.847  0.00  0.00    -0.205 F 
ATOM     21  C7  UNL     1      21.449   2.993  28.670  0.00  0.00    +0.038 A 
ATOM     22  C8  UNL     1      21.282   3.879  29.738  0.00  0.00    +0.008 A 
ENDBRANCH  15  16
ENDBRANCH   7  15
ENDBRANCH   1  11
BRANCH   4  23
ATOM     23  C14 UNL     1      23.354  12.625  29.582  0.00  0.00    +0.141 C 
BRANCH  23  24
ATOM     24  C15 UNL     1      22.477  13.892  29.585  0.00  0.00    +0.162 C 
BRANCH  24  25
ATOM     25  C16 UNL     1      22.573  14.644  28.272  0.00  0.00    -0.017 A 
ATOM     26  C17 UNL     1      21.892  15.877  28.108  0.00  0.00    +0.010 A 
ATOM     27  C18 UNL     1      21.980  16.588  26.901  0.00  0.00    +0.046 A 
ATOM     28  C19 UNL     1      22.755  16.054  25.875  0.00  0.00    +0.124 A 
ATOM     29  C20 UNL     1      23.421  14.873  26.020  0.00  0.00    -0.002 A 
ATOM     30  C21 UNL     1      23.353  14.140  27.205  0.00  0.00    +0.013 A 
ATOM     31  C22 UNL     1      24.165  14.555  24.772  0.00  0.00    +0.080 C 
ATOM     32  C23 UNL     1      23.812  15.753  23.855  0.00  0.00    +0.234 C 
ATOM     33  O3  UNL     1      22.962  16.600  24.628  0.00  0.00    -0.491 OA
ENDBRANCH  24  25
BRANCH  24  34
ATOM     34  O2  UNL     1      22.792  14.739  30.662  0.00  0.00    -0.386 OA
ATOM     35  H21 UNL     1      21.965  15.222  30.923  0.00  0.00    +0.210 HD
ENDBRANCH  24  34
ENDBRANCH  23  24
ENDBRANCH   4  23
TORSDOF 7
ENDMDL
MODEL 7
REMARK VINA RESULT:    -7.043     12.358     14.120
REMARK INTER + INTRA:         -10.794
REMARK INTER:                  -9.546
REMARK INTRA:                  -1.248
REMARK UNBOUND:                -1.075
REMARK  Name = /home/qwerty/github/datacon2025hack/step_04_hit_selection/docking/ligands/lig_805.pdb
REMARK  8 active torsions:
REMARK  status: ('A' for Active; 'I' for Inactive)
REMARK    1  A    between atoms: C1_1  and  C2_2
REMARK    2  A    between atoms: C2_2  and  C3_3
REMARK    3  A    between atoms: C2_2  and  N1_10
REMARK    4  A    between atoms: C12_14  and  N2_15
REMARK    5  A    between atoms: N3_18  and  C14_19
REMARK    6  A    between atoms: C14_19  and  C15_20
REMARK    7  A    between atoms: C15_20  and  O2_21
REMARK    8  A    between atoms: C15_20  and  C16_22
REMARK                            x       y       z     vdW  Elec       q    Type
REMARK                         _______ _______ _______ _____ _____    ______ ____
ROOT
ATOM      1  N2  UNL     1      13.954   5.977  20.897  0.00  0.00    -0.288 N 
ATOM      2  C13 UNL     1      13.468   7.122  21.611  0.00  0.00    +0.300 C 
ATOM      3  O1  UNL     1      12.854   6.973  22.704  0.00  0.00    -0.253 OA
ATOM      4  N3  UNL     1      13.687   8.436  21.078  0.00  0.00    -0.297 N 
ATOM      5  H16 UNL     1      14.470   6.137  20.002  0.00  0.00    +0.151 HD
ATOM      6  H17 UNL     1      14.261   8.537  20.211  0.00  0.00    +0.150 HD
ENDROOT
BRANCH   1  11
ATOM      7  N1  UNL     1      14.755   2.315  21.218  0.00  0.00    -0.293 N 
ATOM      8  C9  UNL     1      13.441   1.793  21.618  0.00  0.00    +0.108 C 
ATOM      9  C10 UNL     1      12.302   2.486  20.845  0.00  0.00    +0.021 C 
ATOM     10  C11 UNL     1      12.578   3.966  20.489  0.00  0.00    +0.033 C 
ATOM     11  C12 UNL     1      13.688   4.605  21.345  0.00  0.00    +0.161 C 
ATOM     12  C24 UNL     1      14.919   3.744  21.233  0.00  0.00    +0.236 C 
ATOM     13  O4  UNL     1      16.067   4.264  21.179  0.00  0.00    -0.274 OA
BRANCH   7  15
ATOM     14  C1  UNL     1      15.395   0.622  19.533  0.00  0.00    +0.033 C 
ATOM     15  C2  UNL     1      15.838   1.420  20.769  0.00  0.00    +0.103 C 
BRANCH  15  16
ATOM     16  C3  UNL     1      16.337   0.567  21.926  0.00  0.00    -0.027 A 
ATOM     17  C4  UNL     1      16.926   1.122  23.082  0.00  0.00    +0.008 A 
ATOM     18  C5  UNL     1      17.411   0.292  24.097  0.00  0.00    +0.038 A 
ATOM     19  C6  UNL     1      17.326  -1.097  23.971  0.00  0.00    +0.123 A 
ATOM     20  F1  UNL     1      17.799  -1.899  24.957  0.00  0.00    -0.205 F 
ATOM     21  C7  UNL     1      16.759  -1.658  22.824  0.00  0.00    +0.038 A 
ATOM     22  C8  UNL     1      16.272  -0.832  21.807  0.00  0.00    +0.008 A 
ENDBRANCH  15  16
ENDBRANCH   7  15
ENDBRANCH   1  11
BRANCH   4  23
ATOM     23  C14 UNL     1      13.183   9.650  21.720  0.00  0.00    +0.141 C 
BRANCH  23  24
ATOM     24  C15 UNL     1      12.059  10.288  20.881  0.00  0.00    +0.162 C 
BRANCH  24  25
ATOM     25  C16 UNL     1      10.722  10.224  21.593  0.00  0.00    -0.017 A 
ATOM     26  C17 UNL     1       9.519  10.401  20.863  0.00  0.00    +0.010 A 
ATOM     27  C18 UNL     1       8.274  10.334  21.509  0.00  0.00    +0.046 A 
ATOM     28  C19 UNL     1       8.253  10.088  22.879  0.00  0.00    +0.124 A 
ATOM     29  C20 UNL     1       9.401   9.911  23.593  0.00  0.00    -0.002 A 
ATOM     30  C21 UNL     1      10.654   9.972  22.984  0.00  0.00    +0.013 A 
ATOM     31  C22 UNL     1       9.074   9.662  25.022  0.00  0.00    +0.080 C 
ATOM     32  C23 UNL     1       7.526   9.735  25.032  0.00  0.00    +0.234 C 
ATOM     33  O3  UNL     1       7.139   9.989  23.681  0.00  0.00    -0.491 OA
ENDBRANCH  24  25
BRANCH  24  34
ATOM     34  O2  UNL     1      11.966   9.701  19.607  0.00  0.00    -0.386 OA
ATOM     35  H21 UNL     1      12.757   9.986  19.080  0.00  0.00    +0.210 HD
ENDBRANCH  24  34
ENDBRANCH  23  24
ENDBRANCH   4  23
TORSDOF 7
ENDMDL
MODEL 8
REMARK VINA RESULT:    -7.032      6.201     11.866
REMARK INTER + INTRA:         -10.779
REMARK INTER:                 -10.099
REMARK INTRA:                  -0.679
REMARK UNBOUND:                -1.075
REMARK  Name = /home/qwerty/github/datacon2025hack/step_04_hit_selection/docking/ligands/lig_805.pdb
REMARK  8 active torsions:
REMARK  status: ('A' for Active; 'I' for Inactive)
REMARK    1  A    between atoms: C1_1  and  C2_2
REMARK    2  A    between atoms: C2_2  and  C3_3
REMARK    3  A    between atoms: C2_2  and  N1_10
REMARK    4  A    between atoms: C12_14  and  N2_15
REMARK    5  A    between atoms: N3_18  and  C14_19
REMARK    6  A    between atoms: C14_19  and  C15_20
REMARK    7  A    between atoms: C15_20  and  O2_21
REMARK    8  A    between atoms: C15_20  and  C16_22
REMARK                            x       y       z     vdW  Elec       q    Type
REMARK                         _______ _______ _______ _____ _____    ______ ____
ROOT
ATOM      1  N2  UNL     1      17.482  11.821  35.270  0.00  0.00    -0.288 N 
ATOM      2  C13 UNL     1      17.998  10.632  35.886  0.00  0.00    +0.300 C 
ATOM      3  O1  UNL     1      17.532  10.238  36.991  0.00  0.00    -0.253 OA
ATOM      4  N3  UNL     1      19.042   9.893  35.237  0.00  0.00    -0.297 N 
ATOM      5  H16 UNL     1      17.882  12.111  34.350  0.00  0.00    +0.151 HD
ATOM      6  H17 UNL     1      19.360  10.198  34.290  0.00  0.00    +0.150 HD
ENDROOT
BRANCH   1  11
ATOM      7  N1  UNL     1      14.005  13.178  35.739  0.00  0.00    -0.293 N 
ATOM      8  C9  UNL     1      14.294  14.363  36.560  0.00  0.00    +0.108 C 
ATOM      9  C10 UNL     1      15.573  15.079  36.082  0.00  0.00    +0.021 C 
ATOM     10  C11 UNL     1      16.655  14.136  35.502  0.00  0.00    +0.033 C 
ATOM     11  C12 UNL     1      16.475  12.666  35.923  0.00  0.00    +0.161 C 
ATOM     12  C24 UNL     1      15.079  12.240  35.551  0.00  0.00    +0.236 C 
ATOM     13  O4  UNL     1      14.855  11.080  35.108  0.00  0.00    -0.274 OA
BRANCH   7  15
ATOM     14  C1  UNL     1      11.911  14.309  35.068  0.00  0.00    +0.033 C 
ATOM     15  C2  UNL     1      12.693  12.986  35.095  0.00  0.00    +0.103 C 
BRANCH  15  16
ATOM     16  C3  UNL     1      11.948  11.826  35.739  0.00  0.00    -0.027 A 
ATOM     17  C4  UNL     1      11.666  11.776  37.121  0.00  0.00    +0.008 A 
ATOM     18  C5  UNL     1      11.020  10.665  37.671  0.00  0.00    +0.038 A 
ATOM     19  C6  UNL     1      10.657   9.589  36.859  0.00  0.00    +0.123 A 
ATOM     20  F1  UNL     1      10.032   8.512  37.397  0.00  0.00    -0.205 F 
ATOM     21  C7  UNL     1      10.944   9.620  35.493  0.00  0.00    +0.038 A 
ATOM     22  C8  UNL     1      11.590  10.728  34.937  0.00  0.00    +0.008 A 
ENDBRANCH  15  16
ENDBRANCH   7  15
ENDBRANCH   1  11
BRANCH   4  23
ATOM     23  C14 UNL     1      19.654   8.699  35.821  0.00  0.00    +0.141 C 
BRANCH  23  24
ATOM     24  C15 UNL     1      21.029   9.031  36.434  0.00  0.00    +0.162 C 
BRANCH  24  25
ATOM     25  C16 UNL     1      22.129   8.169  35.844  0.00  0.00    -0.017 A 
ATOM     26  C17 UNL     1      22.645   7.073  36.581  0.00  0.00    +0.010 A 
ATOM     27  C18 UNL     1      23.656   6.262  36.043  0.00  0.00    +0.046 A 
ATOM     28  C19 UNL     1      24.135   6.560  34.770  0.00  0.00    +0.124 A 
ATOM     29  C20 UNL     1      23.645   7.607  34.047  0.00  0.00    -0.002 A 
ATOM     30  C21 UNL     1      22.641   8.434  34.552  0.00  0.00    +0.013 A 
ATOM     31  C22 UNL     1      24.334   7.680  32.732  0.00  0.00    +0.080 C 
ATOM     32  C23 UNL     1      25.331   6.496  32.808  0.00  0.00    +0.234 C 
ATOM     33  O3  UNL     1      25.116   5.885  34.080  0.00  0.00    -0.491 OA
ENDBRANCH  24  25
BRANCH  24  34
ATOM     34  O2  UNL     1      21.014   8.918  37.835  0.00  0.00    -0.386 OA
ATOM     35  H21 UNL     1      20.141   9.260  38.160  0.00  0.00    +0.210 HD
ENDBRANCH  24  34
ENDBRANCH  23  24
ENDBRANCH   4  23
TORSDOF 7
ENDMDL
MODEL 9
REMARK VINA RESULT:    -6.873     11.912     13.475
REMARK INTER + INTRA:         -10.560
REMARK INTER:                  -9.793
REMARK INTRA:                  -0.767
REMARK UNBOUND:                -1.075
REMARK  Name = /home/qwerty/github/datacon2025hack/step_04_hit_selection/docking/ligands/lig_805.pdb
REMARK  8 active torsions:
REMARK  status: ('A' for Active; 'I' for Inactive)
REMARK    1  A    between atoms: C1_1  and  C2_2
REMARK    2  A    between atoms: C2_2  and  C3_3
REMARK    3  A    between atoms: C2_2  and  N1_10
REMARK    4  A    between atoms: C12_14  and  N2_15
REMARK    5  A    between atoms: N3_18  and  C14_19
REMARK    6  A    between atoms: C14_19  and  C15_20
REMARK    7  A    between atoms: C15_20  and  O2_21
REMARK    8  A    between atoms: C15_20  and  C16_22
REMARK                            x       y       z     vdW  Elec       q    Type
REMARK                         _______ _______ _______ _____ _____    ______ ____
ROOT
ATOM      1  N2  UNL     1      17.708  14.591  27.376  0.00  0.00    -0.288 N 
ATOM      2  C13 UNL     1      16.477  15.237  27.728  0.00  0.00    +0.300 C 
ATOM      3  O1  UNL     1      16.447  16.484  27.919  0.00  0.00    -0.253 OA
ATOM      4  N3  UNL     1      15.279  14.457  27.858  0.00  0.00    -0.297 N 
ATOM      5  H16 UNL     1      17.693  13.559  27.213  0.00  0.00    +0.151 HD
ATOM      6  H17 UNL     1      15.313  13.440  27.624  0.00  0.00    +0.150 HD
ENDROOT
BRANCH   1  11
ATOM      7  N1  UNL     1      21.424  14.850  26.853  0.00  0.00    -0.293 N 
ATOM      8  C9  UNL     1      21.684  16.163  27.460  0.00  0.00    +0.108 C 
ATOM      9  C10 UNL     1      20.856  16.361  28.746  0.00  0.00    +0.021 C 
ATOM     10  C11 UNL     1      19.472  15.669  28.728  0.00  0.00    +0.033 C 
ATOM     11  C12 UNL     1      18.981  15.318  27.311  0.00  0.00    +0.161 C 
ATOM     12  C24 UNL     1      20.047  14.495  26.637  0.00  0.00    +0.236 C 
ATOM     13  O4  UNL     1      19.738  13.534  25.881  0.00  0.00    -0.274 OA
BRANCH   7  15
ATOM     14  C1  UNL     1      23.535  13.866  27.682  0.00  0.00    +0.033 C 
ATOM     15  C2  UNL     1      22.520  13.918  26.530  0.00  0.00    +0.103 C 
BRANCH  15  16
ATOM     16  C3  UNL     1      23.121  14.254  25.173  0.00  0.00    -0.027 A 
ATOM     17  C4  UNL     1      22.857  13.493  24.014  0.00  0.00    +0.008 A 
ATOM     18  C5  UNL     1      23.472  13.816  22.801  0.00  0.00    +0.038 A 
ATOM     19  C6  UNL     1      24.363  14.889  22.728  0.00  0.00    +0.123 A 
ATOM     20  F1  UNL     1      24.959  15.199  21.549  0.00  0.00    -0.205 F 
ATOM     21  C7  UNL     1      24.645  15.640  23.871  0.00  0.00    +0.038 A 
ATOM     22  C8  UNL     1      24.033  15.321  25.087  0.00  0.00    +0.008 A 
ENDBRANCH  15  16
ENDBRANCH   7  15
ENDBRANCH   1  11
BRANCH   4  23
ATOM     23  C14 UNL     1      13.994  15.032  28.260  0.00  0.00    +0.141 C 
BRANCH  23  24
ATOM     24  C15 UNL     1      12.964  14.921  27.118  0.00  0.00    +0.162 C 
BRANCH  24  25
ATOM     25  C16 UNL     1      11.898  13.886  27.423  0.00  0.00    -0.017 A 
ATOM     26  C17 UNL     1      12.034  12.562  26.934  0.00  0.00    +0.010 A 
ATOM     27  C18 UNL     1      11.060  11.592  27.216  0.00  0.00    +0.046 A 
ATOM     28  C19 UNL     1       9.963  11.962  27.990  0.00  0.00    +0.124 A 
ATOM     29  C20 UNL     1       9.822  13.230  28.472  0.00  0.00    -0.002 A 
ATOM     30  C21 UNL     1      10.770  14.219  28.209  0.00  0.00    +0.013 A 
ATOM     31  C22 UNL     1       8.567  13.333  29.263  0.00  0.00    +0.080 C 
ATOM     32  C23 UNL     1       7.981  11.903  29.153  0.00  0.00    +0.234 C 
ATOM     33  O3  UNL     1       8.913  11.158  28.369  0.00  0.00    -0.491 OA
ENDBRANCH  24  25
BRANCH  24  34
ATOM     34  O2  UNL     1      13.582  14.643  25.887  0.00  0.00    -0.386 OA
ATOM     35  H21 UNL     1      12.877  14.626  25.188  0.00  0.00    +0.210 HD
ENDBRANCH  24  34
ENDBRANCH  23  24
ENDBRANCH   4  23
TORSDOF 7
ENDMDL
