MODEL 1
REMARK VINA RESULT:    -5.774      0.000      0.000
REMARK INTER + INTRA:          -7.592
REMARK INTER:                  -7.125
REMARK INTRA:                  -0.467
REMARK UNBOUND:                -0.467
REMARK  Name = /home/qwerty/github/datacon2025hack/step_04_hit_selection/docking/ligands/lig_489.pdb
REMARK  7 active torsions:
REMARK  status: ('A' for Active; 'I' for Inactive)
REMARK    1  A    between atoms: C1_1  and  C2_2
REMARK    2  A    between atoms: C2_2  and  C3_3
REMARK    3  A    between atoms: C2_2  and  C4_4
REMARK    4  A    between atoms: C9_12  and  C10_13
REMARK    5  A    between atoms: C10_13  and  N4_14
REMARK    6  A    between atoms: C15_19  and  C16_20
REMARK    7  A    between atoms: N5_22  and  C18_23
REMARK                            x       y       z     vdW  Elec       q    Type
REMARK                         _______ _______ _______ _____ _____    ______ ____
ROOT
ATOM      1  C4  UNL     1      21.424   6.493  35.024  0.00  0.00    +0.138 A 
ATOM      2  N1  UNL     1      20.210   6.260  35.565  0.00  0.00    -0.132 NA
ATOM      3  N2  UNL     1      19.638   5.299  34.856  0.00  0.00    -0.113 NA
ATOM      4  C5  UNL     1      20.519   4.950  33.899  0.00  0.00    +0.220 A 
ATOM      5  N3  UNL     1      20.300   3.849  33.002  0.00  0.00    -0.299 N 
ATOM      6  C6  UNL     1      19.007   3.716  32.326  0.00  0.00    +0.108 C 
ATOM      7  C7  UNL     1      18.306   2.399  32.705  0.00  0.00    +0.019 C 
ATOM      8  C8  UNL     1      19.262   1.333  33.268  0.00  0.00    +0.008 C 
ATOM      9  C9  UNL     1      20.670   1.393  32.640  0.00  0.00    +0.020 C 
ATOM     10  C17 UNL     1      21.309   2.782  32.890  0.00  0.00    +0.112 C 
ATOM     11  N5  UNL     1      21.646   5.689  33.958  0.00  0.00    -0.296 N 
ENDROOT
BRANCH   1  13
ATOM     12  C1  UNL     1      21.803   8.734  36.080  0.00  0.00    +0.015 C 
ATOM     13  C2  UNL     1      22.447   7.412  35.646  0.00  0.00    +0.051 C 
ATOM     14  C3  UNL     1      23.116   6.717  36.835  0.00  0.00    +0.015 C 
ENDBRANCH   1  13
BRANCH  11  15
ATOM     15  C18 UNL     1      22.851   5.593  33.129  0.00  0.00    +0.092 C 
ATOM     16  C19 UNL     1      23.407   6.942  32.691  0.00  0.00    +0.027 C 
ATOM     17  C20 UNL     1      22.664   6.074  31.695  0.00  0.00    +0.027 C 
ENDBRANCH  11  15
BRANCH   9  18
ATOM     18  C10 UNL     1      20.675   1.016  31.142  0.00  0.00    +0.089 C 
BRANCH  18  19
ATOM     19  N4  UNL     1      21.498   1.983  30.373  0.00  0.00    -0.299 NA
ATOM     20  C11 UNL     1      22.879   1.512  30.091  0.00  0.00    +0.084 C 
ATOM     21  C12 UNL     1      23.043   0.822  28.722  0.00  0.00    +0.015 C 
ATOM     22  C13 UNL     1      21.712   0.356  28.147  0.00  0.00    +0.003 C 
ATOM     23  C14 UNL     1      20.735   1.529  28.002  0.00  0.00    +0.018 C 
ATOM     24  C15 UNL     1      20.790   2.531  29.191  0.00  0.00    +0.054 C 
ATOM     25  C16 UNL     1      21.414   3.873  28.777  0.00  0.00    +0.024 C 
ENDBRANCH  18  19
ENDBRANCH   9  18
TORSDOF 4
ENDMDL
MODEL 2
REMARK VINA RESULT:    -5.622      4.965      9.906
REMARK INTER + INTRA:          -7.404
REMARK INTER:                  -7.204
REMARK INTRA:                  -0.199
REMARK UNBOUND:                -0.467
REMARK  Name = /home/qwerty/github/datacon2025hack/step_04_hit_selection/docking/ligands/lig_489.pdb
REMARK  7 active torsions:
REMARK  status: ('A' for Active; 'I' for Inactive)
REMARK    1  A    between atoms: C1_1  and  C2_2
REMARK    2  A    between atoms: C2_2  and  C3_3
REMARK    3  A    between atoms: C2_2  and  C4_4
REMARK    4  A    between atoms: C9_12  and  C10_13
REMARK    5  A    between atoms: C10_13  and  N4_14
REMARK    6  A    between atoms: C15_19  and  C16_20
REMARK    7  A    between atoms: N5_22  and  C18_23
REMARK                            x       y       z     vdW  Elec       q    Type
REMARK                         _______ _______ _______ _____ _____    ______ ____
ROOT
ATOM      1  C4  UNL     1      16.588   0.605  23.492  0.00  0.00    +0.138 A 
ATOM      2  N1  UNL     1      16.834   1.675  22.708  0.00  0.00    -0.132 NA
ATOM      3  N2  UNL     1      17.715   2.435  23.340  0.00  0.00    -0.113 NA
ATOM      4  C5  UNL     1      18.005   1.809  24.497  0.00  0.00    +0.220 A 
ATOM      5  N3  UNL     1      19.019   2.274  25.403  0.00  0.00    -0.299 N 
ATOM      6  C6  UNL     1      19.059   3.691  25.774  0.00  0.00    +0.108 C 
ATOM      7  C7  UNL     1      20.385   4.347  25.347  0.00  0.00    +0.019 C 
ATOM      8  C8  UNL     1      21.521   3.339  25.101  0.00  0.00    +0.008 C 
ATOM      9  C9  UNL     1      21.444   2.107  26.027  0.00  0.00    +0.020 C 
ATOM     10  C17 UNL     1      20.099   1.365  25.823  0.00  0.00    +0.112 C 
ATOM     11  N5  UNL     1      17.303   0.665  24.639  0.00  0.00    -0.296 N 
ENDROOT
BRANCH   1  13
ATOM     12  C1  UNL     1      14.353  -0.120  22.622  0.00  0.00    +0.015 C 
ATOM     13  C2  UNL     1      15.753  -0.572  23.051  0.00  0.00    +0.051 C 
ATOM     14  C3  UNL     1      16.458  -1.312  21.911  0.00  0.00    +0.015 C 
ENDBRANCH   1  13
BRANCH  11  15
ATOM     15  C18 UNL     1      17.361  -0.316  25.726  0.00  0.00    +0.092 C 
ATOM     16  C19 UNL     1      15.995  -0.817  26.177  0.00  0.00    +0.027 C 
ATOM     17  C20 UNL     1      16.758   0.168  27.040  0.00  0.00    +0.027 C 
ENDBRANCH  11  15
BRANCH   9  18
ATOM     18  C10 UNL     1      21.693   2.456  27.512  0.00  0.00    +0.089 C 
BRANCH  18  19
ATOM     19  N4  UNL     1      21.284   1.323  28.380  0.00  0.00    -0.299 NA
ATOM     20  C11 UNL     1      22.064   0.078  28.156  0.00  0.00    +0.084 C 
ATOM     21  C12 UNL     1      23.269  -0.089  29.104  0.00  0.00    +0.015 C 
ATOM     22  C13 UNL     1      23.687   1.228  29.746  0.00  0.00    +0.003 C 
ATOM     23  C14 UNL     1      22.522   1.853  30.524  0.00  0.00    +0.018 C 
ATOM     24  C15 UNL     1      21.149   1.708  29.805  0.00  0.00    +0.054 C 
ATOM     25  C16 UNL     1      20.226   0.720  30.534  0.00  0.00    +0.024 C 
ENDBRANCH  18  19
ENDBRANCH   9  18
TORSDOF 4
ENDMDL
MODEL 3
REMARK VINA RESULT:    -5.589     13.922     15.391
REMARK INTER + INTRA:          -7.363
REMARK INTER:                  -7.098
REMARK INTRA:                  -0.265
REMARK UNBOUND:                -0.467
REMARK  Name = /home/qwerty/github/datacon2025hack/step_04_hit_selection/docking/ligands/lig_489.pdb
REMARK  7 active torsions:
REMARK  status: ('A' for Active; 'I' for Inactive)
REMARK    1  A    between atoms: C1_1  and  C2_2
REMARK    2  A    between atoms: C2_2  and  C3_3
REMARK    3  A    between atoms: C2_2  and  C4_4
REMARK    4  A    between atoms: C9_12  and  C10_13
REMARK    5  A    between atoms: C10_13  and  N4_14
REMARK    6  A    between atoms: C15_19  and  C16_20
REMARK    7  A    between atoms: N5_22  and  C18_23
REMARK                            x       y       z     vdW  Elec       q    Type
REMARK                         _______ _______ _______ _____ _____    ______ ____
ROOT
ATOM      1  C4  UNL     1       9.527  11.923  27.662  0.00  0.00    +0.138 A 
ATOM      2  N1  UNL     1      10.749  12.291  27.224  0.00  0.00    -0.132 NA
ATOM      3  N2  UNL     1      11.152  11.373  26.359  0.00  0.00    -0.113 NA
ATOM      4  C5  UNL     1      10.162  10.464  26.271  0.00  0.00    +0.220 A 
ATOM      5  N3  UNL     1      10.185   9.373  25.336  0.00  0.00    -0.299 N 
ATOM      6  C6  UNL     1      11.396   8.558  25.209  0.00  0.00    +0.108 C 
ATOM      7  C7  UNL     1      11.978   8.633  23.786  0.00  0.00    +0.019 C 
ATOM      8  C8  UNL     1      10.961   9.097  22.728  0.00  0.00    +0.008 C 
ATOM      9  C9  UNL     1       9.521   8.634  23.032  0.00  0.00    +0.020 C 
ATOM     10  C17 UNL     1       9.060   9.182  24.405  0.00  0.00    +0.112 C 
ATOM     11  N5  UNL     1       9.131  10.763  27.089  0.00  0.00    -0.296 N 
ENDROOT
BRANCH   1  13
ATOM     12  C1  UNL     1       9.489  13.405  29.682  0.00  0.00    +0.015 C 
ATOM     13  C2  UNL     1       8.665  12.794  28.544  0.00  0.00    +0.051 C 
ATOM     14  C3  UNL     1       8.001  13.889  27.704  0.00  0.00    +0.015 C 
ENDBRANCH   1  13
BRANCH  11  15
ATOM     15  C18 UNL     1       7.859  10.055  27.256  0.00  0.00    +0.092 C 
ATOM     16  C19 UNL     1       7.416   9.919  28.708  0.00  0.00    +0.027 C 
ATOM     17  C20 UNL     1       7.977   8.716  27.975  0.00  0.00    +0.027 C 
ENDBRANCH  11  15
BRANCH   9  18
ATOM     18  C10 UNL     1       9.351   7.101  22.934  0.00  0.00    +0.089 C 
BRANCH  18  19
ATOM     19  N4  UNL     1       8.718   6.737  21.641  0.00  0.00    -0.299 NA
ATOM     20  C11 UNL     1       9.655   6.136  20.657  0.00  0.00    +0.084 C 
ATOM     21  C12 UNL     1       9.684   4.595  20.674  0.00  0.00    +0.015 C 
ATOM     22  C13 UNL     1       9.119   4.020  21.968  0.00  0.00    +0.003 C 
ATOM     23  C14 UNL     1       7.679   4.496  22.196  0.00  0.00    +0.018 C 
ATOM     24  C15 UNL     1       7.451   5.987  21.811  0.00  0.00    +0.054 C 
ATOM     25  C16 UNL     1       6.584   6.122  20.550  0.00  0.00    +0.024 C 
ENDBRANCH  18  19
ENDBRANCH   9  18
TORSDOF 4
ENDMDL
MODEL 4
REMARK VINA RESULT:    -5.489     13.920     16.476
REMARK INTER + INTRA:          -7.239
REMARK INTER:                  -6.738
REMARK INTRA:                  -0.501
REMARK UNBOUND:                -0.467
REMARK  Name = /home/qwerty/github/datacon2025hack/step_04_hit_selection/docking/ligands/lig_489.pdb
REMARK  7 active torsions:
REMARK  status: ('A' for Active; 'I' for Inactive)
REMARK    1  A    between atoms: C1_1  and  C2_2
REMARK    2  A    between atoms: C2_2  and  C3_3
REMARK    3  A    between atoms: C2_2  and  C4_4
REMARK    4  A    between atoms: C9_12  and  C10_13
REMARK    5  A    between atoms: C10_13  and  N4_14
REMARK    6  A    between atoms: C15_19  and  C16_20
REMARK    7  A    between atoms: N5_22  and  C18_23
REMARK                            x       y       z     vdW  Elec       q    Type
REMARK                         _______ _______ _______ _____ _____    ______ ____
ROOT
ATOM      1  C4  UNL     1       8.656   7.149  22.854  0.00  0.00    +0.138 A 
ATOM      2  N1  UNL     1       8.605   5.970  23.508  0.00  0.00    -0.132 NA
ATOM      3  N2  UNL     1       8.701   6.231  24.803  0.00  0.00    -0.113 NA
ATOM      4  C5  UNL     1       8.795   7.569  24.921  0.00  0.00    +0.220 A 
ATOM      5  N3  UNL     1       8.796   8.243  26.190  0.00  0.00    -0.299 N 
ATOM      6  C6  UNL     1       9.664   7.754  27.264  0.00  0.00    +0.108 C 
ATOM      7  C7  UNL     1       8.848   7.315  28.492  0.00  0.00    +0.019 C 
ATOM      8  C8  UNL     1       7.431   7.915  28.537  0.00  0.00    +0.008 C 
ATOM      9  C9  UNL     1       7.358   9.333  27.934  0.00  0.00    +0.020 C 
ATOM     10  C17 UNL     1       7.817   9.310  26.454  0.00  0.00    +0.112 C 
ATOM     11  N5  UNL     1       8.789   8.181  23.718  0.00  0.00    -0.296 N 
ENDROOT
BRANCH   1  13
ATOM     12  C1  UNL     1       9.566   6.649  20.573  0.00  0.00    +0.015 C 
ATOM     13  C2  UNL     1       8.420   7.283  21.369  0.00  0.00    +0.051 C 
ATOM     14  C3  UNL     1       7.079   6.646  20.995  0.00  0.00    +0.015 C 
ENDBRANCH   1  13
BRANCH  11  15
ATOM     15  C18 UNL     1       8.831   9.615  23.419  0.00  0.00    +0.092 C 
ATOM     16  C19 UNL     1       9.745   9.976  22.255  0.00  0.00    +0.027 C 
ATOM     17  C20 UNL     1      10.184  10.269  23.676  0.00  0.00    +0.027 C 
ENDBRANCH  11  15
BRANCH   9  18
ATOM     18  C10 UNL     1       8.135  10.379  28.764  0.00  0.00    +0.089 C 
BRANCH  18  19
ATOM     19  N4  UNL     1       8.869  11.304  27.864  0.00  0.00    -0.299 NA
ATOM     20  C11 UNL     1       8.191  12.610  27.656  0.00  0.00    +0.084 C 
ATOM     21  C12 UNL     1       8.664  13.725  28.610  0.00  0.00    +0.015 C 
ATOM     22  C13 UNL     1       9.368  13.171  29.842  0.00  0.00    +0.003 C 
ATOM     23  C14 UNL     1      10.572  12.309  29.445  0.00  0.00    +0.018 C 
ATOM     24  C15 UNL     1      10.309  11.414  28.200  0.00  0.00    +0.054 C 
ATOM     25  C16 UNL     1      11.101  11.896  26.975  0.00  0.00    +0.024 C 
ENDBRANCH  18  19
ENDBRANCH   9  18
TORSDOF 4
ENDMDL
MODEL 5
REMARK VINA RESULT:    -5.470     11.503     13.480
REMARK INTER + INTRA:          -7.216
REMARK INTER:                  -6.704
REMARK INTRA:                  -0.512
REMARK UNBOUND:                -0.467
REMARK  Name = /home/qwerty/github/datacon2025hack/step_04_hit_selection/docking/ligands/lig_489.pdb
REMARK  7 active torsions:
REMARK  status: ('A' for Active; 'I' for Inactive)
REMARK    1  A    between atoms: C1_1  and  C2_2
REMARK    2  A    between atoms: C2_2  and  C3_3
REMARK    3  A    between atoms: C2_2  and  C4_4
REMARK    4  A    between atoms: C9_12  and  C10_13
REMARK    5  A    between atoms: C10_13  and  N4_14
REMARK    6  A    between atoms: C15_19  and  C16_20
REMARK    7  A    between atoms: N5_22  and  C18_23
REMARK                            x       y       z     vdW  Elec       q    Type
REMARK                         _______ _______ _______ _____ _____    ______ ____
ROOT
ATOM      1  C4  UNL     1      14.225  13.239  34.795  0.00  0.00    +0.138 A 
ATOM      2  N1  UNL     1      15.417  13.389  34.183  0.00  0.00    -0.132 NA
ATOM      3  N2  UNL     1      15.205  13.317  32.878  0.00  0.00    -0.113 NA
ATOM      4  C5  UNL     1      13.880  13.138  32.712  0.00  0.00    +0.220 A 
ATOM      5  N3  UNL     1      13.249  13.133  31.422  0.00  0.00    -0.299 N 
ATOM      6  C6  UNL     1      13.829  12.334  30.339  0.00  0.00    +0.108 C 
ATOM      7  C7  UNL     1      14.250  13.217  29.151  0.00  0.00    +0.019 C 
ATOM      8  C8  UNL     1      13.558  14.591  29.128  0.00  0.00    +0.008 C 
ATOM      9  C9  UNL     1      12.119  14.551  29.685  0.00  0.00    +0.020 C 
ATOM     10  C17 UNL     1      12.126  14.047  31.151  0.00  0.00    +0.112 C 
ATOM     11  N5  UNL     1      13.231  13.065  33.893  0.00  0.00    -0.296 N 
ENDROOT
BRANCH   1  13
ATOM     12  C1  UNL     1      14.721  12.297  37.063  0.00  0.00    +0.015 C 
ATOM     13  C2  UNL     1      14.027  13.417  36.281  0.00  0.00    +0.051 C 
ATOM     14  C3  UNL     1      14.550  14.789  36.714  0.00  0.00    +0.015 C 
ENDBRANCH   1  13
BRANCH  11  15
ATOM     15  C18 UNL     1      11.795  12.918  34.142  0.00  0.00    +0.092 C 
ATOM     16  C19 UNL     1      11.460  11.949  35.269  0.00  0.00    +0.027 C 
ATOM     17  C20 UNL     1      11.243  11.532  33.828  0.00  0.00    +0.027 C 
ENDBRANCH  11  15
BRANCH   9  18
ATOM     18  C10 UNL     1      11.155  13.732  28.798  0.00  0.00    +0.089 C 
BRANCH  18  19
ATOM     19  N4  UNL     1      10.244  12.921  29.644  0.00  0.00    -0.299 NA
ATOM     20  C11 UNL     1       8.882  13.495  29.789  0.00  0.00    +0.084 C 
ATOM     21  C12 UNL     1       7.856  12.948  28.775  0.00  0.00    +0.015 C 
ATOM     22  C13 UNL     1       8.524  12.301  27.569  0.00  0.00    +0.003 C 
ATOM     23  C14 UNL     1       9.455  11.163  28.002  0.00  0.00    +0.018 C 
ATOM     24  C15 UNL     1      10.262  11.480  29.294  0.00  0.00    +0.054 C 
ATOM     25  C16 UNL     1       9.781  10.641  30.487  0.00  0.00    +0.024 C 
ENDBRANCH  18  19
ENDBRANCH   9  18
TORSDOF 4
ENDMDL
MODEL 6
REMARK VINA RESULT:    -5.452      1.610      7.270
REMARK INTER + INTRA:          -7.193
REMARK INTER:                  -6.690
REMARK INTRA:                  -0.503
REMARK UNBOUND:                -0.467
REMARK  Name = /home/qwerty/github/datacon2025hack/step_04_hit_selection/docking/ligands/lig_489.pdb
REMARK  7 active torsions:
REMARK  status: ('A' for Active; 'I' for Inactive)
REMARK    1  A    between atoms: C1_1  and  C2_2
REMARK    2  A    between atoms: C2_2  and  C3_3
REMARK    3  A    between atoms: C2_2  and  C4_4
REMARK    4  A    between atoms: C9_12  and  C10_13
REMARK    5  A    between atoms: C10_13  and  N4_14
REMARK    6  A    between atoms: C15_19  and  C16_20
REMARK    7  A    between atoms: N5_22  and  C18_23
REMARK                            x       y       z     vdW  Elec       q    Type
REMARK                         _______ _______ _______ _____ _____    ______ ____
ROOT
ATOM      1  C4  UNL     1      21.683   2.682  29.332  0.00  0.00    +0.138 A 
ATOM      2  N1  UNL     1      21.560   3.578  28.331  0.00  0.00    -0.132 NA
ATOM      3  N2  UNL     1      21.459   4.777  28.883  0.00  0.00    -0.113 NA
ATOM      4  C5  UNL     1      21.535   4.596  30.216  0.00  0.00    +0.220 A 
ATOM      5  N3  UNL     1      21.583   5.686  31.150  0.00  0.00    -0.299 N 
ATOM      6  C6  UNL     1      20.626   6.789  31.020  0.00  0.00    +0.108 C 
ATOM      7  C7  UNL     1      21.341   8.129  30.771  0.00  0.00    +0.019 C 
ATOM      8  C8  UNL     1      22.821   8.125  31.193  0.00  0.00    +0.008 C 
ATOM      9  C9  UNL     1      23.095   7.233  32.422  0.00  0.00    +0.020 C 
ATOM     10  C17 UNL     1      22.683   5.770  32.125  0.00  0.00    +0.112 C 
ATOM     11  N5  UNL     1      21.657   3.291  30.539  0.00  0.00    -0.296 N 
ENDROOT
BRANCH   1  13
ATOM     12  C1  UNL     1      21.395   0.744  27.769  0.00  0.00    +0.015 C 
ATOM     13  C2  UNL     1      21.979   1.219  29.104  0.00  0.00    +0.051 C 
ATOM     14  C3  UNL     1      23.491   0.981  29.153  0.00  0.00    +0.015 C 
ENDBRANCH   1  13
BRANCH  11  15
ATOM     15  C18 UNL     1      21.810   2.687  31.865  0.00  0.00    +0.092 C 
ATOM     16  C19 UNL     1      20.937   1.458  32.087  0.00  0.00    +0.027 C 
ATOM     17  C20 UNL     1      20.565   2.774  32.741  0.00  0.00    +0.027 C 
ENDBRANCH  11  15
BRANCH   9  18
ATOM     18  C10 UNL     1      22.434   7.770  33.712  0.00  0.00    +0.089 C 
BRANCH  18  19
ATOM     19  N4  UNL     1      21.888   6.646  34.513  0.00  0.00    -0.299 NA
ATOM     20  C11 UNL     1      22.701   6.303  35.708  0.00  0.00    +0.084 C 
ATOM     21  C12 UNL     1      22.234   6.992  37.006  0.00  0.00    +0.015 C 
ATOM     22  C13 UNL     1      21.356   8.207  36.732  0.00  0.00    +0.003 C 
ATOM     23  C14 UNL     1      20.127   7.819  35.902  0.00  0.00    +0.018 C 
ATOM     24  C15 UNL     1      20.436   6.783  34.783  0.00  0.00    +0.054 C 
ATOM     25  C16 UNL     1      19.825   5.408  35.096  0.00  0.00    +0.024 C 
ENDBRANCH  18  19
ENDBRANCH   9  18
TORSDOF 4
ENDMDL
MODEL 7
REMARK VINA RESULT:    -5.404     12.395     15.529
REMARK INTER + INTRA:          -7.135
REMARK INTER:                  -6.791
REMARK INTRA:                  -0.343
REMARK UNBOUND:                -0.467
REMARK  Name = /home/qwerty/github/datacon2025hack/step_04_hit_selection/docking/ligands/lig_489.pdb
REMARK  7 active torsions:
REMARK  status: ('A' for Active; 'I' for Inactive)
REMARK    1  A    between atoms: C1_1  and  C2_2
REMARK    2  A    between atoms: C2_2  and  C3_3
REMARK    3  A    between atoms: C2_2  and  C4_4
REMARK    4  A    between atoms: C9_12  and  C10_13
REMARK    5  A    between atoms: C10_13  and  N4_14
REMARK    6  A    between atoms: C15_19  and  C16_20
REMARK    7  A    between atoms: N5_22  and  C18_23
REMARK                            x       y       z     vdW  Elec       q    Type
REMARK                         _______ _______ _______ _____ _____    ______ ____
ROOT
ATOM      1  C4  UNL     1      14.466   2.264  21.604  0.00  0.00    +0.138 A 
ATOM      2  N1  UNL     1      13.487   1.363  21.385  0.00  0.00    -0.132 NA
ATOM      3  N2  UNL     1      12.331   1.993  21.520  0.00  0.00    -0.113 NA
ATOM      4  C5  UNL     1      12.622   3.277  21.806  0.00  0.00    +0.220 A 
ATOM      5  N3  UNL     1      11.620   4.301  21.906  0.00  0.00    -0.299 N 
ATOM      6  C6  UNL     1      10.412   4.052  22.697  0.00  0.00    +0.108 C 
ATOM      7  C7  UNL     1       9.144   4.129  21.828  0.00  0.00    +0.019 C 
ATOM      8  C8  UNL     1       9.344   4.903  20.513  0.00  0.00    +0.008 C 
ATOM      9  C9  UNL     1      10.354   6.062  20.643  0.00  0.00    +0.020 C 
ATOM     10  C17 UNL     1      11.735   5.522  21.091  0.00  0.00    +0.112 C 
ATOM     11  N5  UNL     1      13.953   3.484  21.886  0.00  0.00    -0.296 N 
ENDROOT
BRANCH   1  13
ATOM     12  C1  UNL     1      16.245   0.503  21.713  0.00  0.00    +0.015 C 
ATOM     13  C2  UNL     1      15.930   1.966  21.387  0.00  0.00    +0.051 C 
ATOM     14  C3  UNL     1      16.321   2.300  19.945  0.00  0.00    +0.015 C 
ENDBRANCH   1  13
BRANCH  11  15
ATOM     15  C18 UNL     1      14.673   4.736  22.133  0.00  0.00    +0.092 C 
ATOM     16  C19 UNL     1      15.819   4.602  23.129  0.00  0.00    +0.027 C 
ATOM     17  C20 UNL     1      14.527   5.272  23.553  0.00  0.00    +0.027 C 
ENDBRANCH  11  15
BRANCH   9  18
ATOM     18  C10 UNL     1       9.850   7.195  21.565  0.00  0.00    +0.089 C 
BRANCH  18  19
ATOM     19  N4  UNL     1       9.711   8.458  20.796  0.00  0.00    -0.299 NA
ATOM     20  C11 UNL     1       8.607   9.334  21.264  0.00  0.00    +0.084 C 
ATOM     21  C12 UNL     1       9.043  10.412  22.278  0.00  0.00    +0.015 C 
ATOM     22  C13 UNL     1      10.379  10.082  22.933  0.00  0.00    +0.003 C 
ATOM     23  C14 UNL     1      11.479   9.910  21.879  0.00  0.00    +0.018 C 
ATOM     24  C15 UNL     1      11.003   9.159  20.602  0.00  0.00    +0.054 C 
ATOM     25  C16 UNL     1      10.918  10.097  19.388  0.00  0.00    +0.024 C 
ENDBRANCH  18  19
ENDBRANCH   9  18
TORSDOF 4
ENDMDL
MODEL 8
REMARK VINA RESULT:    -5.400      5.595      8.681
REMARK INTER + INTRA:          -7.130
REMARK INTER:                  -6.858
REMARK INTRA:                  -0.272
REMARK UNBOUND:                -0.467
REMARK  Name = /home/qwerty/github/datacon2025hack/step_04_hit_selection/docking/ligands/lig_489.pdb
REMARK  7 active torsions:
REMARK  status: ('A' for Active; 'I' for Inactive)
REMARK    1  A    between atoms: C1_1  and  C2_2
REMARK    2  A    between atoms: C2_2  and  C3_3
REMARK    3  A    between atoms: C2_2  and  C4_4
REMARK    4  A    between atoms: C9_12  and  C10_13
REMARK    5  A    between atoms: C10_13  and  N4_14
REMARK    6  A    between atoms: C15_19  and  C16_20
REMARK    7  A    between atoms: N5_22  and  C18_23
REMARK                            x       y       z     vdW  Elec       q    Type
REMARK                         _______ _______ _______ _____ _____    ______ ____
ROOT
ATOM      1  C4  UNL     1      20.875   1.313  28.752  0.00  0.00    +0.138 A 
ATOM      2  N1  UNL     1      19.916   1.091  29.674  0.00  0.00    -0.132 NA
ATOM      3  N2  UNL     1      18.748   1.158  29.054  0.00  0.00    -0.113 NA
ATOM      4  C5  UNL     1      19.013   1.407  27.757  0.00  0.00    +0.220 A 
ATOM      5  N3  UNL     1      17.995   1.431  26.743  0.00  0.00    -0.299 N 
ATOM      6  C6  UNL     1      16.761   2.184  26.979  0.00  0.00    +0.108 C 
ATOM      7  C7  UNL     1      15.526   1.265  26.950  0.00  0.00    +0.019 C 
ATOM      8  C8  UNL     1      15.768  -0.069  26.223  0.00  0.00    +0.008 C 
ATOM      9  C9  UNL     1      16.758   0.056  25.046  0.00  0.00    +0.020 C 
ATOM     10  C17 UNL     1      18.128   0.577  25.551  0.00  0.00    +0.112 C 
ATOM     11  N5  UNL     1      20.338   1.530  27.529  0.00  0.00    -0.296 N 
ENDROOT
BRANCH   1  13
ATOM     12  C1  UNL     1      22.704   1.753  30.407  0.00  0.00    +0.015 C 
ATOM     13  C2  UNL     1      22.350   1.164  29.038  0.00  0.00    +0.051 C 
ATOM     14  C3  UNL     1      22.748  -0.313  28.960  0.00  0.00    +0.015 C 
ENDBRANCH   1  13
BRANCH  11  15
ATOM     15  C18 UNL     1      21.032   1.758  26.259  0.00  0.00    +0.092 C 
ATOM     16  C19 UNL     1      22.144   2.796  26.343  0.00  0.00    +0.027 C 
ATOM     17  C20 UNL     1      20.830   3.152  25.677  0.00  0.00    +0.027 C 
ENDBRANCH  11  15
BRANCH   9  18
ATOM     18  C10 UNL     1      16.205   0.916  23.887  0.00  0.00    +0.089 C 
BRANCH  18  19
ATOM     19  N4  UNL     1      15.810   0.047  22.749  0.00  0.00    -0.299 NA
ATOM     20  C11 UNL     1      14.341  -0.118  22.596  0.00  0.00    +0.084 C 
ATOM     21  C12 UNL     1      13.695   0.873  21.607  0.00  0.00    +0.015 C 
ATOM     22  C13 UNL     1      14.579   2.087  21.345  0.00  0.00    +0.003 C 
ATOM     23  C14 UNL     1      15.949   1.661  20.804  0.00  0.00    +0.018 C 
ATOM     24  C15 UNL     1      16.518   0.387  21.491  0.00  0.00    +0.054 C 
ATOM     25  C16 UNL     1      16.516  -0.821  20.542  0.00  0.00    +0.024 C 
ENDBRANCH  18  19
ENDBRANCH   9  18
TORSDOF 4
ENDMDL
MODEL 9
REMARK VINA RESULT:    -5.313      7.089     10.810
REMARK INTER + INTRA:          -7.022
REMARK INTER:                  -6.690
REMARK INTRA:                  -0.332
REMARK UNBOUND:                -0.467
REMARK  Name = /home/qwerty/github/datacon2025hack/step_04_hit_selection/docking/ligands/lig_489.pdb
REMARK  7 active torsions:
REMARK  status: ('A' for Active; 'I' for Inactive)
REMARK    1  A    between atoms: C1_1  and  C2_2
REMARK    2  A    between atoms: C2_2  and  C3_3
REMARK    3  A    between atoms: C2_2  and  C4_4
REMARK    4  A    between atoms: C9_12  and  C10_13
REMARK    5  A    between atoms: C10_13  and  N4_14
REMARK    6  A    between atoms: C15_19  and  C16_20
REMARK    7  A    between atoms: N5_22  and  C18_23
REMARK                            x       y       z     vdW  Elec       q    Type
REMARK                         _______ _______ _______ _____ _____    ______ ____
ROOT
ATOM      1  C4  UNL     1      19.533   8.226  36.062  0.00  0.00    +0.138 A 
ATOM      2  N1  UNL     1      20.273   9.299  36.410  0.00  0.00    -0.132 NA
ATOM      3  N2  UNL     1      19.508  10.370  36.271  0.00  0.00    -0.113 NA
ATOM      4  C5  UNL     1      18.304   9.932  35.853  0.00  0.00    +0.220 A 
ATOM      5  N3  UNL     1      17.168  10.798  35.704  0.00  0.00    -0.299 N 
ATOM      6  C6  UNL     1      17.321  12.073  34.997  0.00  0.00    +0.108 C 
ATOM      7  C7  UNL     1      17.000  13.267  35.914  0.00  0.00    +0.019 C 
ATOM      8  C8  UNL     1      16.149  12.892  37.140  0.00  0.00    +0.008 C 
ATOM      9  C9  UNL     1      15.150  11.750  36.854  0.00  0.00    +0.020 C 
ATOM     10  C17 UNL     1      15.907  10.479  36.394  0.00  0.00    +0.112 C 
ATOM     11  N5  UNL     1      18.285   8.592  35.691  0.00  0.00    -0.296 N 
ENDROOT
BRANCH   1  13
ATOM     12  C1  UNL     1      21.513   6.691  35.998  0.00  0.00    +0.015 C 
ATOM     13  C2  UNL     1      20.004   6.802  36.237  0.00  0.00    +0.051 C 
ATOM     14  C3  UNL     1      19.635   6.300  37.635  0.00  0.00    +0.015 C 
ENDBRANCH   1  13
BRANCH  11  15
ATOM     15  C18 UNL     1      17.166   7.733  35.294  0.00  0.00    +0.092 C 
ATOM     16  C19 UNL     1      17.534   6.686  34.250  0.00  0.00    +0.027 C 
ATOM     17  C20 UNL     1      16.729   7.905  33.844  0.00  0.00    +0.027 C 
ENDBRANCH  11  15
BRANCH   9  18
ATOM     18  C10 UNL     1      14.044  12.158  35.855  0.00  0.00    +0.089 C 
BRANCH  18  19
ATOM     19  N4  UNL     1      12.742  12.288  36.557  0.00  0.00    -0.299 NA
ATOM     20  C11 UNL     1      11.867  13.359  36.015  0.00  0.00    +0.084 C 
ATOM     21  C12 UNL     1      10.851  12.872  34.963  0.00  0.00    +0.015 C 
ATOM     22  C13 UNL     1      11.242  11.527  34.362  0.00  0.00    +0.003 C 
ATOM     23  C14 UNL     1      11.383  10.459  35.453  0.00  0.00    +0.018 C 
ATOM     24  C15 UNL     1      12.060  10.986  36.751  0.00  0.00    +0.054 C 
ATOM     25  C16 UNL     1      11.061  11.082  37.915  0.00  0.00    +0.024 C 
ENDBRANCH  18  19
ENDBRANCH   9  18
TORSDOF 4
ENDMDL
