MODEL 1
REMARK VINA RESULT:    -7.133      0.000      0.000
REMARK INTER + INTRA:          -9.265
REMARK INTER:                  -8.801
REMARK INTRA:                  -0.463
REMARK UNBOUND:                -0.463
REMARK  Name = /home/qwerty/github/datacon2025hack/step_04_hit_selection/docking/ligands/lig_428.pdb
REMARK  4 active torsions:
REMARK  status: ('A' for Active; 'I' for Inactive)
REMARK    1  A    between atoms: N1_3  and  C2_4
REMARK    2  A    between atoms: N2_8  and  C6_9
REMARK    3  A    between atoms: C6_9  and  C7_10
REMARK    4  A    between atoms: C17_21  and  C18_22
REMARK                            x       y       z     vdW  Elec       q    Type
REMARK                         _______ _______ _______ _____ _____    ______ ____
ROOT
ATOM      1  O1  UNL     1      19.193  11.657  36.093  0.00  0.00    -0.253 OA
ATOM      2  C1  UNL     1      18.144  11.039  36.424  0.00  0.00    +0.302 C 
ATOM      3  N1  UNL     1      18.242   9.735  37.018  0.00  0.00    -0.295 N 
ATOM      4  N3  UNL     1      16.862  11.666  36.239  0.00  0.00    -0.285 N 
ATOM      5  C14 UNL     1      15.679  10.879  35.866  0.00  0.00    +0.109 C 
ATOM      6  C15 UNL     1      14.487  11.236  36.768  0.00  0.00    +0.020 C 
ATOM      7  C16 UNL     1      14.415  12.735  37.134  0.00  0.00    +0.013 C 
ATOM      8  C17 UNL     1      15.304  13.609  36.229  0.00  0.00    +0.055 C 
ATOM      9  C21 UNL     1      16.768  13.132  36.309  0.00  0.00    +0.119 C 
ATOM     10  H1  UNL     1      17.404   9.346  37.505  0.00  0.00    +0.151 HD
ENDROOT
BRANCH   3  11
ATOM     11  C2  UNL     1      19.489   8.960  36.994  0.00  0.00    +0.088 C 
ATOM     12  C3  UNL     1      19.377   7.703  37.892  0.00  0.00    +0.025 C 
ATOM     13  C4  UNL     1      19.088   6.450  37.070  0.00  0.00    +0.017 C 
ATOM     14  C5  UNL     1      20.199   6.204  36.029  0.00  0.00    +0.085 C 
ATOM     15  N2  UNL     1      20.757   7.447  35.431  0.00  0.00    -0.296 NA
ATOM     16  C13 UNL     1      19.840   8.602  35.529  0.00  0.00    +0.107 C 
BRANCH  15  17
ATOM     17  C6  UNL     1      22.117   7.766  35.916  0.00  0.00    +0.119 C 
BRANCH  17  18
ATOM     18  C7  UNL     1      23.124   7.535  34.821  0.00  0.00    -0.033 A 
ATOM     19  C8  UNL     1      23.927   6.382  34.838  0.00  0.00    +0.005 A 
ATOM     20  C9  UNL     1      24.873   6.168  33.832  0.00  0.00    +0.000 A 
ATOM     21  C10 UNL     1      25.027   7.102  32.804  0.00  0.00    +0.000 A 
ATOM     22  C11 UNL     1      24.234   8.253  32.782  0.00  0.00    +0.000 A 
ATOM     23  C12 UNL     1      23.286   8.471  33.786  0.00  0.00    +0.005 A 
ENDBRANCH  17  18
ENDBRANCH  15  17
ENDBRANCH   3  11
BRANCH   8  24
ATOM     24  C18 UNL     1      15.191  15.066  36.596  0.00  0.00    +0.041 A 
ATOM     25  C19 UNL     1      14.342  16.000  36.034  0.00  0.00    +0.044 A 
ATOM     26  C20 UNL     1      14.609  17.165  36.726  0.00  0.00    +0.134 A 
ATOM     27  N4  UNL     1      15.562  16.935  37.652  0.00  0.00    -0.182 NA
ATOM     28  N5  UNL     1      15.908  15.660  37.567  0.00  0.00    -0.281 N 
ATOM     29  H27 UNL     1      16.628  15.207  38.173  0.00  0.00    +0.189 HD
ENDBRANCH   8  24
TORSDOF 4
ENDMDL
MODEL 2
REMARK VINA RESULT:    -6.950     16.828     17.998
REMARK INTER + INTRA:          -9.038
REMARK INTER:                  -8.546
REMARK INTRA:                  -0.492
REMARK UNBOUND:                -0.463
REMARK  Name = /home/qwerty/github/datacon2025hack/step_04_hit_selection/docking/ligands/lig_428.pdb
REMARK  4 active torsions:
REMARK  status: ('A' for Active; 'I' for Inactive)
REMARK    1  A    between atoms: N1_3  and  C2_4
REMARK    2  A    between atoms: N2_8  and  C6_9
REMARK    3  A    between atoms: C6_9  and  C7_10
REMARK    4  A    between atoms: C17_21  and  C18_22
REMARK                            x       y       z     vdW  Elec       q    Type
REMARK                         _______ _______ _______ _____ _____    ______ ____
ROOT
ATOM      1  O1  UNL     1      11.304   2.304  21.331  0.00  0.00    -0.253 OA
ATOM      2  C1  UNL     1      11.798   3.443  21.101  0.00  0.00    +0.302 C 
ATOM      3  N1  UNL     1      13.151   3.552  20.633  0.00  0.00    -0.295 N 
ATOM      4  N3  UNL     1      10.984   4.617  21.274  0.00  0.00    -0.285 N 
ATOM      5  C14 UNL     1      11.562   5.875  21.765  0.00  0.00    +0.109 C 
ATOM      6  C15 UNL     1      11.126   7.053  20.879  0.00  0.00    +0.020 C 
ATOM      7  C16 UNL     1       9.670   6.940  20.372  0.00  0.00    +0.013 C 
ATOM      8  C17 UNL     1       8.851   5.896  21.155  0.00  0.00    +0.055 C 
ATOM      9  C21 UNL     1       9.532   4.516  21.066  0.00  0.00    +0.119 C 
ATOM     10  H1  UNL     1      13.462   4.458  20.217  0.00  0.00    +0.151 HD
ENDROOT
BRANCH   3  11
ATOM     11  C2  UNL     1      14.086   2.421  20.684  0.00  0.00    +0.088 C 
ATOM     12  C3  UNL     1      15.370   2.728  19.874  0.00  0.00    +0.025 C 
ATOM     13  C4  UNL     1      16.518   3.161  20.783  0.00  0.00    +0.017 C 
ATOM     14  C5  UNL     1      16.847   2.065  21.816  0.00  0.00    +0.085 C 
ATOM     15  N2  UNL     1      15.657   1.327  22.319  0.00  0.00    -0.296 NA
ATOM     16  C13 UNL     1      14.396   2.080  22.163  0.00  0.00    +0.107 C 
BRANCH  15  17
ATOM     17  C6  UNL     1      15.559  -0.050  21.788  0.00  0.00    +0.119 C 
BRANCH  17  18
ATOM     18  C7  UNL     1      15.807  -1.048  22.887  0.00  0.00    -0.033 A 
ATOM     19  C8  UNL     1      14.847  -1.233  23.896  0.00  0.00    +0.005 A 
ATOM     20  C9  UNL     1      15.077  -2.148  24.928  0.00  0.00    +0.000 A 
ATOM     21  C10 UNL     1      16.265  -2.883  24.961  0.00  0.00    +0.000 A 
ATOM     22  C11 UNL     1      17.226  -2.703  23.962  0.00  0.00    +0.000 A 
ATOM     23  C12 UNL     1      17.000  -1.789  22.928  0.00  0.00    +0.005 A 
ENDBRANCH  17  18
ENDBRANCH  15  17
ENDBRANCH   3  11
BRANCH   8  24
ATOM     24  C18 UNL     1       7.431   5.830  20.654  0.00  0.00    +0.041 A 
ATOM     25  C19 UNL     1       6.391   6.675  20.992  0.00  0.00    +0.044 A 
ATOM     26  C20 UNL     1       5.320   6.209  20.256  0.00  0.00    +0.134 A 
ATOM     27  N4  UNL     1       5.703   5.148  19.518  0.00  0.00    -0.182 NA
ATOM     28  N5  UNL     1       6.984   4.926  19.764  0.00  0.00    -0.281 N 
ATOM     29  H27 UNL     1       7.541   4.162  19.321  0.00  0.00    +0.189 HD
ENDBRANCH   8  24
TORSDOF 4
ENDMDL
MODEL 3
REMARK VINA RESULT:    -6.830      5.547     11.788
REMARK INTER + INTRA:          -8.891
REMARK INTER:                  -8.174
REMARK INTRA:                  -0.717
REMARK UNBOUND:                -0.463
REMARK  Name = /home/qwerty/github/datacon2025hack/step_04_hit_selection/docking/ligands/lig_428.pdb
REMARK  4 active torsions:
REMARK  status: ('A' for Active; 'I' for Inactive)
REMARK    1  A    between atoms: N1_3  and  C2_4
REMARK    2  A    between atoms: N2_8  and  C6_9
REMARK    3  A    between atoms: C6_9  and  C7_10
REMARK    4  A    between atoms: C17_21  and  C18_22
REMARK                            x       y       z     vdW  Elec       q    Type
REMARK                         _______ _______ _______ _____ _____    ______ ____
ROOT
ATOM      1  O1  UNL     1      22.501   3.940  33.132  0.00  0.00    -0.253 OA
ATOM      2  C1  UNL     1      22.149   4.444  32.031  0.00  0.00    +0.302 C 
ATOM      3  N1  UNL     1      22.076   5.872  31.891  0.00  0.00    -0.295 N 
ATOM      4  N3  UNL     1      21.862   3.582  30.915  0.00  0.00    -0.285 N 
ATOM      5  C14 UNL     1      20.807   3.916  29.949  0.00  0.00    +0.109 C 
ATOM      6  C15 UNL     1      21.325   3.769  28.509  0.00  0.00    +0.020 C 
ATOM      7  C16 UNL     1      22.290   2.577  28.318  0.00  0.00    +0.013 C 
ATOM      8  C17 UNL     1      22.231   1.575  29.487  0.00  0.00    +0.055 C 
ATOM      9  C21 UNL     1      22.559   2.291  30.812  0.00  0.00    +0.119 C 
ATOM     10  H1  UNL     1      22.026   6.275  30.929  0.00  0.00    +0.151 HD
ENDROOT
BRANCH   3  11
ATOM     11  C2  UNL     1      22.111   6.770  33.051  0.00  0.00    +0.088 C 
ATOM     12  C3  UNL     1      23.173   7.881  32.860  0.00  0.00    +0.025 C 
ATOM     13  C4  UNL     1      22.539   9.193  32.405  0.00  0.00    +0.017 C 
ATOM     14  C5  UNL     1      21.500   9.688  33.432  0.00  0.00    +0.085 C 
ATOM     15  N2  UNL     1      20.720   8.600  34.081  0.00  0.00    -0.296 NA
ATOM     16  C13 UNL     1      20.695   7.351  33.291  0.00  0.00    +0.107 C 
BRANCH  15  17
ATOM     17  C6  UNL     1      21.108   8.366  35.489  0.00  0.00    +0.119 C 
BRANCH  17  18
ATOM     18  C7  UNL     1      19.928   7.855  36.272  0.00  0.00    -0.033 A 
ATOM     19  C8  UNL     1      19.990   6.596  36.892  0.00  0.00    +0.005 A 
ATOM     20  C9  UNL     1      18.894   6.109  37.610  0.00  0.00    +0.000 A 
ATOM     21  C10 UNL     1      17.728   6.872  37.712  0.00  0.00    +0.000 A 
ATOM     22  C11 UNL     1      17.657   8.125  37.095  0.00  0.00    +0.000 A 
ATOM     23  C12 UNL     1      18.751   8.616  36.377  0.00  0.00    +0.005 A 
ENDBRANCH  17  18
ENDBRANCH  15  17
ENDBRANCH   3  11
BRANCH   8  24
ATOM     24  C18 UNL     1      23.164   0.414  29.256  0.00  0.00    +0.041 A 
ATOM     25  C19 UNL     1      22.813  -0.877  28.910  0.00  0.00    +0.044 A 
ATOM     26  C20 UNL     1      24.019  -1.541  28.799  0.00  0.00    +0.134 A 
ATOM     27  N4  UNL     1      25.032  -0.690  29.061  0.00  0.00    -0.182 NA
ATOM     28  N5  UNL     1      24.505   0.492  29.336  0.00  0.00    -0.281 N 
ATOM     29  H27 UNL     1      25.065   1.342  29.573  0.00  0.00    +0.189 HD
ENDBRANCH   8  24
TORSDOF 4
ENDMDL
MODEL 4
REMARK VINA RESULT:    -6.710     12.081     15.528
REMARK INTER + INTRA:          -8.742
REMARK INTER:                  -8.071
REMARK INTRA:                  -0.671
REMARK UNBOUND:                -0.463
REMARK  Name = /home/qwerty/github/datacon2025hack/step_04_hit_selection/docking/ligands/lig_428.pdb
REMARK  4 active torsions:
REMARK  status: ('A' for Active; 'I' for Inactive)
REMARK    1  A    between atoms: N1_3  and  C2_4
REMARK    2  A    between atoms: N2_8  and  C6_9
REMARK    3  A    between atoms: C6_9  and  C7_10
REMARK    4  A    between atoms: C17_21  and  C18_22
REMARK                            x       y       z     vdW  Elec       q    Type
REMARK                         _______ _______ _______ _____ _____    ______ ____
ROOT
ATOM      1  O1  UNL     1      23.046   4.483  25.311  0.00  0.00    -0.253 OA
ATOM      2  C1  UNL     1      21.887   4.225  25.737  0.00  0.00    +0.302 C 
ATOM      3  N1  UNL     1      20.740   4.631  24.974  0.00  0.00    -0.295 N 
ATOM      4  N3  UNL     1      21.728   3.492  26.966  0.00  0.00    -0.285 N 
ATOM      5  C14 UNL     1      20.618   3.779  27.884  0.00  0.00    +0.109 C 
ATOM      6  C15 UNL     1      19.916   2.479  28.307  0.00  0.00    +0.020 C 
ATOM      7  C16 UNL     1      20.884   1.290  28.507  0.00  0.00    +0.013 C 
ATOM      8  C17 UNL     1      22.354   1.737  28.618  0.00  0.00    +0.055 C 
ATOM      9  C21 UNL     1      22.763   2.523  27.357  0.00  0.00    +0.119 C 
ATOM     10  H1  UNL     1      19.814   4.206  25.203  0.00  0.00    +0.151 HD
ENDROOT
BRANCH   3  11
ATOM     11  C2  UNL     1      20.842   5.588  23.865  0.00  0.00    +0.088 C 
ATOM     12  C3  UNL     1      20.934   4.851  22.506  0.00  0.00    +0.025 C 
ATOM     13  C4  UNL     1      19.586   4.822  21.789  0.00  0.00    +0.017 C 
ATOM     14  C5  UNL     1      19.069   6.252  21.531  0.00  0.00    +0.085 C 
ATOM     15  N2  UNL     1      19.381   7.217  22.620  0.00  0.00    -0.296 NA
ATOM     16  C13 UNL     1      19.641   6.565  23.920  0.00  0.00    +0.107 C 
BRANCH  15  17
ATOM     17  C6  UNL     1      20.440   8.183  22.254  0.00  0.00    +0.119 C 
BRANCH  17  18
ATOM     18  C7  UNL     1      19.930   9.138  21.207  0.00  0.00    -0.033 A 
ATOM     19  C8  UNL     1      18.793   9.921  21.466  0.00  0.00    +0.005 A 
ATOM     20  C9  UNL     1      18.306  10.800  20.494  0.00  0.00    +0.000 A 
ATOM     21  C10 UNL     1      18.947  10.901  19.257  0.00  0.00    +0.000 A 
ATOM     22  C11 UNL     1      20.078  10.123  18.990  0.00  0.00    +0.000 A 
ATOM     23  C12 UNL     1      20.568   9.244  19.960  0.00  0.00    +0.005 A 
ENDBRANCH  17  18
ENDBRANCH  15  17
ENDBRANCH   3  11
BRANCH   8  24
ATOM     24  C18 UNL     1      23.267   0.558  28.839  0.00  0.00    +0.041 A 
ATOM     25  C19 UNL     1      22.916  -0.778  28.820  0.00  0.00    +0.044 A 
ATOM     26  C20 UNL     1      24.102  -1.446  29.051  0.00  0.00    +0.134 A 
ATOM     27  N4  UNL     1      25.104  -0.556  29.196  0.00  0.00    -0.182 NA
ATOM     28  N5  UNL     1      24.589   0.656  29.063  0.00  0.00    -0.281 N 
ATOM     29  H27 UNL     1      25.145   1.538  29.126  0.00  0.00    +0.189 HD
ENDBRANCH   8  24
TORSDOF 4
ENDMDL
MODEL 5
REMARK VINA RESULT:    -6.699     13.342     16.842
REMARK INTER + INTRA:          -8.729
REMARK INTER:                  -8.079
REMARK INTRA:                  -0.650
REMARK UNBOUND:                -0.463
REMARK  Name = /home/qwerty/github/datacon2025hack/step_04_hit_selection/docking/ligands/lig_428.pdb
REMARK  4 active torsions:
REMARK  status: ('A' for Active; 'I' for Inactive)
REMARK    1  A    between atoms: N1_3  and  C2_4
REMARK    2  A    between atoms: N2_8  and  C6_9
REMARK    3  A    between atoms: C6_9  and  C7_10
REMARK    4  A    between atoms: C17_21  and  C18_22
REMARK                            x       y       z     vdW  Elec       q    Type
REMARK                         _______ _______ _______ _____ _____    ______ ____
ROOT
ATOM      1  O1  UNL     1      19.859   0.676  24.200  0.00  0.00    -0.253 OA
ATOM      2  C1  UNL     1      19.109   0.909  25.187  0.00  0.00    +0.302 C 
ATOM      3  N1  UNL     1      17.689   0.736  25.060  0.00  0.00    -0.295 N 
ATOM      4  N3  UNL     1      19.689   1.310  26.442  0.00  0.00    -0.285 N 
ATOM      5  C14 UNL     1      19.008   2.269  27.322  0.00  0.00    +0.109 C 
ATOM      6  C15 UNL     1      18.975   1.747  28.767  0.00  0.00    +0.020 C 
ATOM      7  C16 UNL     1      20.258   0.993  29.183  0.00  0.00    +0.013 C 
ATOM      8  C17 UNL     1      21.433   1.250  28.219  0.00  0.00    +0.055 C 
ATOM      9  C21 UNL     1      21.039   0.839  26.786  0.00  0.00    +0.119 C 
ATOM     10  H1  UNL     1      17.113   0.692  25.930  0.00  0.00    +0.151 HD
ENDROOT
BRANCH   3  11
ATOM     11  C2  UNL     1      17.038   0.579  23.753  0.00  0.00    +0.088 C 
ATOM     12  C3  UNL     1      16.711  -0.908  23.473  0.00  0.00    +0.025 C 
ATOM     13  C4  UNL     1      15.245  -1.225  23.759  0.00  0.00    +0.017 C 
ATOM     14  C5  UNL     1      14.313  -0.354  22.894  0.00  0.00    +0.085 C 
ATOM     15  N2  UNL     1      14.809   1.032  22.674  0.00  0.00    -0.296 NA
ATOM     16  C13 UNL     1      15.775   1.475  23.700  0.00  0.00    +0.107 C 
BRANCH  15  17
ATOM     17  C6  UNL     1      15.304   1.261  21.299  0.00  0.00    +0.119 C 
BRANCH  17  18
ATOM     18  C7  UNL     1      14.586   2.429  20.678  0.00  0.00    -0.033 A 
ATOM     19  C8  UNL     1      13.182   2.445  20.632  0.00  0.00    +0.005 A 
ATOM     20  C9  UNL     1      12.508   3.520  20.045  0.00  0.00    +0.000 A 
ATOM     21  C10 UNL     1      13.229   4.585  19.498  0.00  0.00    +0.000 A 
ATOM     22  C11 UNL     1      14.627   4.575  19.537  0.00  0.00    +0.000 A 
ATOM     23  C12 UNL     1      15.304   3.502  20.124  0.00  0.00    +0.005 A 
ENDBRANCH  17  18
ENDBRANCH  15  17
ENDBRANCH   3  11
BRANCH   8  24
ATOM     24  C18 UNL     1      22.674   0.522  28.667  0.00  0.00    +0.041 A 
ATOM     25  C19 UNL     1      22.817  -0.840  28.851  0.00  0.00    +0.044 A 
ATOM     26  C20 UNL     1      24.133  -0.997  29.238  0.00  0.00    +0.134 A 
ATOM     27  N4  UNL     1      24.741   0.206  29.278  0.00  0.00    -0.182 NA
ATOM     28  N5  UNL     1      23.850   1.120  28.928  0.00  0.00    -0.281 N 
ATOM     29  H27 UNL     1      24.053   2.143  28.870  0.00  0.00    +0.189 HD
ENDBRANCH   8  24
TORSDOF 4
ENDMDL
MODEL 6
REMARK VINA RESULT:    -6.593      5.781     10.246
REMARK INTER + INTRA:          -8.599
REMARK INTER:                  -7.952
REMARK INTRA:                  -0.646
REMARK UNBOUND:                -0.463
REMARK  Name = /home/qwerty/github/datacon2025hack/step_04_hit_selection/docking/ligands/lig_428.pdb
REMARK  4 active torsions:
REMARK  status: ('A' for Active; 'I' for Inactive)
REMARK    1  A    between atoms: N1_3  and  C2_4
REMARK    2  A    between atoms: N2_8  and  C6_9
REMARK    3  A    between atoms: C6_9  and  C7_10
REMARK    4  A    between atoms: C17_21  and  C18_22
REMARK                            x       y       z     vdW  Elec       q    Type
REMARK                         _______ _______ _______ _____ _____    ______ ____
ROOT
ATOM      1  O1  UNL     1      18.454   6.261  34.792  0.00  0.00    -0.253 OA
ATOM      2  C1  UNL     1      18.950   6.184  35.950  0.00  0.00    +0.302 C 
ATOM      3  N1  UNL     1      18.265   5.442  36.971  0.00  0.00    -0.295 N 
ATOM      4  N3  UNL     1      20.216   6.811  36.223  0.00  0.00    -0.285 N 
ATOM      5  C14 UNL     1      20.495   7.421  37.529  0.00  0.00    +0.109 C 
ATOM      6  C15 UNL     1      21.860   6.958  38.062  0.00  0.00    +0.020 C 
ATOM      7  C16 UNL     1      22.935   6.805  36.962  0.00  0.00    +0.013 C 
ATOM      8  C17 UNL     1      22.538   7.503  35.647  0.00  0.00    +0.055 C 
ATOM      9  C21 UNL     1      21.197   6.941  35.135  0.00  0.00    +0.119 C 
ATOM     10  H1  UNL     1      18.792   5.181  37.834  0.00  0.00    +0.151 HD
ENDROOT
BRANCH   3  11
ATOM     11  C2  UNL     1      16.871   5.007  36.815  0.00  0.00    +0.088 C 
ATOM     12  C3  UNL     1      16.751   3.470  36.960  0.00  0.00    +0.025 C 
ATOM     13  C4  UNL     1      16.267   3.073  38.352  0.00  0.00    +0.017 C 
ATOM     14  C5  UNL     1      14.891   3.697  38.658  0.00  0.00    +0.085 C 
ATOM     15  N2  UNL     1      14.708   5.066  38.102  0.00  0.00    -0.296 NA
ATOM     16  C13 UNL     1      15.984   5.762  37.837  0.00  0.00    +0.107 C 
BRANCH  15  17
ATOM     17  C6  UNL     1      13.794   5.104  36.940  0.00  0.00    +0.119 C 
BRANCH  17  18
ATOM     18  C7  UNL     1      12.388   4.787  37.376  0.00  0.00    -0.033 A 
ATOM     19  C8  UNL     1      11.706   5.663  38.238  0.00  0.00    +0.005 A 
ATOM     20  C9  UNL     1      10.406   5.368  38.657  0.00  0.00    +0.000 A 
ATOM     21  C10 UNL     1       9.778   4.197  38.224  0.00  0.00    +0.000 A 
ATOM     22  C11 UNL     1      10.451   3.319  37.369  0.00  0.00    +0.000 A 
ATOM     23  C12 UNL     1      11.751   3.611  36.946  0.00  0.00    +0.005 A 
ENDBRANCH  17  18
ENDBRANCH  15  17
ENDBRANCH   3  11
BRANCH   8  24
ATOM     24  C18 UNL     1      23.617   7.357  34.605  0.00  0.00    +0.041 A 
ATOM     25  C19 UNL     1      24.362   6.225  34.335  0.00  0.00    +0.044 A 
ATOM     26  C20 UNL     1      25.187   6.599  33.293  0.00  0.00    +0.134 A 
ATOM     27  N4  UNL     1      24.943   7.883  32.959  0.00  0.00    -0.182 NA
ATOM     28  N5  UNL     1      23.989   8.333  33.758  0.00  0.00    -0.281 N 
ATOM     29  H27 UNL     1      23.600   9.302  33.717  0.00  0.00    +0.189 HD
ENDBRANCH   8  24
TORSDOF 4
ENDMDL
MODEL 7
REMARK VINA RESULT:    -6.546      6.782     10.874
REMARK INTER + INTRA:          -8.540
REMARK INTER:                  -7.828
REMARK INTRA:                  -0.713
REMARK UNBOUND:                -0.463
REMARK  Name = /home/qwerty/github/datacon2025hack/step_04_hit_selection/docking/ligands/lig_428.pdb
REMARK  4 active torsions:
REMARK  status: ('A' for Active; 'I' for Inactive)
REMARK    1  A    between atoms: N1_3  and  C2_4
REMARK    2  A    between atoms: N2_8  and  C6_9
REMARK    3  A    between atoms: C6_9  and  C7_10
REMARK    4  A    between atoms: C17_21  and  C18_22
REMARK                            x       y       z     vdW  Elec       q    Type
REMARK                         _______ _______ _______ _____ _____    ______ ____
ROOT
ATOM      1  O1  UNL     1      21.016  10.153  29.780  0.00  0.00    -0.253 OA
ATOM      2  C1  UNL     1      22.084  10.525  30.339  0.00  0.00    +0.302 C 
ATOM      3  N1  UNL     1      22.415  11.922  30.386  0.00  0.00    -0.295 N 
ATOM      4  N3  UNL     1      22.940   9.548  30.958  0.00  0.00    -0.285 N 
ATOM      5  C14 UNL     1      24.401   9.696  30.937  0.00  0.00    +0.109 C 
ATOM      6  C15 UNL     1      24.988   9.477  32.340  0.00  0.00    +0.020 C 
ATOM      7  C16 UNL     1      24.269   8.370  33.145  0.00  0.00    +0.013 C 
ATOM      8  C17 UNL     1      23.387   7.471  32.257  0.00  0.00    +0.055 C 
ATOM      9  C21 UNL     1      22.341   8.325  31.515  0.00  0.00    +0.119 C 
ATOM     10  H1  UNL     1      23.156  12.236  31.051  0.00  0.00    +0.151 HD
ENDROOT
BRANCH   3  11
ATOM     11  C2  UNL     1      21.715  12.916  29.562  0.00  0.00    +0.088 C 
ATOM     12  C3  UNL     1      20.550  13.566  30.349  0.00  0.00    +0.025 C 
ATOM     13  C4  UNL     1      20.940  14.934  30.903  0.00  0.00    +0.017 C 
ATOM     14  C5  UNL     1      21.352  15.893  29.768  0.00  0.00    +0.085 C 
ATOM     15  N2  UNL     1      22.089  15.235  28.655  0.00  0.00    -0.296 NA
ATOM     16  C13 UNL     1      22.734  13.966  29.053  0.00  0.00    +0.107 C 
BRANCH  15  17
ATOM     17  C6  UNL     1      21.280  15.093  27.425  0.00  0.00    +0.119 C 
BRANCH  17  18
ATOM     18  C7  UNL     1      22.176  14.833  26.244  0.00  0.00    -0.033 A 
ATOM     19  C8  UNL     1      21.988  13.684  25.459  0.00  0.00    +0.005 A 
ATOM     20  C9  UNL     1      22.824  13.429  24.368  0.00  0.00    +0.000 A 
ATOM     21  C10 UNL     1      23.856  14.318  24.054  0.00  0.00    +0.000 A 
ATOM     22  C11 UNL     1      24.052  15.463  24.831  0.00  0.00    +0.000 A 
ATOM     23  C12 UNL     1      23.217  15.721  25.923  0.00  0.00    +0.005 A 
ENDBRANCH  17  18
ENDBRANCH  15  17
ENDBRANCH   3  11
BRANCH   8  24
ATOM     24  C18 UNL     1      22.722   6.389  33.068  0.00  0.00    +0.041 A 
ATOM     25  C19 UNL     1      22.007   6.550  34.239  0.00  0.00    +0.044 A 
ATOM     26  C20 UNL     1      21.593   5.273  34.565  0.00  0.00    +0.134 A 
ATOM     27  N4  UNL     1      22.035   4.401  33.637  0.00  0.00    -0.182 NA
ATOM     28  N5  UNL     1      22.717   5.086  32.732  0.00  0.00    -0.281 N 
ATOM     29  H27 UNL     1      23.170   4.659  31.894  0.00  0.00    +0.189 HD
ENDBRANCH   8  24
TORSDOF 4
ENDMDL
MODEL 8
REMARK VINA RESULT:    -6.454     16.089     19.383
REMARK INTER + INTRA:          -8.426
REMARK INTER:                  -8.024
REMARK INTRA:                  -0.403
REMARK UNBOUND:                -0.463
REMARK  Name = /home/qwerty/github/datacon2025hack/step_04_hit_selection/docking/ligands/lig_428.pdb
REMARK  4 active torsions:
REMARK  status: ('A' for Active; 'I' for Inactive)
REMARK    1  A    between atoms: N1_3  and  C2_4
REMARK    2  A    between atoms: N2_8  and  C6_9
REMARK    3  A    between atoms: C6_9  and  C7_10
REMARK    4  A    between atoms: C17_21  and  C18_22
REMARK                            x       y       z     vdW  Elec       q    Type
REMARK                         _______ _______ _______ _____ _____    ______ ____
ROOT
ATOM      1  O1  UNL     1      12.167   2.058  22.794  0.00  0.00    -0.253 OA
ATOM      2  C1  UNL     1      13.086   2.299  21.964  0.00  0.00    +0.302 C 
ATOM      3  N1  UNL     1      13.232   3.623  21.426  0.00  0.00    -0.295 N 
ATOM      4  N3  UNL     1      14.003   1.253  21.596  0.00  0.00    -0.285 N 
ATOM      5  C14 UNL     1      14.542   1.160  20.233  0.00  0.00    +0.109 C 
ATOM      6  C15 UNL     1      16.066   0.971  20.265  0.00  0.00    +0.020 C 
ATOM      7  C16 UNL     1      16.554   0.069  21.421  0.00  0.00    +0.013 C 
ATOM      8  C17 UNL     1      15.412  -0.749  22.055  0.00  0.00    +0.055 C 
ATOM      9  C21 UNL     1      14.310   0.196  22.572  0.00  0.00    +0.119 C 
ATOM     10  H1  UNL     1      14.124   3.868  20.943  0.00  0.00    +0.151 HD
ENDROOT
BRANCH   3  11
ATOM     11  C2  UNL     1      12.185   4.642  21.572  0.00  0.00    +0.088 C 
ATOM     12  C3  UNL     1      12.327   5.392  22.919  0.00  0.00    +0.025 C 
ATOM     13  C4  UNL     1      13.015   6.743  22.741  0.00  0.00    +0.017 C 
ATOM     14  C5  UNL     1      12.225   7.641  21.768  0.00  0.00    +0.085 C 
ATOM     15  N2  UNL     1      11.592   6.905  20.640  0.00  0.00    -0.296 NA
ATOM     16  C13 UNL     1      12.236   5.605  20.359  0.00  0.00    +0.107 C 
BRANCH  15  17
ATOM     17  C6  UNL     1      10.124   6.788  20.772  0.00  0.00    +0.119 C 
BRANCH  17  18
ATOM     18  C7  UNL     1       9.528   8.127  21.118  0.00  0.00    -0.033 A 
ATOM     19  C8  UNL     1       8.649   8.243  22.208  0.00  0.00    +0.005 A 
ATOM     20  C9  UNL     1       8.081   9.480  22.527  0.00  0.00    +0.000 A 
ATOM     21  C10 UNL     1       8.384  10.608  21.761  0.00  0.00    +0.000 A 
ATOM     22  C11 UNL     1       9.256  10.501  20.673  0.00  0.00    +0.000 A 
ATOM     23  C12 UNL     1       9.826   9.266  20.351  0.00  0.00    +0.005 A 
ENDBRANCH  17  18
ENDBRANCH  15  17
ENDBRANCH   3  11
BRANCH   8  24
ATOM     24  C18 UNL     1      15.925  -1.635  23.161  0.00  0.00    +0.041 A 
ATOM     25  C19 UNL     1      17.244  -1.842  23.514  0.00  0.00    +0.044 A 
ATOM     26  C20 UNL     1      17.179  -2.709  24.587  0.00  0.00    +0.134 A 
ATOM     27  N4  UNL     1      15.890  -2.999  24.858  0.00  0.00    -0.182 NA
ATOM     28  N5  UNL     1      15.138  -2.343  23.991  0.00  0.00    -0.281 N 
ATOM     29  H27 UNL     1      14.094  -2.383  23.974  0.00  0.00    +0.189 HD
ENDBRANCH   8  24
TORSDOF 4
ENDMDL
MODEL 9
REMARK VINA RESULT:    -6.220     12.643     14.693
REMARK INTER + INTRA:          -8.138
REMARK INTER:                  -7.569
REMARK INTRA:                  -0.569
REMARK UNBOUND:                -0.463
REMARK  Name = /home/qwerty/github/datacon2025hack/step_04_hit_selection/docking/ligands/lig_428.pdb
REMARK  4 active torsions:
REMARK  status: ('A' for Active; 'I' for Inactive)
REMARK    1  A    between atoms: N1_3  and  C2_4
REMARK    2  A    between atoms: N2_8  and  C6_9
REMARK    3  A    between atoms: C6_9  and  C7_10
REMARK    4  A    between atoms: C17_21  and  C18_22
REMARK                            x       y       z     vdW  Elec       q    Type
REMARK                         _______ _______ _______ _____ _____    ______ ____
ROOT
ATOM      1  O1  UNL     1      19.926  12.668  23.908  0.00  0.00    -0.253 OA
ATOM      2  C1  UNL     1      20.786  13.570  23.713  0.00  0.00    +0.302 C 
ATOM      3  N1  UNL     1      20.790  14.294  22.472  0.00  0.00    -0.295 N 
ATOM      4  N3  UNL     1      21.728  13.890  24.752  0.00  0.00    -0.285 N 
ATOM      5  C14 UNL     1      23.106  14.286  24.432  0.00  0.00    +0.109 C 
ATOM      6  C15 UNL     1      23.500  15.552  25.209  0.00  0.00    +0.020 C 
ATOM      7  C16 UNL     1      22.925  15.601  26.643  0.00  0.00    +0.013 C 
ATOM      8  C17 UNL     1      22.413  14.229  27.122  0.00  0.00    +0.055 C 
ATOM      9  C21 UNL     1      21.333  13.703  26.156  0.00  0.00    +0.119 C 
ATOM     10  H1  UNL     1      21.331  15.186  22.418  0.00  0.00    +0.151 HD
ENDROOT
BRANCH   3  11
ATOM     11  C2  UNL     1      20.026  13.840  21.303  0.00  0.00    +0.088 C 
ATOM     12  C3  UNL     1      19.916  14.964  20.243  0.00  0.00    +0.025 C 
ATOM     13  C4  UNL     1      20.929  14.776  19.117  0.00  0.00    +0.017 C 
ATOM     14  C5  UNL     1      20.721  13.421  18.409  0.00  0.00    +0.085 C 
ATOM     15  N2  UNL     1      20.316  12.316  19.320  0.00  0.00    -0.296 NA
ATOM     16  C13 UNL     1      20.683  12.559  20.730  0.00  0.00    +0.107 C 
BRANCH  15  17
ATOM     17  C6  UNL     1      18.897  11.928  19.167  0.00  0.00    +0.119 C 
BRANCH  17  18
ATOM     18  C7  UNL     1      18.770  10.428  19.155  0.00  0.00    -0.033 A 
ATOM     19  C8  UNL     1      19.858   9.634  18.757  0.00  0.00    +0.005 A 
ATOM     20  C9  UNL     1      19.742   8.241  18.731  0.00  0.00    +0.000 A 
ATOM     21  C10 UNL     1      18.541   7.631  19.099  0.00  0.00    +0.000 A 
ATOM     22  C11 UNL     1      17.452   8.414  19.495  0.00  0.00    +0.000 A 
ATOM     23  C12 UNL     1      17.564   9.807  19.522  0.00  0.00    +0.005 A 
ENDBRANCH  17  18
ENDBRANCH  15  17
ENDBRANCH   3  11
BRANCH   8  24
ATOM     24  C18 UNL     1      21.884  14.307  28.531  0.00  0.00    +0.041 A 
ATOM     25  C19 UNL     1      21.790  15.436  29.322  0.00  0.00    +0.044 A 
ATOM     26  C20 UNL     1      21.227  14.983  30.499  0.00  0.00    +0.134 A 
ATOM     27  N4  UNL     1      20.994  13.658  30.411  0.00  0.00    -0.182 NA
ATOM     28  N5  UNL     1      21.393  13.257  29.215  0.00  0.00    -0.281 N 
ATOM     29  H27 UNL     1      21.327  12.271  28.875  0.00  0.00    +0.189 HD
ENDBRANCH   8  24
TORSDOF 4
ENDMDL
