REMARK  Name = /home/qwerty/github/datacon2025hack/step_04_hit_selection/docking/ligands/lig_737.pdb
REMARK  7 active torsions:
REMARK  status: ('A' for Active; 'I' for Inactive)
REMARK    1  A    between atoms: C1_1  and  C2_2
REMARK    2  A    between atoms: C2_2  and  C3_3
REMARK    3  A    between atoms: C2_2  and  C4_4
REMARK    4  A    between atoms: C2_2  and  O1_5
REMARK    5  A    between atoms: O1_5  and  C5_6
REMARK    6  A    between atoms: C8_11  and  N2_12
REMARK    7  A    between atoms: N3_15  and  C10_16
REMARK                            x       y       z     vdW  Elec       q    Type
REMARK                         _______ _______ _______ _____ _____    ______ ____
ROOT
ATOM      1  N2  UNL     1       0.205  -1.265  -0.177  0.00  0.00    -0.296 N 
ATOM      2  C9  UNL     1       1.502  -0.791   0.208  0.00  0.00    +0.304 C 
ATOM      3  O3  UNL     1       1.725  -0.457   1.404  0.00  0.00    -0.253 OA
ATOM      4  N3  UNL     1       2.534  -0.672  -0.783  0.00  0.00    -0.269 N 
ATOM      5  H15 UNL     1       0.038  -1.480  -1.187  0.00  0.00    +0.151 HD
ATOM      6  H16 UNL     1       2.243  -0.647  -1.787  0.00  0.00    +0.156 HD
ENDROOT
BRANCH   1  12
ATOM      7  C5  UNL     1      -4.777  -0.977   0.274  0.00  0.00    +0.404 C 
ATOM      8  O2  UNL     1      -5.689  -1.828   0.091  0.00  0.00    -0.226 OA
ATOM      9  N1  UNL     1      -3.752  -1.232   1.253  0.00  0.00    -0.262 N 
ATOM     10  C6  UNL     1      -3.113  -2.554   1.224  0.00  0.00    +0.113 C 
ATOM     11  C7  UNL     1      -1.879  -2.489   0.314  0.00  0.00    +0.041 C 
ATOM     12  C8  UNL     1      -0.909  -1.374   0.768  0.00  0.00    +0.078 C 
ATOM     13  C19 UNL     1      -1.626  -0.010   0.888  0.00  0.00    +0.048 C 
ATOM     14  C20 UNL     1      -2.898  -0.136   1.754  0.00  0.00    +0.042 C 
ATOM     15  C21 UNL     1      -3.627   1.194   2.016  0.00  0.00    +0.026 C 
ATOM     16  C22 UNL     1      -3.290   1.091   3.497  0.00  0.00    +0.004 C 
ATOM     17  C23 UNL     1      -2.610  -0.249   3.260  0.00  0.00    +0.026 C 
BRANCH   7  18
ATOM     18  O1  UNL     1      -4.730   0.201  -0.490  0.00  0.00    -0.445 OA
BRANCH  18  20
ATOM     19  C1  UNL     1      -5.548  -0.432  -2.704  0.00  0.00    +0.055 C 
ATOM     20  C2  UNL     1      -5.632   0.575  -1.541  0.00  0.00    +0.107 C 
ATOM     21  C3  UNL     1      -5.186   1.956  -2.045  0.00  0.00    +0.055 C 
ATOM     22  C4  UNL     1      -7.076   0.679  -1.013  0.00  0.00    +0.055 C 
ENDBRANCH  18  20
ENDBRANCH   7  18
ENDBRANCH   1  12
BRANCH   4  23
ATOM     23  C10 UNL     1       3.934  -0.530  -0.484  0.00  0.00    +0.038 A 
ATOM     24  C11 UNL     1       4.507  -1.133   0.646  0.00  0.00    +0.027 A 
ATOM     25  C12 UNL     1       5.879  -1.027   0.880  0.00  0.00    +0.051 A 
ATOM     26  C13 UNL     1       6.707  -0.321  -0.001  0.00  0.00    +0.162 A 
ATOM     27  C14 UNL     1       6.140   0.277  -1.153  0.00  0.00    +0.164 A 
ATOM     28  C15 UNL     1       4.763   0.150  -1.385  0.00  0.00    +0.072 A 
ATOM     29  O4  UNL     1       6.894   0.935  -2.131  0.00  0.00    -0.488 OA
ATOM     30  C16 UNL     1       7.925   1.879  -1.868  0.00  0.00    +0.232 C 
ATOM     31  C17 UNL     1       9.159   1.209  -1.281  0.00  0.00    +0.082 C 
ATOM     32  C18 UNL     1       8.927   0.817   0.171  0.00  0.00    +0.232 C 
ATOM     33  O5  UNL     1       8.079  -0.320   0.273  0.00  0.00    -0.488 OA
ENDBRANCH   4  23
TORSDOF 4
