MODEL 1
REMARK VINA RESULT:    -6.188      0.000      0.000
REMARK INTER + INTRA:          -9.296
REMARK INTER:                  -8.359
REMARK INTRA:                  -0.937
REMARK UNBOUND:                -0.937
REMARK  Name = /home/qwerty/github/datacon2025hack/step_04_hit_selection/docking/ligands/lig_72.pdb
REMARK  12 active torsions:
REMARK  status: ('A' for Active; 'I' for Inactive)
REMARK    1  A    between atoms: C1_1  and  O1_2
REMARK    2  A    between atoms: O1_2  and  C2_3
REMARK    3  A    between atoms: C6_7  and  C7_8
REMARK    4  A    between atoms: C12_16  and  C13_17
REMARK    5  A    between atoms: C13_17  and  N4_18
REMARK    6  A    between atoms: N4_18  and  C14_19
REMARK    7  A    between atoms: C15_20  and  O3_22
REMARK    8  A    between atoms: O3_22  and  C16_23
REMARK    9  A    between atoms: C16_23  and  C17_24
REMARK   10  A    between atoms: C16_23  and  C18_25
REMARK   11  A    between atoms: C16_23  and  C19_26
REMARK   12  A    between atoms: N5_28  and  C21_29
REMARK                            x       y       z     vdW  Elec       q    Type
REMARK                         _______ _______ _______ _____ _____    ______ ____
ROOT
ATOM      1  C7  UNL     1      14.853   0.693  23.225  0.00  0.00    +0.165 A 
ATOM      2  N1  UNL     1      13.846   1.247  23.932  0.00  0.00    -0.128 NA
ATOM      3  N2  UNL     1      13.228   2.100  23.130  0.00  0.00    -0.113 NA
ATOM      4  C8  UNL     1      13.863   2.052  21.944  0.00  0.00    +0.220 A 
ATOM      5  N3  UNL     1      13.471   2.846  20.809  0.00  0.00    -0.299 N 
ATOM      6  C9  UNL     1      14.485   3.562  20.017  0.00  0.00    +0.108 C 
ATOM      7  C10 UNL     1      13.884   4.780  19.300  0.00  0.00    +0.019 C 
ATOM      8  C11 UNL     1      12.950   5.546  20.244  0.00  0.00    +0.008 C 
ATOM      9  C12 UNL     1      11.797   4.661  20.802  0.00  0.00    +0.024 C 
ATOM     10  C20 UNL     1      12.053   3.151  20.592  0.00  0.00    +0.113 C 
ATOM     11  N5  UNL     1      14.885   1.168  21.959  0.00  0.00    -0.298 N 
ATOM     12  C21 UNL     1      15.697   0.714  20.832  0.00  0.00    +0.154 C 
ENDROOT
BRANCH   1  17
ATOM     13  C2  UNL     1      17.949  -0.885  24.731  0.00  0.00    +0.121 A 
ATOM     14  C3  UNL     1      17.540  -2.227  24.845  0.00  0.00    +0.045 A 
ATOM     15  C4  UNL     1      16.265  -2.613  24.424  0.00  0.00    +0.004 A 
ATOM     16  C5  UNL     1      15.383  -1.667  23.895  0.00  0.00    +0.012 A 
ATOM     17  C6  UNL     1      15.767  -0.321  23.795  0.00  0.00    +0.023 A 
ATOM     18  C22 UNL     1      17.059   0.057  24.197  0.00  0.00    +0.057 A 
BRANCH  13  20
ATOM     19  C1  UNL     1      19.703   0.879  24.964  0.00  0.00    +0.277 C 
ATOM     20  O1  UNL     1      19.218  -0.448  25.135  0.00  0.00    -0.495 OA
ENDBRANCH  13  20
ENDBRANCH   1  17
BRANCH   9  21
ATOM     21  C13 UNL     1      10.391   5.098  20.314  0.00  0.00    +0.115 C 
BRANCH  21  22
ATOM     22  N4  UNL     1       9.518   5.567  21.405  0.00  0.00    -0.270 N 
ATOM     23  C14 UNL     1       9.309   4.725  22.588  0.00  0.00    +0.135 C 
ATOM     24  C15 UNL     1       8.956   6.892  21.390  0.00  0.00    +0.403 C 
ATOM     25  O2  UNL     1       8.033   7.187  22.197  0.00  0.00    -0.226 OA
BRANCH  24  26
ATOM     26  O3  UNL     1       9.455   7.852  20.497  0.00  0.00    -0.445 OA
BRANCH  26  27
ATOM     27  C16 UNL     1      10.195   9.033  20.841  0.00  0.00    +0.107 C 
ATOM     28  C17 UNL     1       9.240  10.183  21.214  0.00  0.00    +0.055 C 
ATOM     29  C18 UNL     1      11.173   8.743  21.996  0.00  0.00    +0.055 C 
ATOM     30  C19 UNL     1      11.000   9.443  19.599  0.00  0.00    +0.055 C 
ENDBRANCH  26  27
ENDBRANCH  24  26
ENDBRANCH  21  22
ENDBRANCH   9  21
TORSDOF 6
ENDMDL
MODEL 2
REMARK VINA RESULT:    -6.164     12.820     15.057
REMARK INTER + INTRA:          -9.263
REMARK INTER:                  -9.008
REMARK INTRA:                  -0.255
REMARK UNBOUND:                -0.937
REMARK  Name = /home/qwerty/github/datacon2025hack/step_04_hit_selection/docking/ligands/lig_72.pdb
REMARK  12 active torsions:
REMARK  status: ('A' for Active; 'I' for Inactive)
REMARK    1  A    between atoms: C1_1  and  O1_2
REMARK    2  A    between atoms: O1_2  and  C2_3
REMARK    3  A    between atoms: C6_7  and  C7_8
REMARK    4  A    between atoms: C12_16  and  C13_17
REMARK    5  A    between atoms: C13_17  and  N4_18
REMARK    6  A    between atoms: N4_18  and  C14_19
REMARK    7  A    between atoms: C15_20  and  O3_22
REMARK    8  A    between atoms: O3_22  and  C16_23
REMARK    9  A    between atoms: C16_23  and  C17_24
REMARK   10  A    between atoms: C16_23  and  C18_25
REMARK   11  A    between atoms: C16_23  and  C19_26
REMARK   12  A    between atoms: N5_28  and  C21_29
REMARK                            x       y       z     vdW  Elec       q    Type
REMARK                         _______ _______ _______ _____ _____    ______ ____
ROOT
ATOM      1  C7  UNL     1      20.823   3.384  32.956  0.00  0.00    +0.165 A 
ATOM      2  N1  UNL     1      19.672   3.612  33.622  0.00  0.00    -0.128 NA
ATOM      3  N2  UNL     1      19.881   4.644  34.425  0.00  0.00    -0.113 NA
ATOM      4  C8  UNL     1      21.157   5.033  34.235  0.00  0.00    +0.220 A 
ATOM      5  N3  UNL     1      21.753   6.140  34.936  0.00  0.00    -0.299 N 
ATOM      6  C9  UNL     1      23.097   6.008  35.524  0.00  0.00    +0.108 C 
ATOM      7  C10 UNL     1      23.297   6.980  36.697  0.00  0.00    +0.019 C 
ATOM      8  C11 UNL     1      22.052   6.996  37.593  0.00  0.00    +0.008 C 
ATOM      9  C12 UNL     1      20.758   7.386  36.821  0.00  0.00    +0.024 C 
ATOM     10  C20 UNL     1      20.934   7.304  35.287  0.00  0.00    +0.113 C 
ATOM     11  N5  UNL     1      21.780   4.274  33.308  0.00  0.00    -0.298 N 
ATOM     12  C21 UNL     1      23.097   4.483  32.710  0.00  0.00    +0.154 C 
ENDROOT
BRANCH   1  17
ATOM     13  C2  UNL     1      22.143   1.370  30.034  0.00  0.00    +0.121 A 
ATOM     14  C3  UNL     1      21.246   0.285  30.025  0.00  0.00    +0.045 A 
ATOM     15  C4  UNL     1      20.213   0.219  30.963  0.00  0.00    +0.004 A 
ATOM     16  C5  UNL     1      20.069   1.225  31.922  0.00  0.00    +0.012 A 
ATOM     17  C6  UNL     1      20.968   2.302  31.958  0.00  0.00    +0.023 A 
ATOM     18  C22 UNL     1      21.990   2.376  30.997  0.00  0.00    +0.057 A 
BRANCH  13  20
ATOM     19  C1  UNL     1      24.412   0.752  29.186  0.00  0.00    +0.277 C 
ATOM     20  O1  UNL     1      23.194   1.485  29.112  0.00  0.00    -0.495 OA
ENDBRANCH  13  20
ENDBRANCH   1  17
BRANCH   9  21
ATOM     21  C13 UNL     1      20.149   8.737  37.277  0.00  0.00    +0.115 C 
BRANCH  21  22
ATOM     22  N4  UNL     1      18.695   8.823  37.058  0.00  0.00    -0.270 N 
ATOM     23  C14 UNL     1      17.829   7.703  37.446  0.00  0.00    +0.135 C 
ATOM     24  C15 UNL     1      18.085  10.033  36.575  0.00  0.00    +0.403 C 
ATOM     25  O2  UNL     1      16.890  10.012  36.171  0.00  0.00    -0.226 OA
BRANCH  24  26
ATOM     26  O3  UNL     1      18.813  11.233  36.583  0.00  0.00    -0.445 OA
BRANCH  26  27
ATOM     27  C16 UNL     1      19.359  11.906  35.439  0.00  0.00    +0.107 C 
ATOM     28  C17 UNL     1      19.656  10.903  34.308  0.00  0.00    +0.055 C 
ATOM     29  C18 UNL     1      18.399  13.008  34.950  0.00  0.00    +0.055 C 
ATOM     30  C19 UNL     1      20.677  12.557  35.882  0.00  0.00    +0.055 C 
ENDBRANCH  26  27
ENDBRANCH  24  26
ENDBRANCH  21  22
ENDBRANCH   9  21
TORSDOF 6
ENDMDL
MODEL 3
REMARK VINA RESULT:    -6.105     14.188     18.132
REMARK INTER + INTRA:          -9.183
REMARK INTER:                  -8.291
REMARK INTRA:                  -0.892
REMARK UNBOUND:                -0.937
REMARK  Name = /home/qwerty/github/datacon2025hack/step_04_hit_selection/docking/ligands/lig_72.pdb
REMARK  12 active torsions:
REMARK  status: ('A' for Active; 'I' for Inactive)
REMARK    1  A    between atoms: C1_1  and  O1_2
REMARK    2  A    between atoms: O1_2  and  C2_3
REMARK    3  A    between atoms: C6_7  and  C7_8
REMARK    4  A    between atoms: C12_16  and  C13_17
REMARK    5  A    between atoms: C13_17  and  N4_18
REMARK    6  A    between atoms: N4_18  and  C14_19
REMARK    7  A    between atoms: C15_20  and  O3_22
REMARK    8  A    between atoms: O3_22  and  C16_23
REMARK    9  A    between atoms: C16_23  and  C17_24
REMARK   10  A    between atoms: C16_23  and  C18_25
REMARK   11  A    between atoms: C16_23  and  C19_26
REMARK   12  A    between atoms: N5_28  and  C21_29
REMARK                            x       y       z     vdW  Elec       q    Type
REMARK                         _______ _______ _______ _____ _____    ______ ____
ROOT
ATOM      1  C7  UNL     1      14.856  11.173  36.083  0.00  0.00    +0.165 A 
ATOM      2  N1  UNL     1      15.173   9.951  35.607  0.00  0.00    -0.128 NA
ATOM      3  N2  UNL     1      16.492   9.841  35.653  0.00  0.00    -0.113 NA
ATOM      4  C8  UNL     1      16.962  10.997  36.161  0.00  0.00    +0.220 A 
ATOM      5  N3  UNL     1      18.363  11.252  36.368  0.00  0.00    -0.299 N 
ATOM      6  C9  UNL     1      18.953  12.536  35.953  0.00  0.00    +0.108 C 
ATOM      7  C10 UNL     1      20.458  12.401  35.674  0.00  0.00    +0.019 C 
ATOM      8  C11 UNL     1      20.740  11.121  34.879  0.00  0.00    +0.008 C 
ATOM      9  C12 UNL     1      20.237   9.837  35.602  0.00  0.00    +0.024 C 
ATOM     10  C20 UNL     1      19.253  10.152  36.753  0.00  0.00    +0.113 C 
ATOM     11  N5  UNL     1      15.963  11.857  36.457  0.00  0.00    -0.298 N 
ATOM     12  C21 UNL     1      16.053  13.129  37.170  0.00  0.00    +0.154 C 
ENDROOT
BRANCH   1  17
ATOM     13  C2  UNL     1      11.695  13.144  35.410  0.00  0.00    +0.121 A 
ATOM     14  C3  UNL     1      10.832  12.615  36.389  0.00  0.00    +0.045 A 
ATOM     15  C4  UNL     1      11.286  11.628  37.267  0.00  0.00    +0.004 A 
ATOM     16  C5  UNL     1      12.596  11.152  37.174  0.00  0.00    +0.012 A 
ATOM     17  C6  UNL     1      13.462  11.653  36.189  0.00  0.00    +0.023 A 
ATOM     18  C22 UNL     1      13.008  12.663  35.325  0.00  0.00    +0.057 A 
BRANCH  13  20
ATOM     19  C1  UNL     1      11.440  14.052  33.096  0.00  0.00    +0.277 C 
ATOM     20  O1  UNL     1      11.289  14.138  34.508  0.00  0.00    -0.495 OA
ENDBRANCH  13  20
ENDBRANCH   1  17
BRANCH   9  21
ATOM     21  C13 UNL     1      21.381   8.888  36.043  0.00  0.00    +0.115 C 
BRANCH  21  22
ATOM     22  N4  UNL     1      21.091   7.468  35.777  0.00  0.00    -0.270 N 
ATOM     23  C14 UNL     1      20.323   6.684  36.750  0.00  0.00    +0.135 C 
ATOM     24  C15 UNL     1      21.447   6.858  34.523  0.00  0.00    +0.403 C 
ATOM     25  O2  UNL     1      21.409   5.603  34.406  0.00  0.00    -0.226 OA
BRANCH  24  26
ATOM     26  O3  UNL     1      21.805   7.664  33.432  0.00  0.00    -0.445 OA
BRANCH  26  27
ATOM     27  C16 UNL     1      23.125   7.833  32.893  0.00  0.00    +0.107 C 
ATOM     28  C17 UNL     1      24.188   7.346  33.897  0.00  0.00    +0.055 C 
ATOM     29  C18 UNL     1      23.262   7.087  31.552  0.00  0.00    +0.055 C 
ATOM     30  C19 UNL     1      23.328   9.335  32.649  0.00  0.00    +0.055 C 
ENDBRANCH  26  27
ENDBRANCH  24  26
ENDBRANCH  21  22
ENDBRANCH   9  21
TORSDOF 6
ENDMDL
MODEL 4
REMARK VINA RESULT:    -6.022      1.183      2.839
REMARK INTER + INTRA:          -9.071
REMARK INTER:                  -7.902
REMARK INTRA:                  -1.169
REMARK UNBOUND:                -0.937
REMARK  Name = /home/qwerty/github/datacon2025hack/step_04_hit_selection/docking/ligands/lig_72.pdb
REMARK  12 active torsions:
REMARK  status: ('A' for Active; 'I' for Inactive)
REMARK    1  A    between atoms: C1_1  and  O1_2
REMARK    2  A    between atoms: O1_2  and  C2_3
REMARK    3  A    between atoms: C6_7  and  C7_8
REMARK    4  A    between atoms: C12_16  and  C13_17
REMARK    5  A    between atoms: C13_17  and  N4_18
REMARK    6  A    between atoms: N4_18  and  C14_19
REMARK    7  A    between atoms: C15_20  and  O3_22
REMARK    8  A    between atoms: O3_22  and  C16_23
REMARK    9  A    between atoms: C16_23  and  C17_24
REMARK   10  A    between atoms: C16_23  and  C18_25
REMARK   11  A    between atoms: C16_23  and  C19_26
REMARK   12  A    between atoms: N5_28  and  C21_29
REMARK                            x       y       z     vdW  Elec       q    Type
REMARK                         _______ _______ _______ _____ _____    ______ ____
ROOT
ATOM      1  C7  UNL     1      14.848   0.617  23.272  0.00  0.00    +0.165 A 
ATOM      2  N1  UNL     1      13.839   1.148  23.994  0.00  0.00    -0.128 NA
ATOM      3  N2  UNL     1      13.174   1.968  23.195  0.00  0.00    -0.113 NA
ATOM      4  C8  UNL     1      13.785   1.924  21.995  0.00  0.00    +0.220 A 
ATOM      5  N3  UNL     1      13.340   2.687  20.858  0.00  0.00    -0.299 N 
ATOM      6  C9  UNL     1      14.312   3.423  20.033  0.00  0.00    +0.108 C 
ATOM      7  C10 UNL     1      13.655   4.610  19.312  0.00  0.00    +0.019 C 
ATOM      8  C11 UNL     1      12.717   5.359  20.266  0.00  0.00    +0.008 C 
ATOM      9  C12 UNL     1      11.607   4.445  20.863  0.00  0.00    +0.024 C 
ATOM     10  C20 UNL     1      11.908   2.941  20.669  0.00  0.00    +0.113 C 
ATOM     11  N5  UNL     1      14.835   1.074  21.999  0.00  0.00    -0.298 N 
ATOM     12  C21 UNL     1      15.636   0.629  20.860  0.00  0.00    +0.154 C 
ENDROOT
BRANCH   1  17
ATOM     13  C2  UNL     1      18.012  -0.825  24.769  0.00  0.00    +0.121 A 
ATOM     14  C3  UNL     1      17.667  -2.186  24.873  0.00  0.00    +0.045 A 
ATOM     15  C4  UNL     1      16.412  -2.628  24.448  0.00  0.00    +0.004 A 
ATOM     16  C5  UNL     1      15.487  -1.720  23.925  0.00  0.00    +0.012 A 
ATOM     17  C6  UNL     1      15.808  -0.357  23.836  0.00  0.00    +0.023 A 
ATOM     18  C22 UNL     1      17.080   0.078  24.242  0.00  0.00    +0.057 A 
BRANCH  13  20
ATOM     19  C1  UNL     1      19.871   0.842  24.655  0.00  0.00    +0.277 C 
ATOM     20  O1  UNL     1      19.260  -0.332  25.178  0.00  0.00    -0.495 OA
ENDBRANCH  13  20
ENDBRANCH   1  17
BRANCH   9  21
ATOM     21  C13 UNL     1      10.177   4.828  20.401  0.00  0.00    +0.115 C 
BRANCH  21  22
ATOM     22  N4  UNL     1       9.568   5.892  21.219  0.00  0.00    -0.270 N 
ATOM     23  C14 UNL     1       9.517   7.267  20.710  0.00  0.00    +0.135 C 
ATOM     24  C15 UNL     1       8.913   5.590  22.465  0.00  0.00    +0.403 C 
ATOM     25  O2  UNL     1       8.615   6.527  23.255  0.00  0.00    -0.226 OA
BRANCH  24  26
ATOM     26  O3  UNL     1       8.588   4.262  22.779  0.00  0.00    -0.445 OA
BRANCH  26  27
ATOM     27  C16 UNL     1       9.134   3.481  23.851  0.00  0.00    +0.107 C 
ATOM     28  C17 UNL     1      10.456   4.093  24.351  0.00  0.00    +0.055 C 
ATOM     29  C18 UNL     1       8.120   3.361  25.005  0.00  0.00    +0.055 C 
ATOM     30  C19 UNL     1       9.420   2.079  23.293  0.00  0.00    +0.055 C 
ENDBRANCH  26  27
ENDBRANCH  24  26
ENDBRANCH  21  22
ENDBRANCH   9  21
TORSDOF 6
ENDMDL
MODEL 5
REMARK VINA RESULT:    -5.984      2.910      9.072
REMARK INTER + INTRA:          -9.020
REMARK INTER:                  -7.893
REMARK INTRA:                  -1.127
REMARK UNBOUND:                -0.937
REMARK  Name = /home/qwerty/github/datacon2025hack/step_04_hit_selection/docking/ligands/lig_72.pdb
REMARK  12 active torsions:
REMARK  status: ('A' for Active; 'I' for Inactive)
REMARK    1  A    between atoms: C1_1  and  O1_2
REMARK    2  A    between atoms: O1_2  and  C2_3
REMARK    3  A    between atoms: C6_7  and  C7_8
REMARK    4  A    between atoms: C12_16  and  C13_17
REMARK    5  A    between atoms: C13_17  and  N4_18
REMARK    6  A    between atoms: N4_18  and  C14_19
REMARK    7  A    between atoms: C15_20  and  O3_22
REMARK    8  A    between atoms: O3_22  and  C16_23
REMARK    9  A    between atoms: C16_23  and  C17_24
REMARK   10  A    between atoms: C16_23  and  C18_25
REMARK   11  A    between atoms: C16_23  and  C19_26
REMARK   12  A    between atoms: N5_28  and  C21_29
REMARK                            x       y       z     vdW  Elec       q    Type
REMARK                         _______ _______ _______ _____ _____    ______ ____
ROOT
ATOM      1  C7  UNL     1       9.856   6.419  23.569  0.00  0.00    +0.165 A 
ATOM      2  N1  UNL     1      11.205   6.439  23.529  0.00  0.00    -0.128 NA
ATOM      3  N2  UNL     1      11.600   5.272  23.044  0.00  0.00    -0.113 NA
ATOM      4  C8  UNL     1      10.487   4.557  22.791  0.00  0.00    +0.220 A 
ATOM      5  N3  UNL     1      10.515   3.226  22.246  0.00  0.00    -0.299 N 
ATOM      6  C9  UNL     1       9.669   2.169  22.825  0.00  0.00    +0.108 C 
ATOM      7  C10 UNL     1      10.255   0.772  22.567  0.00  0.00    +0.019 C 
ATOM      8  C11 UNL     1      11.769   0.778  22.808  0.00  0.00    +0.008 C 
ATOM      9  C12 UNL     1      12.518   1.818  21.924  0.00  0.00    +0.024 C 
ATOM     10  C20 UNL     1      11.562   2.854  21.289  0.00  0.00    +0.113 C 
ATOM     11  N5  UNL     1       9.367   5.250  23.095  0.00  0.00    -0.298 N 
ATOM     12  C21 UNL     1       7.981   4.888  22.810  0.00  0.00    +0.154 C 
ENDROOT
BRANCH   1  17
ATOM     13  C2  UNL     1       7.926   9.676  23.591  0.00  0.00    +0.121 A 
ATOM     14  C3  UNL     1       7.564   9.767  24.949  0.00  0.00    +0.045 A 
ATOM     15  C4  UNL     1       7.957   8.775  25.850  0.00  0.00    +0.004 A 
ATOM     16  C5  UNL     1       8.705   7.680  25.408  0.00  0.00    +0.012 A 
ATOM     17  C6  UNL     1       9.054   7.563  24.053  0.00  0.00    +0.023 A 
ATOM     18  C22 UNL     1       8.677   8.577  23.157  0.00  0.00    +0.057 A 
BRANCH  13  20
ATOM     19  C1  UNL     1       8.218  10.846  21.402  0.00  0.00    +0.277 C 
ATOM     20  O1  UNL     1       7.560  10.648  22.648  0.00  0.00    -0.495 OA
ENDBRANCH  13  20
ENDBRANCH   1  17
BRANCH   9  21
ATOM     21  C13 UNL     1      13.470   1.173  20.883  0.00  0.00    +0.115 C 
BRANCH  21  22
ATOM     22  N4  UNL     1      14.881   1.175  21.308  0.00  0.00    -0.270 N 
ATOM     23  C14 UNL     1      15.423   0.030  22.048  0.00  0.00    +0.135 C 
ATOM     24  C15 UNL     1      15.776   2.229  20.911  0.00  0.00    +0.403 C 
ATOM     25  O2  UNL     1      16.900   2.339  21.473  0.00  0.00    -0.226 OA
BRANCH  24  26
ATOM     26  O3  UNL     1      15.405   3.109  19.883  0.00  0.00    -0.445 OA
BRANCH  26  27
ATOM     27  C16 UNL     1      15.061   4.495  20.030  0.00  0.00    +0.107 C 
ATOM     28  C17 UNL     1      14.729   4.820  21.499  0.00  0.00    +0.055 C 
ATOM     29  C18 UNL     1      16.202   5.394  19.518  0.00  0.00    +0.055 C 
ATOM     30  C19 UNL     1      13.810   4.745  19.175  0.00  0.00    +0.055 C 
ENDBRANCH  26  27
ENDBRANCH  24  26
ENDBRANCH  21  22
ENDBRANCH   9  21
TORSDOF 6
ENDMDL
MODEL 6
REMARK VINA RESULT:    -5.983     14.555     18.223
REMARK INTER + INTRA:          -9.019
REMARK INTER:                  -7.902
REMARK INTRA:                  -1.117
REMARK UNBOUND:                -0.937
REMARK  Name = /home/qwerty/github/datacon2025hack/step_04_hit_selection/docking/ligands/lig_72.pdb
REMARK  12 active torsions:
REMARK  status: ('A' for Active; 'I' for Inactive)
REMARK    1  A    between atoms: C1_1  and  O1_2
REMARK    2  A    between atoms: O1_2  and  C2_3
REMARK    3  A    between atoms: C6_7  and  C7_8
REMARK    4  A    between atoms: C12_16  and  C13_17
REMARK    5  A    between atoms: C13_17  and  N4_18
REMARK    6  A    between atoms: N4_18  and  C14_19
REMARK    7  A    between atoms: C15_20  and  O3_22
REMARK    8  A    between atoms: O3_22  and  C16_23
REMARK    9  A    between atoms: C16_23  and  C17_24
REMARK   10  A    between atoms: C16_23  and  C18_25
REMARK   11  A    between atoms: C16_23  and  C19_26
REMARK   12  A    between atoms: N5_28  and  C21_29
REMARK                            x       y       z     vdW  Elec       q    Type
REMARK                         _______ _______ _______ _____ _____    ______ ____
ROOT
ATOM      1  C7  UNL     1      14.728  11.536  35.798  0.00  0.00    +0.165 A 
ATOM      2  N1  UNL     1      15.009  10.258  35.470  0.00  0.00    -0.128 NA
ATOM      3  N2  UNL     1      16.316  10.095  35.612  0.00  0.00    -0.113 NA
ATOM      4  C8  UNL     1      16.813  11.276  36.028  0.00  0.00    +0.220 A 
ATOM      5  N3  UNL     1      18.211  11.489  36.297  0.00  0.00    -0.299 N 
ATOM      6  C9  UNL     1      18.889  12.695  35.792  0.00  0.00    +0.108 C 
ATOM      7  C10 UNL     1      20.399  12.465  35.626  0.00  0.00    +0.019 C 
ATOM      8  C11 UNL     1      20.661  11.097  34.985  0.00  0.00    +0.008 C 
ATOM      9  C12 UNL     1      20.052   9.920  35.801  0.00  0.00    +0.024 C 
ATOM     10  C20 UNL     1      19.019  10.396  36.848  0.00  0.00    +0.113 C 
ATOM     11  N5  UNL     1      15.843  12.206  36.170  0.00  0.00    -0.298 N 
ATOM     12  C21 UNL     1      15.956  13.541  36.755  0.00  0.00    +0.154 C 
ENDROOT
BRANCH   1  17
ATOM     13  C2  UNL     1      11.697  13.516  34.688  0.00  0.00    +0.121 A 
ATOM     14  C3  UNL     1      10.771  13.180  35.694  0.00  0.00    +0.045 A 
ATOM     15  C4  UNL     1      11.140  12.319  36.731  0.00  0.00    +0.004 A 
ATOM     16  C5  UNL     1      12.427  11.779  36.772  0.00  0.00    +0.012 A 
ATOM     17  C6  UNL     1      13.355  12.087  35.764  0.00  0.00    +0.023 A 
ATOM     18  C22 UNL     1      12.987  12.972  34.738  0.00  0.00    +0.057 A 
BRANCH  13  20
ATOM     19  C1  UNL     1      12.305  14.817  32.643  0.00  0.00    +0.277 C 
ATOM     20  O1  UNL     1      11.378  14.377  33.629  0.00  0.00    -0.495 OA
ENDBRANCH  13  20
ENDBRANCH   1  17
BRANCH   9  21
ATOM     21  C13 UNL     1      21.119   8.972  36.409  0.00  0.00    +0.115 C 
BRANCH  21  22
ATOM     22  N4  UNL     1      21.518   7.887  35.495  0.00  0.00    -0.270 N 
ATOM     23  C14 UNL     1      22.684   8.059  34.622  0.00  0.00    +0.135 C 
ATOM     24  C15 UNL     1      20.857   6.609  35.524  0.00  0.00    +0.403 C 
ATOM     25  O2  UNL     1      21.049   5.787  34.586  0.00  0.00    -0.226 OA
BRANCH  24  26
ATOM     26  O3  UNL     1      20.028   6.276  36.605  0.00  0.00    -0.445 OA
BRANCH  26  27
ATOM     27  C16 UNL     1      18.603   6.108  36.567  0.00  0.00    +0.107 C 
ATOM     28  C17 UNL     1      17.994   6.899  35.394  0.00  0.00    +0.055 C 
ATOM     29  C18 UNL     1      18.236   4.615  36.466  0.00  0.00    +0.055 C 
ATOM     30  C19 UNL     1      18.044   6.669  37.883  0.00  0.00    +0.055 C 
ENDBRANCH  26  27
ENDBRANCH  24  26
ENDBRANCH  21  22
ENDBRANCH   9  21
TORSDOF 6
ENDMDL
MODEL 7
REMARK VINA RESULT:    -5.938      3.405      5.980
REMARK INTER + INTRA:          -8.957
REMARK INTER:                  -8.455
REMARK INTRA:                  -0.502
REMARK UNBOUND:                -0.937
REMARK  Name = /home/qwerty/github/datacon2025hack/step_04_hit_selection/docking/ligands/lig_72.pdb
REMARK  12 active torsions:
REMARK  status: ('A' for Active; 'I' for Inactive)
REMARK    1  A    between atoms: C1_1  and  O1_2
REMARK    2  A    between atoms: O1_2  and  C2_3
REMARK    3  A    between atoms: C6_7  and  C7_8
REMARK    4  A    between atoms: C12_16  and  C13_17
REMARK    5  A    between atoms: C13_17  and  N4_18
REMARK    6  A    between atoms: N4_18  and  C14_19
REMARK    7  A    between atoms: C15_20  and  O3_22
REMARK    8  A    between atoms: O3_22  and  C16_23
REMARK    9  A    between atoms: C16_23  and  C17_24
REMARK   10  A    between atoms: C16_23  and  C18_25
REMARK   11  A    between atoms: C16_23  and  C19_26
REMARK   12  A    between atoms: N5_28  and  C21_29
REMARK                            x       y       z     vdW  Elec       q    Type
REMARK                         _______ _______ _______ _____ _____    ______ ____
ROOT
ATOM      1  C7  UNL     1      19.313   1.923  24.950  0.00  0.00    +0.165 A 
ATOM      2  N1  UNL     1      18.793   3.003  24.330  0.00  0.00    -0.128 NA
ATOM      3  N2  UNL     1      17.841   2.570  23.519  0.00  0.00    -0.113 NA
ATOM      4  C8  UNL     1      17.789   1.232  23.658  0.00  0.00    +0.220 A 
ATOM      5  N3  UNL     1      16.863   0.401  22.933  0.00  0.00    -0.299 N 
ATOM      6  C9  UNL     1      17.325  -0.841  22.292  0.00  0.00    +0.108 C 
ATOM      7  C10 UNL     1      16.425  -1.235  21.112  0.00  0.00    +0.019 C 
ATOM      8  C11 UNL     1      16.085  -0.002  20.266  0.00  0.00    +0.008 C 
ATOM      9  C12 UNL     1      15.387   1.121  21.089  0.00  0.00    +0.024 C 
ATOM     10  C20 UNL     1      15.526   0.912  22.614  0.00  0.00    +0.113 C 
ATOM     11  N5  UNL     1      18.691   0.787  24.560  0.00  0.00    -0.298 N 
ATOM     12  C21 UNL     1      18.827  -0.563  25.105  0.00  0.00    +0.154 C 
ENDROOT
BRANCH   1  17
ATOM     13  C2  UNL     1      21.301   1.437  28.135  0.00  0.00    +0.121 A 
ATOM     14  C3  UNL     1      22.444   2.212  27.862  0.00  0.00    +0.045 A 
ATOM     15  C4  UNL     1      22.558   2.895  26.649  0.00  0.00    +0.004 A 
ATOM     16  C5  UNL     1      21.541   2.806  25.694  0.00  0.00    +0.012 A 
ATOM     17  C6  UNL     1      20.405   2.019  25.942  0.00  0.00    +0.023 A 
ATOM     18  C22 UNL     1      20.285   1.355  27.174  0.00  0.00    +0.057 A 
BRANCH  13  20
ATOM     19  C1  UNL     1      21.401   1.279  30.628  0.00  0.00    +0.277 C 
ATOM     20  O1  UNL     1      21.137   0.736  29.339  0.00  0.00    -0.495 OA
ENDBRANCH  13  20
ENDBRANCH   1  17
BRANCH   9  21
ATOM     21  C13 UNL     1      13.921   1.383  20.657  0.00  0.00    +0.115 C 
BRANCH  21  22
ATOM     22  N4  UNL     1      13.590   2.816  20.571  0.00  0.00    -0.270 N 
ATOM     23  C14 UNL     1      14.525   3.747  19.929  0.00  0.00    +0.135 C 
ATOM     24  C15 UNL     1      12.308   3.311  21.000  0.00  0.00    +0.403 C 
ATOM     25  O2  UNL     1      12.133   4.552  21.141  0.00  0.00    -0.226 OA
BRANCH  24  26
ATOM     26  O3  UNL     1      11.255   2.412  21.232  0.00  0.00    -0.445 OA
BRANCH  26  27
ATOM     27  C16 UNL     1      10.701   2.059  22.508  0.00  0.00    +0.107 C 
ATOM     28  C17 UNL     1      10.184   0.608  22.492  0.00  0.00    +0.055 C 
ATOM     29  C18 UNL     1      11.745   2.252  23.624  0.00  0.00    +0.055 C 
ATOM     30  C19 UNL     1       9.517   3.002  22.766  0.00  0.00    +0.055 C 
ENDBRANCH  26  27
ENDBRANCH  24  26
ENDBRANCH  21  22
ENDBRANCH   9  21
TORSDOF 6
ENDMDL
MODEL 8
REMARK VINA RESULT:    -5.887      1.980      2.595
REMARK INTER + INTRA:          -8.889
REMARK INTER:                  -8.113
REMARK INTRA:                  -0.775
REMARK UNBOUND:                -0.937
REMARK  Name = /home/qwerty/github/datacon2025hack/step_04_hit_selection/docking/ligands/lig_72.pdb
REMARK  12 active torsions:
REMARK  status: ('A' for Active; 'I' for Inactive)
REMARK    1  A    between atoms: C1_1  and  O1_2
REMARK    2  A    between atoms: O1_2  and  C2_3
REMARK    3  A    between atoms: C6_7  and  C7_8
REMARK    4  A    between atoms: C12_16  and  C13_17
REMARK    5  A    between atoms: C13_17  and  N4_18
REMARK    6  A    between atoms: N4_18  and  C14_19
REMARK    7  A    between atoms: C15_20  and  O3_22
REMARK    8  A    between atoms: O3_22  and  C16_23
REMARK    9  A    between atoms: C16_23  and  C17_24
REMARK   10  A    between atoms: C16_23  and  C18_25
REMARK   11  A    between atoms: C16_23  and  C19_26
REMARK   12  A    between atoms: N5_28  and  C21_29
REMARK                            x       y       z     vdW  Elec       q    Type
REMARK                         _______ _______ _______ _____ _____    ______ ____
ROOT
ATOM      1  C7  UNL     1      14.280   1.318  21.977  0.00  0.00    +0.165 A 
ATOM      2  N1  UNL     1      12.936   1.201  21.983  0.00  0.00    -0.128 NA
ATOM      3  N2  UNL     1      12.436   2.396  21.709  0.00  0.00    -0.113 NA
ATOM      4  C8  UNL     1      13.483   3.226  21.536  0.00  0.00    +0.220 A 
ATOM      5  N3  UNL     1      13.335   4.622  21.217  0.00  0.00    -0.299 N 
ATOM      6  C9  UNL     1      14.131   5.635  21.929  0.00  0.00    +0.108 C 
ATOM      7  C10 UNL     1      13.436   7.005  21.923  0.00  0.00    +0.019 C 
ATOM      8  C11 UNL     1      11.939   6.844  22.214  0.00  0.00    +0.008 C 
ATOM      9  C12 UNL     1      11.224   5.904  21.200  0.00  0.00    +0.024 C 
ATOM     10  C20 UNL     1      12.219   5.059  20.371  0.00  0.00    +0.113 C 
ATOM     11  N5  UNL     1      14.662   2.583  21.683  0.00  0.00    -0.298 N 
ATOM     12  C21 UNL     1      16.004   3.092  21.411  0.00  0.00    +0.154 C 
ENDROOT
BRANCH   1  17
ATOM     13  C2  UNL     1      15.842  -1.688  23.667  0.00  0.00    +0.121 A 
ATOM     14  C3  UNL     1      16.904  -1.971  22.788  0.00  0.00    +0.045 A 
ATOM     15  C4  UNL     1      17.111  -1.179  21.656  0.00  0.00    +0.004 A 
ATOM     16  C5  UNL     1      16.260  -0.105  21.385  0.00  0.00    +0.012 A 
ATOM     17  C6  UNL     1      15.183   0.177  22.240  0.00  0.00    +0.023 A 
ATOM     18  C22 UNL     1      14.994  -0.608  23.389  0.00  0.00    +0.057 A 
BRANCH  13  20
ATOM     19  C1  UNL     1      14.355  -2.471  25.517  0.00  0.00    +0.277 C 
ATOM     20  O1  UNL     1      15.594  -2.450  24.818  0.00  0.00    -0.495 OA
ENDBRANCH  13  20
ENDBRANCH   1  17
BRANCH   9  21
ATOM     21  C13 UNL     1      10.180   6.631  20.313  0.00  0.00    +0.115 C 
BRANCH  21  22
ATOM     22  N4  UNL     1       8.788   6.339  20.698  0.00  0.00    -0.270 N 
ATOM     23  C14 UNL     1       8.317   4.950  20.741  0.00  0.00    +0.135 C 
ATOM     24  C15 UNL     1       7.907   7.383  21.150  0.00  0.00    +0.403 C 
ATOM     25  O2  UNL     1       6.669   7.158  21.245  0.00  0.00    -0.226 OA
BRANCH  24  26
ATOM     26  O3  UNL     1       8.432   8.634  21.508  0.00  0.00    -0.445 OA
BRANCH  26  27
ATOM     27  C16 UNL     1       8.667   9.110  22.842  0.00  0.00    +0.107 C 
ATOM     28  C17 UNL     1       7.531  10.048  23.292  0.00  0.00    +0.055 C 
ATOM     29  C18 UNL     1       8.818   7.930  23.820  0.00  0.00    +0.055 C 
ATOM     30  C19 UNL     1       9.981   9.904  22.815  0.00  0.00    +0.055 C 
ENDBRANCH  26  27
ENDBRANCH  24  26
ENDBRANCH  21  22
ENDBRANCH   9  21
TORSDOF 6
ENDMDL
MODEL 9
REMARK VINA RESULT:    -5.835      4.744     10.029
REMARK INTER + INTRA:          -8.819
REMARK INTER:                  -8.441
REMARK INTRA:                  -0.378
REMARK UNBOUND:                -0.937
REMARK  Name = /home/qwerty/github/datacon2025hack/step_04_hit_selection/docking/ligands/lig_72.pdb
REMARK  12 active torsions:
REMARK  status: ('A' for Active; 'I' for Inactive)
REMARK    1  A    between atoms: C1_1  and  O1_2
REMARK    2  A    between atoms: O1_2  and  C2_3
REMARK    3  A    between atoms: C6_7  and  C7_8
REMARK    4  A    between atoms: C12_16  and  C13_17
REMARK    5  A    between atoms: C13_17  and  N4_18
REMARK    6  A    between atoms: N4_18  and  C14_19
REMARK    7  A    between atoms: C15_20  and  O3_22
REMARK    8  A    between atoms: O3_22  and  C16_23
REMARK    9  A    between atoms: C16_23  and  C17_24
REMARK   10  A    between atoms: C16_23  and  C18_25
REMARK   11  A    between atoms: C16_23  and  C19_26
REMARK   12  A    between atoms: N5_28  and  C21_29
REMARK                            x       y       z     vdW  Elec       q    Type
REMARK                         _______ _______ _______ _____ _____    ______ ____
ROOT
ATOM      1  C7  UNL     1       8.457   8.450  26.074  0.00  0.00    +0.165 A 
ATOM      2  N1  UNL     1       8.904   7.207  26.347  0.00  0.00    -0.128 NA
ATOM      3  N2  UNL     1       9.082   6.591  25.189  0.00  0.00    -0.113 NA
ATOM      4  C8  UNL     1       8.745   7.468  24.224  0.00  0.00    +0.220 A 
ATOM      5  N3  UNL     1       8.813   7.158  22.820  0.00  0.00    -0.299 N 
ATOM      6  C9  UNL     1       7.699   7.514  21.926  0.00  0.00    +0.108 C 
ATOM      7  C10 UNL     1       7.656   6.606  20.688  0.00  0.00    +0.019 C 
ATOM      8  C11 UNL     1       7.897   5.146  21.091  0.00  0.00    +0.008 C 
ATOM      9  C12 UNL     1       9.250   4.938  21.831  0.00  0.00    +0.024 C 
ATOM     10  C20 UNL     1       9.867   6.268  22.323  0.00  0.00    +0.113 C 
ATOM     11  N5  UNL     1       8.358   8.656  24.740  0.00  0.00    -0.298 N 
ATOM     12  C21 UNL     1       8.081   9.900  24.025  0.00  0.00    +0.154 C 
ENDROOT
BRANCH   1  17
ATOM     13  C2  UNL     1       8.321  11.720  27.979  0.00  0.00    +0.121 A 
ATOM     14  C3  UNL     1       7.616  11.331  29.134  0.00  0.00    +0.045 A 
ATOM     15  C4  UNL     1       7.197  10.008  29.291  0.00  0.00    +0.004 A 
ATOM     16  C5  UNL     1       7.467   9.063  28.298  0.00  0.00    +0.012 A 
ATOM     17  C6  UNL     1       8.149   9.439  27.130  0.00  0.00    +0.023 A 
ATOM     18  C22 UNL     1       8.590  10.765  26.989  0.00  0.00    +0.057 A 
BRANCH  13  20
ATOM     19  C1  UNL     1       9.966  13.569  28.323  0.00  0.00    +0.277 C 
ATOM     20  O1  UNL     1       8.766  13.034  27.776  0.00  0.00    -0.495 OA
ENDBRANCH  13  20
ENDBRANCH   1  17
BRANCH   9  21
ATOM     21  C13 UNL     1      10.263   4.072  21.038  0.00  0.00    +0.115 C 
BRANCH  21  22
ATOM     22  N4  UNL     1      10.686   2.862  21.764  0.00  0.00    -0.270 N 
ATOM     23  C14 UNL     1       9.758   2.201  22.688  0.00  0.00    +0.135 C 
ATOM     24  C15 UNL     1      11.957   2.242  21.499  0.00  0.00    +0.403 C 
ATOM     25  O2  UNL     1      12.399   1.362  22.288  0.00  0.00    -0.226 OA
BRANCH  24  26
ATOM     26  O3  UNL     1      12.683   2.600  20.353  0.00  0.00    -0.445 OA
BRANCH  26  27
ATOM     27  C16 UNL     1      13.782   3.520  20.292  0.00  0.00    +0.107 C 
ATOM     28  C17 UNL     1      13.545   4.579  19.199  0.00  0.00    +0.055 C 
ATOM     29  C18 UNL     1      14.002   4.193  21.661  0.00  0.00    +0.055 C 
ATOM     30  C19 UNL     1      15.035   2.709  19.930  0.00  0.00    +0.055 C 
ENDBRANCH  26  27
ENDBRANCH  24  26
ENDBRANCH  21  22
ENDBRANCH   9  21
TORSDOF 6
ENDMDL
