REMARK  Name = /home/qwerty/github/datacon2025hack/step_04_hit_selection/docking/ligands/lig_312.pdb
REMARK  5 active torsions:
REMARK  status: ('A' for Active; 'I' for Inactive)
REMARK    1  A    between atoms: C1_1  and  C2_2
REMARK    2  A    between atoms: N2_10  and  C9_11
REMARK    3  A    between atoms: C9_11  and  C10_12
REMARK    4  A    between atoms: C14_17  and  C15_19
REMARK    5  A    between atoms: N4_21  and  C16_22
REMARK                            x       y       z     vdW  Elec       q    Type
REMARK                         _______ _______ _______ _____ _____    ______ ____
ROOT
ATOM      1  C10 UNL     1      -2.037  -0.956   0.173  0.00  0.00    +0.096 C 
ATOM      2  C11 UNL     1      -2.766  -1.732   1.277  0.00  0.00    +0.026 C 
ATOM      3  C12 UNL     1      -1.800  -2.829   1.707  0.00  0.00    +0.021 C 
ATOM      4  C13 UNL     1      -0.414  -2.292   1.372  0.00  0.00    +0.108 C 
ATOM      5  N3  UNL     1      -0.622  -1.263   0.362  0.00  0.00    -0.289 N 
ATOM      6  C14 UNL     1       0.407  -0.825  -0.551  0.00  0.00    +0.302 C 
ATOM      7  O1  UNL     1       0.083  -0.439  -1.708  0.00  0.00    -0.265 OA
ENDROOT
BRANCH   6   8
ATOM      8  C15 UNL     1       1.836  -0.809  -0.166  0.00  0.00    +0.303 C 
ATOM      9  O2  UNL     1       2.168  -1.051   1.026  0.00  0.00    -0.265 OA
ATOM     10  N4  UNL     1       2.844  -0.464  -1.133  0.00  0.00    -0.275 N 
ATOM     11  H17 UNL     1       2.549  -0.002  -2.024  0.00  0.00    +0.155 HD
BRANCH  10  12
ATOM     12  C16 UNL     1       4.253  -0.639  -0.904  0.00  0.00    +0.078 A 
ATOM     13  C17 UNL     1       4.736  -1.786  -0.247  0.00  0.00    +0.027 A 
ATOM     14  C18 UNL     1       6.109  -1.960  -0.048  0.00  0.00    +0.004 A 
ATOM     15  C19 UNL     1       7.012  -0.992  -0.492  0.00  0.00    +0.027 A 
ATOM     16  C20 UNL     1       6.546   0.148  -1.158  0.00  0.00    +0.078 A 
ATOM     17  C21 UNL     1       5.169   0.315  -1.386  0.00  0.00    +0.163 A 
ATOM     18  O3  UNL     1       4.711   1.457  -2.058  0.00  0.00    -0.479 OA
ATOM     19  C22 UNL     1       5.568   2.319  -2.816  0.00  0.00    +0.325 C 
ATOM     20  C23 UNL     1       6.968   2.324  -2.275  0.00  0.00    +0.255 C 
ATOM     21  O4  UNL     1       7.732   3.304  -2.501  0.00  0.00    -0.272 OA
ATOM     22  N5  UNL     1       7.453   1.185  -1.558  0.00  0.00    -0.280 N 
ATOM     23  H23 UNL     1       8.465   1.131  -1.300  0.00  0.00    +0.155 HD
ENDBRANCH  10  12
ENDBRANCH   6   8
BRANCH   1  24
ATOM     24  C9  UNL     1      -2.290   0.563   0.253  0.00  0.00    +0.146 C 
BRANCH  24  34
ATOM     25  C1  UNL     1      -3.969   0.485  -2.375  0.00  0.00    +0.086 C 
ATOM     26  C2  UNL     1      -4.481   0.844  -1.012  0.00  0.00    +0.108 A 
ATOM     27  N1  UNL     1      -5.792   1.126  -0.788  0.00  0.00    -0.233 NA
ATOM     28  C3  UNL     1      -5.833   1.348   0.536  0.00  0.00    +0.089 A 
ATOM     29  C4  UNL     1      -6.946   1.686   1.299  0.00  0.00    +0.030 A 
ATOM     30  C5  UNL     1      -6.758   1.875   2.681  0.00  0.00    +0.002 A 
ATOM     31  C6  UNL     1      -5.476   1.728   3.255  0.00  0.00    +0.002 A 
ATOM     32  C7  UNL     1      -4.372   1.383   2.457  0.00  0.00    +0.028 A 
ATOM     33  C8  UNL     1      -4.593   1.198   1.089  0.00  0.00    +0.069 A 
ATOM     34  N2  UNL     1      -3.720   0.871   0.118  0.00  0.00    -0.326 N 
ENDBRANCH  24  34
ENDBRANCH   1  24
TORSDOF 4
