MODEL 1
REMARK VINA RESULT:    -7.463      0.000      0.000
REMARK INTER + INTRA:          -9.256
REMARK INTER:                  -8.772
REMARK INTRA:                  -0.485
REMARK UNBOUND:                -0.485
REMARK  Name = /home/qwerty/github/datacon2025hack/step_04_hit_selection/docking/ligands/lig_98.pdb
REMARK  3 active torsions:
REMARK  status: ('A' for Active; 'I' for Inactive)
REMARK    1  A    between atoms: C1_2  and  C13_18
REMARK    2  A    between atoms: N1_3  and  C2_4
REMARK    3  A    between atoms: C6_9  and  C7_10
REMARK                            x       y       z     vdW  Elec       q    Type
REMARK                         _______ _______ _______ _____ _____    ______ ____
ROOT
ATOM      1  O1  UNL     1      18.107   6.630  18.525  0.00  0.00    -0.270 OA
ATOM      2  C1  UNL     1      17.480   7.448  19.251  0.00  0.00    +0.248 C 
ATOM      3  N1  UNL     1      16.403   6.988  20.089  0.00  0.00    -0.281 N 
ATOM      4  H1  UNL     1      15.810   7.686  20.588  0.00  0.00    +0.155 HD
ENDROOT
BRANCH   2   5
ATOM      5  C13 UNL     1      17.867   8.879  19.215  0.00  0.00    +0.038 A 
ATOM      6  C14 UNL     1      16.889   9.868  19.422  0.00  0.00    +0.015 A 
ATOM      7  C15 UNL     1      17.227  11.223  19.397  0.00  0.00    +0.027 A 
ATOM      8  C16 UNL     1      18.553  11.616  19.173  0.00  0.00    +0.049 A 
ATOM      9  N4  UNL     1      18.891  12.939  19.147  0.00  0.00    -0.322 N 
ATOM     10  C17 UNL     1      20.178  13.341  18.940  0.00  0.00    +0.249 A 
ATOM     11  O3  UNL     1      20.459  14.569  18.922  0.00  0.00    -0.268 OA
ATOM     12  C18 UNL     1      21.188  12.394  18.746  0.00  0.00    +0.071 A 
ATOM     13  C19 UNL     1      20.871  11.035  18.767  0.00  0.00    +0.015 A 
ATOM     14  C20 UNL     1      19.547  10.631  18.979  0.00  0.00    -0.001 A 
ATOM     15  C21 UNL     1      19.202   9.272  19.004  0.00  0.00    +0.023 A 
ATOM     16  H11 UNL     1      18.154  13.667  19.292  0.00  0.00    +0.169 HD
ENDBRANCH   2   5
BRANCH   3  17
ATOM     17  C2  UNL     1      16.041   5.604  20.240  0.00  0.00    +0.036 A 
ATOM     18  C3  UNL     1      14.911   5.106  19.539  0.00  0.00    +0.025 A 
ATOM     19  C4  UNL     1      14.509   3.765  19.681  0.00  0.00    +0.029 A 
ATOM     20  C5  UNL     1      15.247   2.959  20.540  0.00  0.00    +0.067 A 
ATOM     21  N2  UNL     1      15.052   1.670  20.844  0.00  0.00    -0.335 N 
ATOM     22  C6  UNL     1      16.038   1.397  21.737  0.00  0.00    +0.175 A 
ATOM     23  N3  UNL     1      16.842   2.460  22.006  0.00  0.00    -0.225 NA
ATOM     24  C11 UNL     1      16.320   3.429  21.234  0.00  0.00    +0.091 A 
ATOM     25  C12 UNL     1      16.749   4.750  21.121  0.00  0.00    +0.053 A 
ATOM     26  H4  UNL     1      14.309   1.034  20.480  0.00  0.00    +0.167 HD
BRANCH  22  27
ATOM     27  C7  UNL     1      16.229   0.082  22.366  0.00  0.00    +0.170 A 
ATOM     28  C8  UNL     1      17.207  -0.842  22.052  0.00  0.00    +0.053 A 
ATOM     29  C9  UNL     1      16.991  -1.910  22.897  0.00  0.00    +0.042 A 
ATOM     30  C10 UNL     1      15.899  -1.572  23.671  0.00  0.00    +0.196 A 
ATOM     31  O2  UNL     1      15.468  -0.379  23.332  0.00  0.00    -0.460 OA
ENDBRANCH  22  27
ENDBRANCH   3  17
TORSDOF 3
ENDMDL
MODEL 2
REMARK VINA RESULT:    -7.159     10.301     13.971
REMARK INTER + INTRA:          -8.899
REMARK INTER:                  -8.400
REMARK INTRA:                  -0.499
REMARK UNBOUND:                -0.485
REMARK  Name = /home/qwerty/github/datacon2025hack/step_04_hit_selection/docking/ligands/lig_98.pdb
REMARK  3 active torsions:
REMARK  status: ('A' for Active; 'I' for Inactive)
REMARK    1  A    between atoms: C1_2  and  C13_18
REMARK    2  A    between atoms: N1_3  and  C2_4
REMARK    3  A    between atoms: C6_9  and  C7_10
REMARK                            x       y       z     vdW  Elec       q    Type
REMARK                         _______ _______ _______ _____ _____    ______ ____
ROOT
ATOM      1  O1  UNL     1      10.649   1.493  27.609  0.00  0.00    -0.270 OA
ATOM      2  C1  UNL     1       9.778   0.999  26.842  0.00  0.00    +0.248 C 
ATOM      3  N1  UNL     1       9.028  -0.159  27.257  0.00  0.00    -0.281 N 
ATOM      4  H1  UNL     1       8.402  -0.634  26.571  0.00  0.00    +0.155 HD
ENDROOT
BRANCH   2   5
ATOM      5  C13 UNL     1       9.552   1.626  25.518  0.00  0.00    +0.038 A 
ATOM      6  C14 UNL     1      10.266   1.161  24.398  0.00  0.00    +0.015 A 
ATOM      7  C15 UNL     1      10.071   1.732  23.139  0.00  0.00    +0.027 A 
ATOM      8  C16 UNL     1       9.149   2.774  22.971  0.00  0.00    +0.049 A 
ATOM      9  N4  UNL     1       8.952   3.336  21.742  0.00  0.00    -0.322 N 
ATOM     10  C17 UNL     1       8.053   4.344  21.557  0.00  0.00    +0.249 A 
ATOM     11  O3  UNL     1       7.893   4.843  20.411  0.00  0.00    -0.268 OA
ATOM     12  C18 UNL     1       7.307   4.828  22.635  0.00  0.00    +0.071 A 
ATOM     13  C19 UNL     1       7.487   4.272  23.903  0.00  0.00    +0.015 A 
ATOM     14  C20 UNL     1       8.414   3.238  24.085  0.00  0.00    -0.001 A 
ATOM     15  C21 UNL     1       8.615   2.662  25.348  0.00  0.00    +0.023 A 
ATOM     16  H11 UNL     1       9.496   2.990  20.919  0.00  0.00    +0.169 HD
ENDBRANCH   2   5
BRANCH   3  17
ATOM     17  C2  UNL     1       9.131  -0.755  28.561  0.00  0.00    +0.036 A 
ATOM     18  C3  UNL     1      10.030  -1.837  28.755  0.00  0.00    +0.025 A 
ATOM     19  C4  UNL     1      10.141  -2.465  30.010  0.00  0.00    +0.029 A 
ATOM     20  C5  UNL     1       9.331  -1.996  31.038  0.00  0.00    +0.067 A 
ATOM     21  N2  UNL     1       9.250  -2.437  32.300  0.00  0.00    -0.335 N 
ATOM     22  C6  UNL     1       8.297  -1.646  32.857  0.00  0.00    +0.175 A 
ATOM     23  N3  UNL     1       7.776  -0.730  31.998  0.00  0.00    -0.225 NA
ATOM     24  C11 UNL     1       8.450  -0.973  30.860  0.00  0.00    +0.091 A 
ATOM     25  C12 UNL     1       8.311  -0.327  29.634  0.00  0.00    +0.053 A 
ATOM     26  H4  UNL     1       9.793  -3.211  32.741  0.00  0.00    +0.167 HD
BRANCH  22  27
ATOM     27  C7  UNL     1       7.855  -1.761  34.254  0.00  0.00    +0.170 A 
ATOM     28  C8  UNL     1       8.202  -2.759  35.143  0.00  0.00    +0.053 A 
ATOM     29  C9  UNL     1       7.554  -2.447  36.320  0.00  0.00    +0.042 A 
ATOM     30  C10 UNL     1       6.856  -1.282  36.076  0.00  0.00    +0.196 A 
ATOM     31  O2  UNL     1       7.055  -0.897  34.836  0.00  0.00    -0.460 OA
ENDBRANCH  22  27
ENDBRANCH   3  17
TORSDOF 3
ENDMDL
MODEL 3
REMARK VINA RESULT:    -7.037      6.787     12.151
REMARK INTER + INTRA:          -8.756
REMARK INTER:                  -8.418
REMARK INTRA:                  -0.338
REMARK UNBOUND:                -0.485
REMARK  Name = /home/qwerty/github/datacon2025hack/step_04_hit_selection/docking/ligands/lig_98.pdb
REMARK  3 active torsions:
REMARK  status: ('A' for Active; 'I' for Inactive)
REMARK    1  A    between atoms: C1_2  and  C13_18
REMARK    2  A    between atoms: N1_3  and  C2_4
REMARK    3  A    between atoms: C6_9  and  C7_10
REMARK                            x       y       z     vdW  Elec       q    Type
REMARK                         _______ _______ _______ _____ _____    ______ ____
ROOT
ATOM      1  O1  UNL     1      22.980   2.908  25.700  0.00  0.00    -0.270 OA
ATOM      2  C1  UNL     1      21.803   2.968  26.150  0.00  0.00    +0.248 C 
ATOM      3  N1  UNL     1      20.798   3.715  25.438  0.00  0.00    -0.281 N 
ATOM      4  H1  UNL     1      19.864   3.864  25.879  0.00  0.00    +0.155 HD
ENDROOT
BRANCH   2   5
ATOM      5  C13 UNL     1      21.484   2.265  27.416  0.00  0.00    +0.038 A 
ATOM      6  C14 UNL     1      22.494   1.552  28.088  0.00  0.00    +0.015 A 
ATOM      7  C15 UNL     1      22.222   0.884  29.283  0.00  0.00    +0.027 A 
ATOM      8  C16 UNL     1      20.935   0.924  29.838  0.00  0.00    +0.049 A 
ATOM      9  N4  UNL     1      20.662   0.273  31.007  0.00  0.00    -0.322 N 
ATOM     10  C17 UNL     1      19.419   0.308  31.566  0.00  0.00    +0.249 A 
ATOM     11  O3  UNL     1      19.197  -0.302  32.646  0.00  0.00    -0.268 OA
ATOM     12  C18 UNL     1      18.387   1.018  30.945  0.00  0.00    +0.071 A 
ATOM     13  C19 UNL     1      18.638   1.692  29.749  0.00  0.00    +0.015 A 
ATOM     14  C20 UNL     1      19.917   1.650  29.180  0.00  0.00    -0.001 A 
ATOM     15  C21 UNL     1      20.196   2.318  27.979  0.00  0.00    +0.023 A 
ATOM     16  H11 UNL     1      21.417  -0.263  31.492  0.00  0.00    +0.169 HD
ENDBRANCH   2   5
BRANCH   3  17
ATOM     17  C2  UNL     1      21.018   4.338  24.161  0.00  0.00    +0.036 A 
ATOM     18  C3  UNL     1      20.294   3.871  23.033  0.00  0.00    +0.025 A 
ATOM     19  C4  UNL     1      20.500   4.436  21.760  0.00  0.00    +0.029 A 
ATOM     20  C5  UNL     1      21.444   5.452  21.652  0.00  0.00    +0.067 A 
ATOM     21  N2  UNL     1      21.818   6.126  20.558  0.00  0.00    -0.335 N 
ATOM     22  C6  UNL     1      22.774   6.975  21.014  0.00  0.00    +0.175 A 
ATOM     23  N3  UNL     1      23.015   6.861  22.347  0.00  0.00    -0.225 NA
ATOM     24  C11 UNL     1      22.159   5.895  22.722  0.00  0.00    +0.091 A 
ATOM     25  C12 UNL     1      21.984   5.361  23.997  0.00  0.00    +0.053 A 
ATOM     26  H4  UNL     1      21.459   6.013  19.585  0.00  0.00    +0.167 HD
BRANCH  22  27
ATOM     27  C7  UNL     1      23.493   7.931  20.160  0.00  0.00    +0.170 A 
ATOM     28  C8  UNL     1      24.619   8.654  20.506  0.00  0.00    +0.053 A 
ATOM     29  C9  UNL     1      24.930   9.407  19.393  0.00  0.00    +0.042 A 
ATOM     30  C10 UNL     1      23.980   9.097  18.442  0.00  0.00    +0.196 A 
ATOM     31  O2  UNL     1      23.137   8.214  18.928  0.00  0.00    -0.460 OA
ENDBRANCH  22  27
ENDBRANCH   3  17
TORSDOF 3
ENDMDL
MODEL 4
REMARK VINA RESULT:    -7.007     10.050     15.711
REMARK INTER + INTRA:          -8.721
REMARK INTER:                  -8.267
REMARK INTRA:                  -0.454
REMARK UNBOUND:                -0.485
REMARK  Name = /home/qwerty/github/datacon2025hack/step_04_hit_selection/docking/ligands/lig_98.pdb
REMARK  3 active torsions:
REMARK  status: ('A' for Active; 'I' for Inactive)
REMARK    1  A    between atoms: C1_2  and  C13_18
REMARK    2  A    between atoms: N1_3  and  C2_4
REMARK    3  A    between atoms: C6_9  and  C7_10
REMARK                            x       y       z     vdW  Elec       q    Type
REMARK                         _______ _______ _______ _____ _____    ______ ____
ROOT
ATOM      1  O1  UNL     1       7.316  -0.343  26.815  0.00  0.00    -0.270 OA
ATOM      2  C1  UNL     1       8.426  -0.200  27.395  0.00  0.00    +0.248 C 
ATOM      3  N1  UNL     1       9.471   0.572  26.771  0.00  0.00    -0.281 N 
ATOM      4  H1  UNL     1      10.423   0.581  27.197  0.00  0.00    +0.155 HD
ENDROOT
BRANCH   2   5
ATOM      5  C13 UNL     1       8.631  -0.842  28.716  0.00  0.00    +0.038 A 
ATOM      6  C14 UNL     1       9.733  -1.695  28.909  0.00  0.00    +0.015 A 
ATOM      7  C15 UNL     1       9.951  -2.311  30.143  0.00  0.00    +0.027 A 
ATOM      8  C16 UNL     1       9.076  -2.079  31.213  0.00  0.00    +0.049 A 
ATOM      9  N4  UNL     1       9.284  -2.678  32.423  0.00  0.00    -0.322 N 
ATOM     10  C17 UNL     1       8.448  -2.458  33.478  0.00  0.00    +0.249 A 
ATOM     11  O3  UNL     1       8.665  -3.024  34.582  0.00  0.00    -0.268 OA
ATOM     12  C18 UNL     1       7.349  -1.605  33.339  0.00  0.00    +0.071 A 
ATOM     13  C19 UNL     1       7.113  -0.979  32.114  0.00  0.00    +0.015 A 
ATOM     14  C20 UNL     1       7.975  -1.213  31.035  0.00  0.00    -0.001 A 
ATOM     15  C21 UNL     1       7.760  -0.597  29.793  0.00  0.00    +0.023 A 
ATOM     16  H11 UNL     1      10.100  -3.319  32.553  0.00  0.00    +0.169 HD
ENDBRANCH   2   5
BRANCH   3  17
ATOM     17  C2  UNL     1       9.304   1.297  25.540  0.00  0.00    +0.036 A 
ATOM     18  C3  UNL     1       9.916   0.800  24.360  0.00  0.00    +0.025 A 
ATOM     19  C4  UNL     1       9.799   1.494  23.141  0.00  0.00    +0.029 A 
ATOM     20  C5  UNL     1       9.079   2.684  23.144  0.00  0.00    +0.067 A 
ATOM     21  N2  UNL     1       8.845   3.516  22.123  0.00  0.00    -0.335 N 
ATOM     22  C6  UNL     1       8.119   4.518  22.684  0.00  0.00    +0.175 A 
ATOM     23  N3  UNL     1       7.890   4.349  24.013  0.00  0.00    -0.225 NA
ATOM     24  C11 UNL     1       8.505   3.182  24.274  0.00  0.00    +0.091 A 
ATOM     25  C12 UNL     1       8.599   2.524  25.498  0.00  0.00    +0.053 A 
ATOM     26  H4  UNL     1       9.156   3.415  21.132  0.00  0.00    +0.167 HD
BRANCH  22  27
ATOM     27  C7  UNL     1       7.624   5.684  21.939  0.00  0.00    +0.170 A 
ATOM     28  C8  UNL     1       6.566   5.700  21.051  0.00  0.00    +0.053 A 
ATOM     29  C9  UNL     1       6.476   7.002  20.606  0.00  0.00    +0.042 A 
ATOM     30  C10 UNL     1       7.481   7.697  21.248  0.00  0.00    +0.196 A 
ATOM     31  O2  UNL     1       8.148   6.885  22.036  0.00  0.00    -0.460 OA
ENDBRANCH  22  27
ENDBRANCH   3  17
TORSDOF 3
ENDMDL
MODEL 5
REMARK VINA RESULT:    -6.942     12.670     16.440
REMARK INTER + INTRA:          -8.645
REMARK INTER:                  -8.156
REMARK INTRA:                  -0.489
REMARK UNBOUND:                -0.485
REMARK  Name = /home/qwerty/github/datacon2025hack/step_04_hit_selection/docking/ligands/lig_98.pdb
REMARK  3 active torsions:
REMARK  status: ('A' for Active; 'I' for Inactive)
REMARK    1  A    between atoms: C1_2  and  C13_18
REMARK    2  A    between atoms: N1_3  and  C2_4
REMARK    3  A    between atoms: C6_9  and  C7_10
REMARK                            x       y       z     vdW  Elec       q    Type
REMARK                         _______ _______ _______ _____ _____    ______ ____
ROOT
ATOM      1  O1  UNL     1      18.975  12.916  30.884  0.00  0.00    -0.270 OA
ATOM      2  C1  UNL     1      19.650  13.259  31.893  0.00  0.00    +0.248 C 
ATOM      3  N1  UNL     1      20.800  14.112  31.734  0.00  0.00    -0.281 N 
ATOM      4  H1  UNL     1      21.423  14.287  32.552  0.00  0.00    +0.155 HD
ENDROOT
BRANCH   2   5
ATOM      5  C13 UNL     1      19.242  12.763  33.229  0.00  0.00    +0.038 A 
ATOM      6  C14 UNL     1      18.322  13.504  33.993  0.00  0.00    +0.015 A 
ATOM      7  C15 UNL     1      17.918  13.058  35.253  0.00  0.00    +0.027 A 
ATOM      8  C16 UNL     1      18.418  11.855  35.772  0.00  0.00    +0.049 A 
ATOM      9  N4  UNL     1      18.027  11.413  37.003  0.00  0.00    -0.322 N 
ATOM     10  C17 UNL     1      18.496  10.242  37.520  0.00  0.00    +0.249 A 
ATOM     11  O3  UNL     1      18.117   9.859  38.659  0.00  0.00    -0.268 OA
ATOM     12  C18 UNL     1      19.399   9.462  36.790  0.00  0.00    +0.071 A 
ATOM     13  C19 UNL     1      19.816   9.890  35.529  0.00  0.00    +0.015 A 
ATOM     14  C20 UNL     1      19.330  11.095  35.006  0.00  0.00    -0.001 A 
ATOM     15  C21 UNL     1      19.734  11.548  33.741  0.00  0.00    +0.023 A 
ATOM     16  H11 UNL     1      17.351  11.977  37.567  0.00  0.00    +0.169 HD
ENDBRANCH   2   5
BRANCH   3  17
ATOM     17  C2  UNL     1      21.193  14.702  30.482  0.00  0.00    +0.036 A 
ATOM     18  C3  UNL     1      20.696  15.986  30.140  0.00  0.00    +0.025 A 
ATOM     19  C4  UNL     1      21.035  16.587  28.913  0.00  0.00    +0.029 A 
ATOM     20  C5  UNL     1      21.857  15.869  28.051  0.00  0.00    +0.067 A 
ATOM     21  N2  UNL     1      22.300  16.222  26.838  0.00  0.00    -0.335 N 
ATOM     22  C6  UNL     1      23.038  15.154  26.441  0.00  0.00    +0.175 A 
ATOM     23  N3  UNL     1      23.075  14.146  27.352  0.00  0.00    -0.225 NA
ATOM     24  C11 UNL     1      22.324  14.628  28.358  0.00  0.00    +0.091 A 
ATOM     25  C12 UNL     1      22.010  14.001  29.562  0.00  0.00    +0.053 A 
ATOM     26  H4  UNL     1      22.112  17.110  26.323  0.00  0.00    +0.167 HD
BRANCH  22  27
ATOM     27  C7  UNL     1      23.733  15.076  25.148  0.00  0.00    +0.170 A 
ATOM     28  C8  UNL     1      24.316  16.128  24.468  0.00  0.00    +0.053 A 
ATOM     29  C9  UNL     1      24.840  15.578  23.317  0.00  0.00    +0.042 A 
ATOM     30  C10 UNL     1      24.546  14.231  23.367  0.00  0.00    +0.196 A 
ATOM     31  O2  UNL     1      23.886  13.962  24.470  0.00  0.00    -0.460 OA
ENDBRANCH  22  27
ENDBRANCH   3  17
TORSDOF 3
ENDMDL
MODEL 6
REMARK VINA RESULT:    -6.884     12.468     15.974
REMARK INTER + INTRA:          -8.576
REMARK INTER:                  -8.079
REMARK INTRA:                  -0.498
REMARK UNBOUND:                -0.485
REMARK  Name = /home/qwerty/github/datacon2025hack/step_04_hit_selection/docking/ligands/lig_98.pdb
REMARK  3 active torsions:
REMARK  status: ('A' for Active; 'I' for Inactive)
REMARK    1  A    between atoms: C1_2  and  C13_18
REMARK    2  A    between atoms: N1_3  and  C2_4
REMARK    3  A    between atoms: C6_9  and  C7_10
REMARK                            x       y       z     vdW  Elec       q    Type
REMARK                         _______ _______ _______ _____ _____    ______ ____
ROOT
ATOM      1  O1  UNL     1      20.188  12.139  30.185  0.00  0.00    -0.270 OA
ATOM      2  C1  UNL     1      20.343  13.132  30.948  0.00  0.00    +0.248 C 
ATOM      3  N1  UNL     1      21.322  14.140  30.627  0.00  0.00    -0.281 N 
ATOM      4  H1  UNL     1      21.530  14.888  31.323  0.00  0.00    +0.155 HD
ENDROOT
BRANCH   2   5
ATOM      5  C13 UNL     1      19.510  13.232  32.170  0.00  0.00    +0.038 A 
ATOM      6  C14 UNL     1      18.798  14.417  32.430  0.00  0.00    +0.015 A 
ATOM      7  C15 UNL     1      18.005  14.536  33.573  0.00  0.00    +0.027 A 
ATOM      8  C16 UNL     1      17.898  13.468  34.475  0.00  0.00    +0.049 A 
ATOM      9  N4  UNL     1      17.123  13.578  35.594  0.00  0.00    -0.322 N 
ATOM     10  C17 UNL     1      17.001  12.547  36.478  0.00  0.00    +0.249 A 
ATOM     11  O3  UNL     1      16.278  12.678  37.502  0.00  0.00    -0.268 OA
ATOM     12  C18 UNL     1      17.676  11.344  36.253  0.00  0.00    +0.071 A 
ATOM     13  C19 UNL     1      18.475  11.203  35.117  0.00  0.00    +0.015 A 
ATOM     14  C20 UNL     1      18.597  12.268  34.215  0.00  0.00    -0.001 A 
ATOM     15  C21 UNL     1      19.394  12.154  33.067  0.00  0.00    +0.023 A 
ATOM     16  H11 UNL     1      16.606  14.467  35.783  0.00  0.00    +0.169 HD
ENDBRANCH   2   5
BRANCH   3  17
ATOM     17  C2  UNL     1      22.092  14.151  29.413  0.00  0.00    +0.036 A 
ATOM     18  C3  UNL     1      23.314  13.431  29.366  0.00  0.00    +0.025 A 
ATOM     19  C4  UNL     1      24.110  13.438  28.205  0.00  0.00    +0.029 A 
ATOM     20  C5  UNL     1      23.662  14.185  27.122  0.00  0.00    +0.067 A 
ATOM     21  N2  UNL     1      24.245  14.354  25.929  0.00  0.00    -0.335 N 
ATOM     22  C6  UNL     1      23.398  15.186  25.270  0.00  0.00    +0.175 A 
ATOM     23  N3  UNL     1      22.309  15.546  25.999  0.00  0.00    -0.225 NA
ATOM     24  C11 UNL     1      22.502  14.897  27.161  0.00  0.00    +0.091 A 
ATOM     25  C12 UNL     1      21.687  14.915  28.291  0.00  0.00    +0.053 A 
ATOM     26  H4  UNL     1      25.145  13.944  25.595  0.00  0.00    +0.167 HD
BRANCH  22  27
ATOM     27  C7  UNL     1      23.625  15.664  23.899  0.00  0.00    +0.170 A 
ATOM     28  C8  UNL     1      24.825  15.648  23.214  0.00  0.00    +0.053 A 
ATOM     29  C9  UNL     1      24.551  16.191  21.976  0.00  0.00    +0.042 A 
ATOM     30  C10 UNL     1      23.206  16.502  21.983  0.00  0.00    +0.196 A 
ATOM     31  O2  UNL     1      22.681  16.176  23.142  0.00  0.00    -0.460 OA
ENDBRANCH  22  27
ENDBRANCH   3  17
TORSDOF 3
ENDMDL
MODEL 7
REMARK VINA RESULT:    -6.853     11.978     12.595
REMARK INTER + INTRA:          -8.540
REMARK INTER:                  -8.035
REMARK INTRA:                  -0.505
REMARK UNBOUND:                -0.485
REMARK  Name = /home/qwerty/github/datacon2025hack/step_04_hit_selection/docking/ligands/lig_98.pdb
REMARK  3 active torsions:
REMARK  status: ('A' for Active; 'I' for Inactive)
REMARK    1  A    between atoms: C1_2  and  C13_18
REMARK    2  A    between atoms: N1_3  and  C2_4
REMARK    3  A    between atoms: C6_9  and  C7_10
REMARK                            x       y       z     vdW  Elec       q    Type
REMARK                         _______ _______ _______ _____ _____    ______ ____
ROOT
ATOM      1  O1  UNL     1      17.875  13.776  27.109  0.00  0.00    -0.270 OA
ATOM      2  C1  UNL     1      18.030  14.994  26.822  0.00  0.00    +0.248 C 
ATOM      3  N1  UNL     1      16.983  15.941  27.112  0.00  0.00    -0.281 N 
ATOM      4  H1  UNL     1      17.067  16.919  26.759  0.00  0.00    +0.155 HD
ENDROOT
BRANCH   2   5
ATOM      5  C13 UNL     1      19.295  15.422  26.178  0.00  0.00    +0.038 A 
ATOM      6  C14 UNL     1      19.337  16.636  25.468  0.00  0.00    +0.015 A 
ATOM      7  C15 UNL     1      20.516  17.064  24.855  0.00  0.00    +0.027 A 
ATOM      8  C16 UNL     1      21.682  16.292  24.948  0.00  0.00    +0.049 A 
ATOM      9  N4  UNL     1      22.838  16.705  24.351  0.00  0.00    -0.322 N 
ATOM     10  C17 UNL     1      23.985  15.971  24.438  0.00  0.00    +0.249 A 
ATOM     11  O3  UNL     1      25.037  16.378  23.877  0.00  0.00    -0.268 OA
ATOM     12  C18 UNL     1      23.997  14.766  25.147  0.00  0.00    +0.071 A 
ATOM     13  C19 UNL     1      22.829  14.320  25.767  0.00  0.00    +0.015 A 
ATOM     14  C20 UNL     1      21.655  15.079  25.671  0.00  0.00    -0.001 A 
ATOM     15  C21 UNL     1      20.468  14.652  26.284  0.00  0.00    +0.023 A 
ATOM     16  H11 UNL     1      22.856  17.603  23.817  0.00  0.00    +0.169 HD
ENDBRANCH   2   5
BRANCH   3  17
ATOM     17  C2  UNL     1      15.775  15.608  27.818  0.00  0.00    +0.036 A 
ATOM     18  C3  UNL     1      15.788  15.593  29.237  0.00  0.00    +0.025 A 
ATOM     19  C4  UNL     1      14.634  15.246  29.965  0.00  0.00    +0.029 A 
ATOM     20  C5  UNL     1      13.496  14.907  29.242  0.00  0.00    +0.067 A 
ATOM     21  N2  UNL     1      12.297  14.534  29.706  0.00  0.00    -0.335 N 
ATOM     22  C6  UNL     1      11.573  14.303  28.581  0.00  0.00    +0.175 A 
ATOM     23  N3  UNL     1      12.268  14.514  27.431  0.00  0.00    -0.225 NA
ATOM     24  C11 UNL     1      13.476  14.897  27.881  0.00  0.00    +0.091 A 
ATOM     25  C12 UNL     1      14.597  15.234  27.126  0.00  0.00    +0.053 A 
ATOM     26  H4  UNL     1      11.999  14.439  30.702  0.00  0.00    +0.167 HD
BRANCH  22  27
ATOM     27  C7  UNL     1      10.171  13.862  28.587  0.00  0.00    +0.170 A 
ATOM     28  C8  UNL     1       9.517  13.228  29.626  0.00  0.00    +0.053 A 
ATOM     29  C9  UNL     1       8.231  13.012  29.177  0.00  0.00    +0.042 A 
ATOM     30  C10 UNL     1       8.182  13.526  27.897  0.00  0.00    +0.196 A 
ATOM     31  O2  UNL     1       9.353  14.026  27.574  0.00  0.00    -0.460 OA
ENDBRANCH  22  27
ENDBRANCH   3  17
TORSDOF 3
ENDMDL
MODEL 8
REMARK VINA RESULT:    -6.678     11.354     14.122
REMARK INTER + INTRA:          -8.334
REMARK INTER:                  -7.919
REMARK INTRA:                  -0.415
REMARK UNBOUND:                -0.485
REMARK  Name = /home/qwerty/github/datacon2025hack/step_04_hit_selection/docking/ligands/lig_98.pdb
REMARK  3 active torsions:
REMARK  status: ('A' for Active; 'I' for Inactive)
REMARK    1  A    between atoms: C1_2  and  C13_18
REMARK    2  A    between atoms: N1_3  and  C2_4
REMARK    3  A    between atoms: C6_9  and  C7_10
REMARK                            x       y       z     vdW  Elec       q    Type
REMARK                         _______ _______ _______ _____ _____    ______ ____
ROOT
ATOM      1  O1  UNL     1      10.556  10.562  25.186  0.00  0.00    -0.270 OA
ATOM      2  C1  UNL     1       9.409  10.039  25.240  0.00  0.00    +0.248 C 
ATOM      3  N1  UNL     1       8.544  10.316  26.359  0.00  0.00    -0.281 N 
ATOM      4  H1  UNL     1       7.653   9.784  26.458  0.00  0.00    +0.155 HD
ENDROOT
BRANCH   2   5
ATOM      5  C13 UNL     1       8.981   9.139  24.143  0.00  0.00    +0.038 A 
ATOM      6  C14 UNL     1       8.678   9.679  22.880  0.00  0.00    +0.015 A 
ATOM      7  C15 UNL     1       8.275   8.854  21.828  0.00  0.00    +0.027 A 
ATOM      8  C16 UNL     1       8.176   7.468  22.015  0.00  0.00    +0.049 A 
ATOM      9  N4  UNL     1       7.783   6.655  20.991  0.00  0.00    -0.322 N 
ATOM     10  C17 UNL     1       7.690   5.304  21.152  0.00  0.00    +0.249 A 
ATOM     11  O3  UNL     1       7.324   4.579  20.188  0.00  0.00    -0.268 OA
ATOM     12  C18 UNL     1       7.997   4.719  22.384  0.00  0.00    +0.071 A 
ATOM     13  C19 UNL     1       8.401   5.526  23.448  0.00  0.00    +0.015 A 
ATOM     14  C20 UNL     1       8.493   6.913  23.275  0.00  0.00    -0.001 A 
ATOM     15  C21 UNL     1       8.896   7.747  24.329  0.00  0.00    +0.023 A 
ATOM     16  H11 UNL     1       7.550   7.068  20.059  0.00  0.00    +0.169 HD
ENDBRANCH   2   5
BRANCH   3  17
ATOM     17  C2  UNL     1       8.862  11.251  27.405  0.00  0.00    +0.036 A 
ATOM     18  C3  UNL     1       8.241  12.528  27.399  0.00  0.00    +0.025 A 
ATOM     19  C4  UNL     1       8.545  13.480  28.389  0.00  0.00    +0.029 A 
ATOM     20  C5  UNL     1       9.480  13.128  29.356  0.00  0.00    +0.067 A 
ATOM     21  N2  UNL     1       9.936  13.861  30.379  0.00  0.00    -0.335 N 
ATOM     22  C6  UNL     1      10.839  13.047  30.983  0.00  0.00    +0.175 A 
ATOM     23  N3  UNL     1      10.969  11.835  30.382  0.00  0.00    -0.225 NA
ATOM     24  C11 UNL     1      10.098  11.914  29.361  0.00  0.00    +0.091 A 
ATOM     25  C12 UNL     1       9.824  10.946  28.398  0.00  0.00    +0.053 A 
ATOM     26  H4  UNL     1       9.660  14.834  30.639  0.00  0.00    +0.167 HD
BRANCH  22  27
ATOM     27  C7  UNL     1      11.613  13.426  32.173  0.00  0.00    +0.170 A 
ATOM     28  C8  UNL     1      12.148  14.672  32.439  0.00  0.00    +0.053 A 
ATOM     29  C9  UNL     1      12.781  14.550  33.658  0.00  0.00    +0.042 A 
ATOM     30  C10 UNL     1      12.593  13.242  34.058  0.00  0.00    +0.196 A 
ATOM     31  O2  UNL     1      11.894  12.598  33.153  0.00  0.00    -0.460 OA
ENDBRANCH  22  27
ENDBRANCH   3  17
TORSDOF 3
ENDMDL
MODEL 9
REMARK VINA RESULT:    -6.658      9.587     13.570
REMARK INTER + INTRA:          -8.310
REMARK INTER:                  -7.808
REMARK INTRA:                  -0.502
REMARK UNBOUND:                -0.485
REMARK  Name = /home/qwerty/github/datacon2025hack/step_04_hit_selection/docking/ligands/lig_98.pdb
REMARK  3 active torsions:
REMARK  status: ('A' for Active; 'I' for Inactive)
REMARK    1  A    between atoms: C1_2  and  C13_18
REMARK    2  A    between atoms: N1_3  and  C2_4
REMARK    3  A    between atoms: C6_9  and  C7_10
REMARK                            x       y       z     vdW  Elec       q    Type
REMARK                         _______ _______ _______ _____ _____    ______ ____
ROOT
ATOM      1  O1  UNL     1      18.195   2.047  29.050  0.00  0.00    -0.270 OA
ATOM      2  C1  UNL     1      19.137   1.618  28.329  0.00  0.00    +0.248 C 
ATOM      3  N1  UNL     1      20.498   1.711  28.793  0.00  0.00    -0.281 N 
ATOM      4  H1  UNL     1      21.277   1.471  28.142  0.00  0.00    +0.155 HD
ENDROOT
BRANCH   2   5
ATOM      5  C13 UNL     1      18.815   1.030  27.007  0.00  0.00    +0.038 A 
ATOM      6  C14 UNL     1      19.825   0.916  26.033  0.00  0.00    +0.015 A 
ATOM      7  C15 UNL     1      19.549   0.364  24.781  0.00  0.00    +0.027 A 
ATOM      8  C16 UNL     1      18.260  -0.095  24.479  0.00  0.00    +0.049 A 
ATOM      9  N4  UNL     1      17.984  -0.636  23.256  0.00  0.00    -0.322 N 
ATOM     10  C17 UNL     1      16.738  -1.096  22.947  0.00  0.00    +0.249 A 
ATOM     11  O3  UNL     1      16.513  -1.591  21.810  0.00  0.00    -0.268 OA
ATOM     12  C18 UNL     1      15.706  -1.020  23.887  0.00  0.00    +0.071 A 
ATOM     13  C19 UNL     1      15.960  -0.471  25.145  0.00  0.00    +0.015 A 
ATOM     14  C20 UNL     1      17.242   0.000  25.454  0.00  0.00    -0.001 A 
ATOM     15  C21 UNL     1      17.524   0.557  26.710  0.00  0.00    +0.023 A 
ATOM     16  H11 UNL     1      18.739  -0.707  22.536  0.00  0.00    +0.169 HD
ENDBRANCH   2   5
BRANCH   3  17
ATOM     17  C2  UNL     1      20.868   2.182  30.101  0.00  0.00    +0.036 A 
ATOM     18  C3  UNL     1      20.792   1.289  31.202  0.00  0.00    +0.025 A 
ATOM     19  C4  UNL     1      21.120   1.719  32.501  0.00  0.00    +0.029 A 
ATOM     20  C5  UNL     1      21.504   3.045  32.663  0.00  0.00    +0.067 A 
ATOM     21  N2  UNL     1      21.846   3.681  33.790  0.00  0.00    -0.335 N 
ATOM     22  C6  UNL     1      22.104   4.949  33.380  0.00  0.00    +0.175 A 
ATOM     23  N3  UNL     1      21.937   5.136  32.044  0.00  0.00    -0.225 NA
ATOM     24  C11 UNL     1      21.561   3.917  31.618  0.00  0.00    +0.091 A 
ATOM     25  C12 UNL     1      21.244   3.530  30.319  0.00  0.00    +0.053 A 
ATOM     26  H4  UNL     1      21.894   3.286  34.756  0.00  0.00    +0.167 HD
BRANCH  22  27
ATOM     27  C7  UNL     1      22.521   6.031  34.284  0.00  0.00    +0.170 A 
ATOM     28  C8  UNL     1      23.077   5.880  35.539  0.00  0.00    +0.053 A 
ATOM     29  C9  UNL     1      23.301   7.160  36.000  0.00  0.00    +0.042 A 
ATOM     30  C10 UNL     1      22.870   8.009  35.001  0.00  0.00    +0.196 A 
ATOM     31  O2  UNL     1      22.411   7.306  33.991  0.00  0.00    -0.460 OA
ENDBRANCH  22  27
ENDBRANCH   3  17
TORSDOF 3
ENDMDL
