MODEL 1
REMARK VINA RESULT:    -6.715      0.000      0.000
REMARK INTER + INTRA:          -9.376
REMARK INTER:                  -8.678
REMARK INTRA:                  -0.698
REMARK UNBOUND:                -0.698
REMARK  Name = /home/qwerty/github/datacon2025hack/step_04_hit_selection/docking/ligands/lig_9.pdb
REMARK  6 active torsions:
REMARK  status: ('A' for Active; 'I' for Inactive)
REMARK    1  A    between atoms: C1_1  and  O1_2
REMARK    2  A    between atoms: O1_2  and  C2_3
REMARK    3  A    between atoms: C5_6  and  C6_7
REMARK    4  A    between atoms: C9_11  and  C10_12
REMARK    5  A    between atoms: N2_14  and  C11_15
REMARK    6  A    between atoms: C14_18  and  N3_19
REMARK                            x       y       z     vdW  Elec       q    Type
REMARK                         _______ _______ _______ _____ _____    ______ ____
ROOT
ATOM      1  C10 UNL     1       8.692  11.315  28.955  0.00  0.00    +0.251 C 
ATOM      2  O2  UNL     1       7.850  11.930  29.664  0.00  0.00    -0.270 OA
ATOM      3  N2  UNL     1      10.098  11.534  29.166  0.00  0.00    -0.266 N 
ATOM      4  H8  UNL     1      10.740  11.443  28.347  0.00  0.00    +0.157 HD
ENDROOT
BRANCH   1   9
ATOM      5  C6  UNL     1       8.131   9.768  25.522  0.00  0.00    +0.001 A 
ATOM      6  C7  UNL     1       7.318   8.682  25.886  0.00  0.00    +0.119 A 
ATOM      7  N1  UNL     1       6.983   8.481  27.186  0.00  0.00    -0.262 NA
ATOM      8  C8  UNL     1       7.411   9.307  28.176  0.00  0.00    +0.123 A 
ATOM      9  C9  UNL     1       8.218  10.416  27.875  0.00  0.00    +0.056 A 
ATOM     10  C20 UNL     1       8.581  10.633  26.535  0.00  0.00    +0.024 A 
BRANCH   5  14
ATOM     11  C2  UNL     1       9.232  10.428  21.409  0.00  0.00    +0.120 A 
ATOM     12  C3  UNL     1       7.909  10.648  21.836  0.00  0.00    +0.046 A 
ATOM     13  C4  UNL     1       7.553  10.433  23.171  0.00  0.00    +0.012 A 
ATOM     14  C5  UNL     1       8.509   9.995  24.104  0.00  0.00    -0.016 A 
ATOM     15  C21 UNL     1       9.830   9.778  23.673  0.00  0.00    +0.012 A 
ATOM     16  C22 UNL     1      10.184   9.993  22.337  0.00  0.00    +0.046 A 
BRANCH  11  18
ATOM     17  C1  UNL     1      10.926  10.292  19.576  0.00  0.00    +0.277 C 
ATOM     18  O1  UNL     1       9.638  10.630  20.082  0.00  0.00    -0.495 OA
ENDBRANCH  11  18
ENDBRANCH   5  14
ENDBRANCH   1   9
BRANCH   3  19
ATOM     19  C11 UNL     1      10.658  12.029  30.392  0.00  0.00    +0.125 A 
ATOM     20  C12 UNL     1      10.822  13.405  30.625  0.00  0.00    +0.045 A 
ATOM     21  C13 UNL     1      11.346  13.838  31.843  0.00  0.00    +0.028 A 
ATOM     22  C14 UNL     1      11.693  12.908  32.833  0.00  0.00    +0.048 A 
ATOM     23  C19 UNL     1      11.500  11.545  32.566  0.00  0.00    +0.136 A 
ATOM     24  N4  UNL     1      10.987  11.145  31.373  0.00  0.00    -0.238 NA
BRANCH  22  25
ATOM     25  N3  UNL     1      12.239  13.349  34.092  0.00  0.00    -0.324 N 
ATOM     26  C15 UNL     1      13.111  14.526  34.141  0.00  0.00    +0.133 C 
ATOM     27  C16 UNL     1      14.070  14.409  35.330  0.00  0.00    +0.178 C 
ATOM     28  O3  UNL     1      13.357  14.157  36.526  0.00  0.00    -0.377 OA
ATOM     29  C17 UNL     1      12.725  12.894  36.451  0.00  0.00    +0.178 C 
ATOM     30  C18 UNL     1      11.655  12.885  35.354  0.00  0.00    +0.133 C 
ENDBRANCH  22  25
ENDBRANCH   3  19
TORSDOF 5
ENDMDL
MODEL 2
REMARK VINA RESULT:    -6.670     13.397     17.366
REMARK INTER + INTRA:          -9.317
REMARK INTER:                  -8.597
REMARK INTRA:                  -0.720
REMARK UNBOUND:                -0.698
REMARK  Name = /home/qwerty/github/datacon2025hack/step_04_hit_selection/docking/ligands/lig_9.pdb
REMARK  6 active torsions:
REMARK  status: ('A' for Active; 'I' for Inactive)
REMARK    1  A    between atoms: C1_1  and  O1_2
REMARK    2  A    between atoms: O1_2  and  C2_3
REMARK    3  A    between atoms: C5_6  and  C6_7
REMARK    4  A    between atoms: C9_11  and  C10_12
REMARK    5  A    between atoms: N2_14  and  C11_15
REMARK    6  A    between atoms: C14_18  and  N3_19
REMARK                            x       y       z     vdW  Elec       q    Type
REMARK                         _______ _______ _______ _____ _____    ______ ____
ROOT
ATOM      1  C10 UNL     1      20.833   1.368  30.159  0.00  0.00    +0.251 C 
ATOM      2  O2  UNL     1      21.013   0.121  30.099  0.00  0.00    -0.270 OA
ATOM      3  N2  UNL     1      20.376   2.079  28.995  0.00  0.00    -0.266 N 
ATOM      4  H8  UNL     1      20.676   3.073  28.875  0.00  0.00    +0.157 HD
ENDROOT
BRANCH   1   9
ATOM      5  C6  UNL     1      22.186   3.954  32.602  0.00  0.00    +0.001 A 
ATOM      6  C7  UNL     1      21.690   3.423  33.803  0.00  0.00    +0.119 A 
ATOM      7  N1  UNL     1      20.953   2.282  33.796  0.00  0.00    -0.262 NA
ATOM      8  C8  UNL     1      20.670   1.615  32.647  0.00  0.00    +0.123 A 
ATOM      9  C9  UNL     1      21.146   2.090  31.415  0.00  0.00    +0.056 A 
ATOM     10  C20 UNL     1      21.902   3.275  31.405  0.00  0.00    +0.024 A 
BRANCH   5  14
ATOM     11  C2  UNL     1      24.508   7.583  32.581  0.00  0.00    +0.120 A 
ATOM     12  C3  UNL     1      25.071   6.381  33.047  0.00  0.00    +0.046 A 
ATOM     13  C4  UNL     1      24.317   5.204  33.054  0.00  0.00    +0.012 A 
ATOM     14  C5  UNL     1      22.987   5.205  32.596  0.00  0.00    -0.016 A 
ATOM     15  C21 UNL     1      22.430   6.409  32.130  0.00  0.00    +0.012 A 
ATOM     16  C22 UNL     1      23.186   7.585  32.124  0.00  0.00    +0.046 A 
BRANCH  11  18
ATOM     17  C1  UNL     1      24.799   9.961  31.865  0.00  0.00    +0.277 C 
ATOM     18  O1  UNL     1      25.224   8.789  32.554  0.00  0.00    -0.495 OA
ENDBRANCH  11  18
ENDBRANCH   5  14
ENDBRANCH   1   9
BRANCH   3  19
ATOM     19  C11 UNL     1      19.672   1.467  27.904  0.00  0.00    +0.125 A 
ATOM     20  C12 UNL     1      20.339   1.034  26.746  0.00  0.00    +0.045 A 
ATOM     21  C13 UNL     1      19.615   0.419  25.725  0.00  0.00    +0.028 A 
ATOM     22  C14 UNL     1      18.233   0.222  25.858  0.00  0.00    +0.048 A 
ATOM     23  C19 UNL     1      17.607   0.656  27.037  0.00  0.00    +0.136 A 
ATOM     24  N4  UNL     1      18.333   1.251  28.020  0.00  0.00    -0.238 NA
BRANCH  22  25
ATOM     25  N3  UNL     1      17.478  -0.408  24.805  0.00  0.00    -0.324 N 
ATOM     26  C15 UNL     1      16.357  -1.294  25.136  0.00  0.00    +0.133 C 
ATOM     27  C16 UNL     1      16.169  -2.326  24.019  0.00  0.00    +0.178 C 
ATOM     28  O3  UNL     1      16.061  -1.688  22.760  0.00  0.00    -0.377 OA
ATOM     29  C17 UNL     1      17.278  -1.039  22.446  0.00  0.00    +0.178 C 
ATOM     30  C18 UNL     1      17.560   0.098  23.432  0.00  0.00    +0.133 C 
ENDBRANCH  22  25
ENDBRANCH   3  19
TORSDOF 5
ENDMDL
MODEL 3
REMARK VINA RESULT:    -6.649     13.476     14.832
REMARK INTER + INTRA:          -9.291
REMARK INTER:                  -8.593
REMARK INTRA:                  -0.698
REMARK UNBOUND:                -0.698
REMARK  Name = /home/qwerty/github/datacon2025hack/step_04_hit_selection/docking/ligands/lig_9.pdb
REMARK  6 active torsions:
REMARK  status: ('A' for Active; 'I' for Inactive)
REMARK    1  A    between atoms: C1_1  and  O1_2
REMARK    2  A    between atoms: O1_2  and  C2_3
REMARK    3  A    between atoms: C5_6  and  C6_7
REMARK    4  A    between atoms: C9_11  and  C10_12
REMARK    5  A    between atoms: N2_14  and  C11_15
REMARK    6  A    between atoms: C14_18  and  N3_19
REMARK                            x       y       z     vdW  Elec       q    Type
REMARK                         _______ _______ _______ _____ _____    ______ ____
ROOT
ATOM      1  C10 UNL     1      21.769   5.983  22.714  0.00  0.00    +0.251 C 
ATOM      2  O2  UNL     1      21.096   4.983  22.344  0.00  0.00    -0.270 OA
ATOM      3  N2  UNL     1      21.984   6.219  24.117  0.00  0.00    -0.266 N 
ATOM      4  H8  UNL     1      22.087   7.207  24.440  0.00  0.00    +0.157 HD
ENDROOT
BRANCH   1   9
ATOM      5  C6  UNL     1      22.156   9.060  20.507  0.00  0.00    +0.001 A 
ATOM      6  C7  UNL     1      23.305   8.690  19.790  0.00  0.00    +0.119 A 
ATOM      7  N1  UNL     1      23.908   7.497  20.029  0.00  0.00    -0.262 NA
ATOM      8  C8  UNL     1      23.435   6.624  20.955  0.00  0.00    +0.123 A 
ATOM      9  C9  UNL     1      22.284   6.931  21.697  0.00  0.00    +0.056 A 
ATOM     10  C20 UNL     1      21.653   8.166  21.468  0.00  0.00    +0.024 A 
BRANCH   5  14
ATOM     11  C2  UNL     1      20.226  12.845  19.792  0.00  0.00    +0.120 A 
ATOM     12  C3  UNL     1      19.837  11.701  19.071  0.00  0.00    +0.046 A 
ATOM     13  C4  UNL     1      20.464  10.473  19.303  0.00  0.00    +0.012 A 
ATOM     14  C5  UNL     1      21.490  10.364  20.259  0.00  0.00    -0.016 A 
ATOM     15  C21 UNL     1      21.874  11.511  20.977  0.00  0.00    +0.012 A 
ATOM     16  C22 UNL     1      21.246  12.738  20.742  0.00  0.00    +0.046 A 
BRANCH  11  18
ATOM     17  C1  UNL     1      20.015  15.289  20.274  0.00  0.00    +0.277 C 
ATOM     18  O1  UNL     1      19.628  14.099  19.595  0.00  0.00    -0.495 OA
ENDBRANCH  11  18
ENDBRANCH   5  14
ENDBRANCH   1   9
BRANCH   3  19
ATOM     19  C11 UNL     1      21.902   5.200  25.124  0.00  0.00    +0.125 A 
ATOM     20  C12 UNL     1      22.894   4.214  25.258  0.00  0.00    +0.045 A 
ATOM     21  C13 UNL     1      22.784   3.261  26.271  0.00  0.00    +0.028 A 
ATOM     22  C14 UNL     1      21.699   3.296  27.159  0.00  0.00    +0.048 A 
ATOM     23  C19 UNL     1      20.738   4.306  27.000  0.00  0.00    +0.136 A 
ATOM     24  N4  UNL     1      20.866   5.225  26.006  0.00  0.00    -0.238 NA
BRANCH  22  25
ATOM     25  N3  UNL     1      21.577   2.312  28.205  0.00  0.00    -0.324 N 
ATOM     26  C15 UNL     1      21.099   2.710  29.533  0.00  0.00    +0.133 C 
ATOM     27  C16 UNL     1      21.673   1.764  30.592  0.00  0.00    +0.178 C 
ATOM     28  O3  UNL     1      21.412   0.414  30.254  0.00  0.00    -0.377 OA
ATOM     29  C17 UNL     1      22.098   0.077  29.064  0.00  0.00    +0.178 C 
ATOM     30  C18 UNL     1      21.560   0.884  27.878  0.00  0.00    +0.133 C 
ENDBRANCH  22  25
ENDBRANCH   3  19
TORSDOF 5
ENDMDL
MODEL 4
REMARK VINA RESULT:    -6.585      2.215     11.121
REMARK INTER + INTRA:          -9.208
REMARK INTER:                  -8.505
REMARK INTRA:                  -0.703
REMARK UNBOUND:                -0.698
REMARK  Name = /home/qwerty/github/datacon2025hack/step_04_hit_selection/docking/ligands/lig_9.pdb
REMARK  6 active torsions:
REMARK  status: ('A' for Active; 'I' for Inactive)
REMARK    1  A    between atoms: C1_1  and  O1_2
REMARK    2  A    between atoms: O1_2  and  C2_3
REMARK    3  A    between atoms: C5_6  and  C6_7
REMARK    4  A    between atoms: C9_11  and  C10_12
REMARK    5  A    between atoms: N2_14  and  C11_15
REMARK    6  A    between atoms: C14_18  and  N3_19
REMARK                            x       y       z     vdW  Elec       q    Type
REMARK                         _______ _______ _______ _____ _____    ______ ____
ROOT
ATOM      1  C10 UNL     1      10.664  13.317  28.387  0.00  0.00    +0.251 C 
ATOM      2  O2  UNL     1      10.415  14.091  27.423  0.00  0.00    -0.270 OA
ATOM      3  N2  UNL     1      10.206  11.955  28.346  0.00  0.00    -0.266 N 
ATOM      4  H8  UNL     1       9.975  11.485  29.250  0.00  0.00    +0.157 HD
ENDROOT
BRANCH   1   9
ATOM      5  C6  UNL     1      11.792  13.862  31.982  0.00  0.00    +0.001 A 
ATOM      6  C7  UNL     1      12.777  14.842  31.772  0.00  0.00    +0.119 A 
ATOM      7  N1  UNL     1      13.045  15.286  30.517  0.00  0.00    -0.262 NA
ATOM      8  C8  UNL     1      12.384  14.813  29.429  0.00  0.00    +0.123 A 
ATOM      9  C9  UNL     1      11.383  13.841  29.575  0.00  0.00    +0.056 A 
ATOM     10  C20 UNL     1      11.099  13.363  30.866  0.00  0.00    +0.024 A 
BRANCH   5  14
ATOM     11  C2  UNL     1      10.930  12.417  35.948  0.00  0.00    +0.120 A 
ATOM     12  C3  UNL     1      11.296  11.520  34.928  0.00  0.00    +0.046 A 
ATOM     13  C4  UNL     1      11.575  11.990  33.641  0.00  0.00    +0.012 A 
ATOM     14  C5  UNL     1      11.494  13.363  33.348  0.00  0.00    -0.016 A 
ATOM     15  C21 UNL     1      11.129  14.255  34.372  0.00  0.00    +0.012 A 
ATOM     16  C22 UNL     1      10.849  13.783  35.658  0.00  0.00    +0.046 A 
BRANCH  11  18
ATOM     17  C1  UNL     1      11.266  10.891  37.899  0.00  0.00    +0.277 C 
ATOM     18  O1  UNL     1      10.640  11.995  37.254  0.00  0.00    -0.495 OA
ENDBRANCH  11  18
ENDBRANCH   5  14
ENDBRANCH   1   9
BRANCH   3  19
ATOM     19  C11 UNL     1       9.887  11.251  27.137  0.00  0.00    +0.125 A 
ATOM     20  C12 UNL     1       8.568  10.879  26.826  0.00  0.00    +0.045 A 
ATOM     21  C13 UNL     1       8.304  10.220  25.625  0.00  0.00    +0.028 A 
ATOM     22  C14 UNL     1       9.346   9.944  24.727  0.00  0.00    +0.048 A 
ATOM     23  C19 UNL     1      10.646  10.345  25.069  0.00  0.00    +0.136 A 
ATOM     24  N4  UNL     1      10.880  10.987  26.244  0.00  0.00    -0.238 NA
BRANCH  22  25
ATOM     25  N3  UNL     1       9.081   9.260  23.487  0.00  0.00    -0.324 N 
ATOM     26  C15 UNL     1       8.553   7.893  23.502  0.00  0.00    +0.133 C 
ATOM     27  C16 UNL     1       8.984   7.159  22.228  0.00  0.00    +0.178 C 
ATOM     28  O3  UNL     1       8.639   7.908  21.077  0.00  0.00    -0.377 OA
ATOM     29  C17 UNL     1       9.371   9.119  21.057  0.00  0.00    +0.178 C 
ATOM     30  C18 UNL     1       8.974  10.015  22.235  0.00  0.00    +0.133 C 
ENDBRANCH  22  25
ENDBRANCH   3  19
TORSDOF 5
ENDMDL
MODEL 5
REMARK VINA RESULT:    -6.254     11.514     13.210
REMARK INTER + INTRA:          -8.780
REMARK INTER:                  -8.049
REMARK INTRA:                  -0.732
REMARK UNBOUND:                -0.698
REMARK  Name = /home/qwerty/github/datacon2025hack/step_04_hit_selection/docking/ligands/lig_9.pdb
REMARK  6 active torsions:
REMARK  status: ('A' for Active; 'I' for Inactive)
REMARK    1  A    between atoms: C1_1  and  O1_2
REMARK    2  A    between atoms: O1_2  and  C2_3
REMARK    3  A    between atoms: C5_6  and  C6_7
REMARK    4  A    between atoms: C9_11  and  C10_12
REMARK    5  A    between atoms: N2_14  and  C11_15
REMARK    6  A    between atoms: C14_18  and  N3_19
REMARK                            x       y       z     vdW  Elec       q    Type
REMARK                         _______ _______ _______ _____ _____    ______ ____
ROOT
ATOM      1  C10 UNL     1      16.801   7.313  20.355  0.00  0.00    +0.251 C 
ATOM      2  O2  UNL     1      17.340   7.596  21.459  0.00  0.00    -0.270 OA
ATOM      3  N2  UNL     1      16.801   8.282  19.292  0.00  0.00    -0.266 N 
ATOM      4  H8  UNL     1      16.003   8.274  18.617  0.00  0.00    +0.157 HD
ENDROOT
BRANCH   1   9
ATOM      5  C6  UNL     1      14.121   4.611  20.253  0.00  0.00    +0.001 A 
ATOM      6  C7  UNL     1      14.903   3.522  19.835  0.00  0.00    +0.119 A 
ATOM      7  N1  UNL     1      16.232   3.681  19.602  0.00  0.00    -0.262 NA
ATOM      8  C8  UNL     1      16.852   4.879  19.761  0.00  0.00    +0.123 A 
ATOM      9  C9  UNL     1      16.127   6.003  20.187  0.00  0.00    +0.056 A 
ATOM     10  C20 UNL     1      14.749   5.857  20.423  0.00  0.00    +0.024 A 
BRANCH   5  14
ATOM     11  C2  UNL     1       9.900   4.152  20.984  0.00  0.00    +0.120 A 
ATOM     12  C3  UNL     1      10.798   3.125  21.331  0.00  0.00    +0.046 A 
ATOM     13  C4  UNL     1      12.168   3.275  21.093  0.00  0.00    +0.012 A 
ATOM     14  C5  UNL     1      12.666   4.451  20.505  0.00  0.00    -0.016 A 
ATOM     15  C21 UNL     1      11.764   5.474  20.161  0.00  0.00    +0.012 A 
ATOM     16  C22 UNL     1      10.395   5.322  20.400  0.00  0.00    +0.046 A 
BRANCH  11  18
ATOM     17  C1  UNL     1       7.603   5.133  21.078  0.00  0.00    +0.277 C 
ATOM     18  O1  UNL     1       8.518   4.049  21.203  0.00  0.00    -0.495 OA
ENDBRANCH  11  18
ENDBRANCH   5  14
ENDBRANCH   1   9
BRANCH   3  19
ATOM     19  C11 UNL     1      17.737   9.365  19.193  0.00  0.00    +0.125 A 
ATOM     20  C12 UNL     1      17.364  10.691  19.474  0.00  0.00    +0.045 A 
ATOM     21  C13 UNL     1      18.318  11.706  19.389  0.00  0.00    +0.028 A 
ATOM     22  C14 UNL     1      19.642  11.404  19.042  0.00  0.00    +0.048 A 
ATOM     23  C19 UNL     1      19.977  10.066  18.784  0.00  0.00    +0.136 A 
ATOM     24  N4  UNL     1      19.032   9.093  18.873  0.00  0.00    -0.238 NA
BRANCH  22  25
ATOM     25  N3  UNL     1      20.631  12.448  18.949  0.00  0.00    -0.324 N 
ATOM     26  C15 UNL     1      21.988  12.133  18.490  0.00  0.00    +0.133 C 
ATOM     27  C16 UNL     1      22.981  13.132  19.094  0.00  0.00    +0.178 C 
ATOM     28  O3  UNL     1      22.570  14.463  18.841  0.00  0.00    -0.377 OA
ATOM     29  C17 UNL     1      21.350  14.723  19.510  0.00  0.00    +0.178 C 
ATOM     30  C18 UNL     1      20.222  13.855  18.942  0.00  0.00    +0.133 C 
ENDBRANCH  22  25
ENDBRANCH   3  19
TORSDOF 5
ENDMDL
MODEL 6
REMARK VINA RESULT:    -6.229     11.423     14.607
REMARK INTER + INTRA:          -8.747
REMARK INTER:                  -8.012
REMARK INTRA:                  -0.735
REMARK UNBOUND:                -0.698
REMARK  Name = /home/qwerty/github/datacon2025hack/step_04_hit_selection/docking/ligands/lig_9.pdb
REMARK  6 active torsions:
REMARK  status: ('A' for Active; 'I' for Inactive)
REMARK    1  A    between atoms: C1_1  and  O1_2
REMARK    2  A    between atoms: O1_2  and  C2_3
REMARK    3  A    between atoms: C5_6  and  C6_7
REMARK    4  A    between atoms: C9_11  and  C10_12
REMARK    5  A    between atoms: N2_14  and  C11_15
REMARK    6  A    between atoms: C14_18  and  N3_19
REMARK                            x       y       z     vdW  Elec       q    Type
REMARK                         _______ _______ _______ _____ _____    ______ ____
ROOT
ATOM      1  C10 UNL     1       8.955   1.775  25.858  0.00  0.00    +0.251 C 
ATOM      2  O2  UNL     1       9.439   2.930  25.998  0.00  0.00    -0.270 OA
ATOM      3  N2  UNL     1       9.361   0.962  24.743  0.00  0.00    -0.266 N 
ATOM      4  H8  UNL     1       8.673   0.279  24.355  0.00  0.00    +0.157 HD
ENDROOT
BRANCH   1   9
ATOM      5  C6  UNL     1       7.314   0.106  28.860  0.00  0.00    +0.001 A 
ATOM      6  C7  UNL     1       5.971   0.427  28.601  0.00  0.00    +0.119 A 
ATOM      7  N1  UNL     1       5.640   1.151  27.501  0.00  0.00    -0.262 NA
ATOM      8  C8  UNL     1       6.574   1.589  26.618  0.00  0.00    +0.123 A 
ATOM      9  C9  UNL     1       7.931   1.292  26.817  0.00  0.00    +0.056 A 
ATOM     10  C20 UNL     1       8.293   0.552  27.955  0.00  0.00    +0.024 A 
BRANCH   5  14
ATOM     11  C2  UNL     1       8.408  -2.176  32.347  0.00  0.00    +0.120 A 
ATOM     12  C3  UNL     1       7.134  -1.587  32.254  0.00  0.00    +0.046 A 
ATOM     13  C4  UNL     1       6.780  -0.846  31.122  0.00  0.00    +0.012 A 
ATOM     14  C5  UNL     1       7.690  -0.679  30.063  0.00  0.00    -0.016 A 
ATOM     15  C21 UNL     1       8.962  -1.271  30.162  0.00  0.00    +0.012 A 
ATOM     16  C22 UNL     1       9.314  -2.011  31.295  0.00  0.00    +0.046 A 
BRANCH  11  18
ATOM     17  C1  UNL     1       9.739  -2.478  34.441  0.00  0.00    +0.277 C 
ATOM     18  O1  UNL     1       8.810  -2.928  33.460  0.00  0.00    -0.495 OA
ENDBRANCH  11  18
ENDBRANCH   5  14
ENDBRANCH   1   9
BRANCH   3  19
ATOM     19  C11 UNL     1      10.591   1.140  24.025  0.00  0.00    +0.125 A 
ATOM     20  C12 UNL     1      11.831   0.795  24.589  0.00  0.00    +0.045 A 
ATOM     21  C13 UNL     1      12.996   0.961  23.840  0.00  0.00    +0.028 A 
ATOM     22  C14 UNL     1      12.930   1.455  22.529  0.00  0.00    +0.048 A 
ATOM     23  C19 UNL     1      11.671   1.773  21.999  0.00  0.00    +0.136 A 
ATOM     24  N4  UNL     1      10.548   1.602  22.746  0.00  0.00    -0.238 NA
BRANCH  22  25
ATOM     25  N3  UNL     1      14.130   1.633  21.752  0.00  0.00    -0.324 N 
ATOM     26  C15 UNL     1      14.144   1.270  20.331  0.00  0.00    +0.133 C 
ATOM     27  C16 UNL     1      15.567   0.891  19.910  0.00  0.00    +0.178 C 
ATOM     28  O3  UNL     1      16.483   1.910  20.264  0.00  0.00    -0.377 OA
ATOM     29  C17 UNL     1      16.547   2.029  21.673  0.00  0.00    +0.178 C 
ATOM     30  C18 UNL     1      15.205   2.501  22.241  0.00  0.00    +0.133 C 
ENDBRANCH  22  25
ENDBRANCH   3  19
TORSDOF 5
ENDMDL
MODEL 7
REMARK VINA RESULT:    -6.161     10.992     14.902
REMARK INTER + INTRA:          -8.660
REMARK INTER:                  -7.897
REMARK INTRA:                  -0.763
REMARK UNBOUND:                -0.698
REMARK  Name = /home/qwerty/github/datacon2025hack/step_04_hit_selection/docking/ligands/lig_9.pdb
REMARK  6 active torsions:
REMARK  status: ('A' for Active; 'I' for Inactive)
REMARK    1  A    between atoms: C1_1  and  O1_2
REMARK    2  A    between atoms: O1_2  and  C2_3
REMARK    3  A    between atoms: C5_6  and  C6_7
REMARK    4  A    between atoms: C9_11  and  C10_12
REMARK    5  A    between atoms: N2_14  and  C11_15
REMARK    6  A    between atoms: C14_18  and  N3_19
REMARK                            x       y       z     vdW  Elec       q    Type
REMARK                         _______ _______ _______ _____ _____    ______ ____
ROOT
ATOM      1  C10 UNL     1      14.830   0.432  23.082  0.00  0.00    +0.251 C 
ATOM      2  O2  UNL     1      13.746  -0.211  23.105  0.00  0.00    -0.270 OA
ATOM      3  N2  UNL     1      14.902   1.684  22.379  0.00  0.00    -0.266 N 
ATOM      4  H8  UNL     1      15.816   1.959  21.954  0.00  0.00    +0.157 HD
ENDROOT
BRANCH   1   9
ATOM      5  C6  UNL     1      18.263   0.113  24.696  0.00  0.00    +0.001 A 
ATOM      6  C7  UNL     1      18.254  -1.260  24.993  0.00  0.00    +0.119 A 
ATOM      7  N1  UNL     1      17.176  -2.023  24.678  0.00  0.00    -0.262 NA
ATOM      8  C8  UNL     1      16.079  -1.503  24.071  0.00  0.00    +0.123 A 
ATOM      9  C9  UNL     1      16.030  -0.140  23.739  0.00  0.00    +0.056 A 
ATOM     10  C20 UNL     1      17.134   0.666  24.067  0.00  0.00    +0.024 A 
BRANCH   5  14
ATOM     11  C2  UNL     1      21.659   2.569  25.694  0.00  0.00    +0.120 A 
ATOM     12  C3  UNL     1      21.213   1.576  26.585  0.00  0.00    +0.046 A 
ATOM     13  C4  UNL     1      20.110   0.780  26.260  0.00  0.00    +0.012 A 
ATOM     14  C5  UNL     1      19.433   0.960  25.041  0.00  0.00    -0.016 A 
ATOM     15  C21 UNL     1      19.884   1.953  24.154  0.00  0.00    +0.012 A 
ATOM     16  C22 UNL     1      20.986   2.749  24.481  0.00  0.00    +0.046 A 
BRANCH  11  18
ATOM     17  C1  UNL     1      22.909   4.724  25.491  0.00  0.00    +0.277 C 
ATOM     18  O1  UNL     1      22.759   3.393  25.973  0.00  0.00    -0.495 OA
ENDBRANCH  11  18
ENDBRANCH   5  14
ENDBRANCH   1   9
BRANCH   3  19
ATOM     19  C11 UNL     1      13.763   2.504  22.079  0.00  0.00    +0.125 A 
ATOM     20  C12 UNL     1      13.178   3.335  23.049  0.00  0.00    +0.045 A 
ATOM     21  C13 UNL     1      12.088   4.135  22.703  0.00  0.00    +0.028 A 
ATOM     22  C14 UNL     1      11.591   4.122  21.391  0.00  0.00    +0.048 A 
ATOM     23  C19 UNL     1      12.213   3.289  20.449  0.00  0.00    +0.136 A 
ATOM     24  N4  UNL     1      13.274   2.519  20.809  0.00  0.00    -0.238 NA
BRANCH  22  25
ATOM     25  N3  UNL     1      10.463   4.942  21.028  0.00  0.00    -0.324 N 
ATOM     26  C15 UNL     1      10.673   6.189  20.285  0.00  0.00    +0.133 C 
ATOM     27  C16 UNL     1       9.542   7.173  20.600  0.00  0.00    +0.178 C 
ATOM     28  O3  UNL     1       8.279   6.569  20.387  0.00  0.00    -0.377 OA
ATOM     29  C17 UNL     1       8.095   5.508  21.305  0.00  0.00    +0.178 C 
ATOM     30  C18 UNL     1       9.107   4.386  21.050  0.00  0.00    +0.133 C 
ENDBRANCH  22  25
ENDBRANCH   3  19
TORSDOF 5
ENDMDL
MODEL 8
REMARK VINA RESULT:    -6.157     13.417     14.223
REMARK INTER + INTRA:          -8.654
REMARK INTER:                  -7.912
REMARK INTRA:                  -0.743
REMARK UNBOUND:                -0.698
REMARK  Name = /home/qwerty/github/datacon2025hack/step_04_hit_selection/docking/ligands/lig_9.pdb
REMARK  6 active torsions:
REMARK  status: ('A' for Active; 'I' for Inactive)
REMARK    1  A    between atoms: C1_1  and  O1_2
REMARK    2  A    between atoms: O1_2  and  C2_3
REMARK    3  A    between atoms: C5_6  and  C6_7
REMARK    4  A    between atoms: C9_11  and  C10_12
REMARK    5  A    between atoms: N2_14  and  C11_15
REMARK    6  A    between atoms: C14_18  and  N3_19
REMARK                            x       y       z     vdW  Elec       q    Type
REMARK                         _______ _______ _______ _____ _____    ______ ____
ROOT
ATOM      1  C10 UNL     1      21.634   2.474  27.579  0.00  0.00    +0.251 C 
ATOM      2  O2  UNL     1      22.870   2.710  27.507  0.00  0.00    -0.270 OA
ATOM      3  N2  UNL     1      20.960   2.580  28.846  0.00  0.00    -0.266 N 
ATOM      4  H8  UNL     1      20.136   1.962  29.019  0.00  0.00    +0.157 HD
ENDROOT
BRANCH   1   9
ATOM      5  C6  UNL     1      19.089   0.801  25.295  0.00  0.00    +0.001 A 
ATOM      6  C7  UNL     1      19.547   1.269  24.053  0.00  0.00    +0.119 A 
ATOM      7  N1  UNL     1      20.629   2.088  23.985  0.00  0.00    -0.262 NA
ATOM      8  C8  UNL     1      21.304   2.482  25.095  0.00  0.00    +0.123 A 
ATOM      9  C9  UNL     1      20.902   2.040  26.364  0.00  0.00    +0.056 A 
ATOM     10  C20 UNL     1      19.779   1.200  26.453  0.00  0.00    +0.024 A 
BRANCH   5  14
ATOM     11  C2  UNL     1      15.651  -1.782  25.555  0.00  0.00    +0.120 A 
ATOM     12  C3  UNL     1      16.556  -1.908  24.486  0.00  0.00    +0.046 A 
ATOM     13  C4  UNL     1      17.672  -1.069  24.402  0.00  0.00    +0.012 A 
ATOM     14  C5  UNL     1      17.904  -0.089  25.383  0.00  0.00    -0.016 A 
ATOM     15  C21 UNL     1      16.996   0.033  26.450  0.00  0.00    +0.012 A 
ATOM     16  C22 UNL     1      15.881  -0.807  26.532  0.00  0.00    +0.046 A 
BRANCH  11  18
ATOM     17  C1  UNL     1      13.553  -2.477  26.723  0.00  0.00    +0.277 C 
ATOM     18  O1  UNL     1      14.518  -2.599  25.684  0.00  0.00    -0.495 OA
ENDBRANCH  11  18
ENDBRANCH   5  14
ENDBRANCH   1   9
BRANCH   3  19
ATOM     19  C11 UNL     1      21.444   3.359  29.950  0.00  0.00    +0.125 A 
ATOM     20  C12 UNL     1      21.362   4.762  29.954  0.00  0.00    +0.045 A 
ATOM     21  C13 UNL     1      21.821   5.474  31.062  0.00  0.00    +0.028 A 
ATOM     22  C14 UNL     1      22.345   4.795  32.171  0.00  0.00    +0.048 A 
ATOM     23  C19 UNL     1      22.394   3.393  32.133  0.00  0.00    +0.136 A 
ATOM     24  N4  UNL     1      21.941   2.719  31.043  0.00  0.00    -0.238 NA
BRANCH  22  25
ATOM     25  N3  UNL     1      22.824   5.524  33.318  0.00  0.00    -0.324 N 
ATOM     26  C15 UNL     1      22.209   5.311  34.632  0.00  0.00    +0.133 C 
ATOM     27  C16 UNL     1      22.355   6.578  35.481  0.00  0.00    +0.178 C 
ATOM     28  O3  UNL     1      23.706   6.997  35.527  0.00  0.00    -0.377 OA
ATOM     29  C17 UNL     1      24.133   7.382  34.234  0.00  0.00    +0.178 C 
ATOM     30  C18 UNL     1      24.133   6.183  33.281  0.00  0.00    +0.133 C 
ENDBRANCH  22  25
ENDBRANCH   3  19
TORSDOF 5
ENDMDL
MODEL 9
REMARK VINA RESULT:    -6.065      2.737     11.190
REMARK INTER + INTRA:          -8.536
REMARK INTER:                  -7.827
REMARK INTRA:                  -0.709
REMARK UNBOUND:                -0.698
REMARK  Name = /home/qwerty/github/datacon2025hack/step_04_hit_selection/docking/ligands/lig_9.pdb
REMARK  6 active torsions:
REMARK  status: ('A' for Active; 'I' for Inactive)
REMARK    1  A    between atoms: C1_1  and  O1_2
REMARK    2  A    between atoms: O1_2  and  C2_3
REMARK    3  A    between atoms: C5_6  and  C6_7
REMARK    4  A    between atoms: C9_11  and  C10_12
REMARK    5  A    between atoms: N2_14  and  C11_15
REMARK    6  A    between atoms: C14_18  and  N3_19
REMARK                            x       y       z     vdW  Elec       q    Type
REMARK                         _______ _______ _______ _____ _____    ______ ____
ROOT
ATOM      1  C10 UNL     1       9.507  11.395  27.394  0.00  0.00    +0.251 C 
ATOM      2  O2  UNL     1       8.301  11.601  27.088  0.00  0.00    -0.270 OA
ATOM      3  N2  UNL     1      10.153  10.183  26.967  0.00  0.00    -0.266 N 
ATOM      4  H8  UNL     1      10.909   9.788  27.570  0.00  0.00    +0.157 HD
ENDROOT
BRANCH   1   9
ATOM      5  C6  UNL     1      11.051  13.133  30.407  0.00  0.00    +0.001 A 
ATOM      6  C7  UNL     1      11.603  14.256  29.771  0.00  0.00    +0.119 A 
ATOM      7  N1  UNL     1      11.470  14.420  28.430  0.00  0.00    -0.262 NA
ATOM      8  C8  UNL     1      10.807  13.520  27.657  0.00  0.00    +0.123 A 
ATOM      9  C9  UNL     1      10.225  12.382  28.235  0.00  0.00    +0.056 A 
ATOM     10  C20 UNL     1      10.362  12.193  29.621  0.00  0.00    +0.024 A 
BRANCH   5  14
ATOM     11  C2  UNL     1      11.474  12.576  34.659  0.00  0.00    +0.120 A 
ATOM     12  C3  UNL     1      11.415  11.464  33.798  0.00  0.00    +0.046 A 
ATOM     13  C4  UNL     1      11.278  11.646  32.418  0.00  0.00    +0.012 A 
ATOM     14  C5  UNL     1      11.196  12.939  31.873  0.00  0.00    -0.016 A 
ATOM     15  C21 UNL     1      11.256  14.047  32.737  0.00  0.00    +0.012 A 
ATOM     16  C22 UNL     1      11.394  13.862  34.117  0.00  0.00    +0.046 A 
BRANCH  11  18
ATOM     17  C1  UNL     1      12.673  11.745  36.689  0.00  0.00    +0.277 C 
ATOM     18  O1  UNL     1      11.611  12.446  36.049  0.00  0.00    -0.495 OA
ENDBRANCH  11  18
ENDBRANCH   5  14
ENDBRANCH   1   9
BRANCH   3  19
ATOM     19  C11 UNL     1       9.718   9.390  25.852  0.00  0.00    +0.125 A 
ATOM     20  C12 UNL     1       9.970   9.782  24.526  0.00  0.00    +0.045 A 
ATOM     21  C13 UNL     1       9.551   8.964  23.476  0.00  0.00    +0.028 A 
ATOM     22  C14 UNL     1       8.898   7.752  23.742  0.00  0.00    +0.048 A 
ATOM     23  C19 UNL     1       8.680   7.390  25.080  0.00  0.00    +0.136 A 
ATOM     24  N4  UNL     1       9.097   8.202  26.087  0.00  0.00    -0.238 NA
BRANCH  22  25
ATOM     25  N3  UNL     1       8.460   6.904  22.663  0.00  0.00    -0.324 N 
ATOM     26  C15 UNL     1       7.731   7.480  21.528  0.00  0.00    +0.133 C 
ATOM     27  C16 UNL     1       6.815   6.418  20.911  0.00  0.00    +0.178 C 
ATOM     28  O3  UNL     1       7.544   5.244  20.605  0.00  0.00    -0.377 OA
ATOM     29  C17 UNL     1       8.024   4.653  21.798  0.00  0.00    +0.178 C 
ATOM     30  C18 UNL     1       9.038   5.569  22.490  0.00  0.00    +0.133 C 
ENDBRANCH  22  25
ENDBRANCH   3  19
TORSDOF 5
ENDMDL
