MODEL 1
REMARK VINA RESULT:    -6.185      0.000      0.000
REMARK INTER + INTRA:          -8.430
REMARK INTER:                  -7.993
REMARK INTRA:                  -0.437
REMARK UNBOUND:                -0.437
REMARK  Name = /home/qwerty/github/datacon2025hack/step_04_hit_selection/docking/ligands/lig_146.pdb
REMARK  8 active torsions:
REMARK  status: ('A' for Active; 'I' for Inactive)
REMARK    1  A    between atoms: C1_1  and  C2_2
REMARK    2  A    between atoms: C2_2  and  C3_3
REMARK    3  A    between atoms: C3_3  and  C4_4
REMARK    4  A    between atoms: C3_3  and  C5_5
REMARK    5  A    between atoms: N1_7  and  C6_8
REMARK    6  A    between atoms: C8_11  and  C9_13
REMARK    7  A    between atoms: C13_18  and  O3_19
REMARK    8  A    between atoms: C17_24  and  O5_25
REMARK                            x       y       z     vdW  Elec       q    Type
REMARK                         _______ _______ _______ _____ _____    ______ ____
ROOT
ATOM      1  C6  UNL     1      21.833   3.882  32.608  0.00  0.00    +0.120 C 
ATOM      2  C7  UNL     1      22.183   2.548  31.943  0.00  0.00    +0.133 C 
ATOM      3  N2  UNL     1      21.929   2.738  30.524  0.00  0.00    -0.293 N 
ATOM      4  C8  UNL     1      22.499   1.889  29.511  0.00  0.00    +0.247 C 
ATOM      5  O2  UNL     1      23.475   1.144  29.801  0.00  0.00    -0.270 OA
ATOM      6  C16 UNL     1      21.280   4.010  30.243  0.00  0.00    +0.141 C 
ATOM      7  C17 UNL     1      20.910   4.594  31.605  0.00  0.00    +0.153 C 
ENDROOT
BRANCH   4   8
ATOM      8  C9  UNL     1      21.980   1.875  28.130  0.00  0.00    +0.041 A 
ATOM      9  C10 UNL     1      22.435   2.828  27.179  0.00  0.00    +0.015 A 
ATOM     10  C11 UNL     1      21.928   2.829  25.865  0.00  0.00    +0.032 A 
ATOM     11  C12 UNL     1      20.964   1.880  25.543  0.00  0.00    +0.113 A 
ATOM     12  N3  UNL     1      20.342   1.702  24.364  0.00  0.00    -0.175 NA
ATOM     13  C13 UNL     1      19.519   0.659  24.645  0.00  0.00    +0.394 A 
ATOM     14  O4  UNL     1      19.610   0.221  25.890  0.00  0.00    -0.409 OA
ATOM     15  C14 UNL     1      20.510   0.978  26.457  0.00  0.00    +0.160 A 
ATOM     16  C15 UNL     1      20.984   0.942  27.764  0.00  0.00    +0.061 A 
BRANCH  13  17
ATOM     17  O3  UNL     1      18.656   0.108  23.706  0.00  0.00    -0.465 OA
ATOM     18  H16 UNL     1      18.227   0.692  22.999  0.00  0.00    +0.297 HD
ENDBRANCH  13  17
ENDBRANCH   4   8
BRANCH   1  21
ATOM     19  C5  UNL     1      23.092   5.705  33.848  0.00  0.00    +0.216 C 
ATOM     20  O1  UNL     1      22.121   5.858  34.639  0.00  0.00    -0.276 OA
ATOM     21  N1  UNL     1      23.039   4.689  32.835  0.00  0.00    -0.308 N 
ATOM     22  H10 UNL     1      23.870   4.556  32.216  0.00  0.00    +0.149 HD
BRANCH  19  23
ATOM     23  C3  UNL     1      24.295   6.606  33.975  0.00  0.00    +0.072 C 
ATOM     24  C4  UNL     1      25.475   6.027  33.182  0.00  0.00    +0.017 C 
BRANCH  23  26
ATOM     25  C1  UNL     1      25.035   8.690  32.688  0.00  0.00    +0.004 C 
ATOM     26  C2  UNL     1      23.934   8.039  33.527  0.00  0.00    +0.009 C 
ENDBRANCH  23  26
ENDBRANCH  19  23
ENDBRANCH   1  21
BRANCH   7  27
ATOM     27  O5  UNL     1      19.569   4.298  31.893  0.00  0.00    -0.388 OA
ATOM     28  H21 UNL     1      19.046   4.537  31.084  0.00  0.00    +0.210 HD
ENDBRANCH   7  27
TORSDOF 6
ENDMDL
MODEL 2
REMARK VINA RESULT:    -6.177      7.115     10.966
REMARK INTER + INTRA:          -8.419
REMARK INTER:                  -7.826
REMARK INTRA:                  -0.593
REMARK UNBOUND:                -0.437
REMARK  Name = /home/qwerty/github/datacon2025hack/step_04_hit_selection/docking/ligands/lig_146.pdb
REMARK  8 active torsions:
REMARK  status: ('A' for Active; 'I' for Inactive)
REMARK    1  A    between atoms: C1_1  and  C2_2
REMARK    2  A    between atoms: C2_2  and  C3_3
REMARK    3  A    between atoms: C3_3  and  C4_4
REMARK    4  A    between atoms: C3_3  and  C5_5
REMARK    5  A    between atoms: N1_7  and  C6_8
REMARK    6  A    between atoms: C8_11  and  C9_13
REMARK    7  A    between atoms: C13_18  and  O3_19
REMARK    8  A    between atoms: C17_24  and  O5_25
REMARK                            x       y       z     vdW  Elec       q    Type
REMARK                         _______ _______ _______ _____ _____    ______ ____
ROOT
ATOM      1  C6  UNL     1      21.426   7.667  35.461  0.00  0.00    +0.120 C 
ATOM      2  C7  UNL     1      20.028   7.752  34.842  0.00  0.00    +0.133 C 
ATOM      3  N2  UNL     1      19.641   9.150  34.938  0.00  0.00    -0.293 N 
ATOM      4  C8  UNL     1      18.601   9.727  34.128  0.00  0.00    +0.247 C 
ATOM      5  O2  UNL     1      18.200   9.114  33.101  0.00  0.00    -0.270 OA
ATOM      6  C16 UNL     1      20.586   9.934  35.721  0.00  0.00    +0.141 C 
ATOM      7  C17 UNL     1      21.547   8.922  36.340  0.00  0.00    +0.153 C 
ENDROOT
BRANCH   4   8
ATOM      8  C9  UNL     1      17.994  11.031  34.460  0.00  0.00    +0.041 A 
ATOM      9  C10 UNL     1      18.365  12.202  33.746  0.00  0.00    +0.015 A 
ATOM     10  C11 UNL     1      17.802  13.451  34.072  0.00  0.00    +0.032 A 
ATOM     11  C12 UNL     1      16.887  13.494  35.119  0.00  0.00    +0.113 A 
ATOM     12  N3  UNL     1      16.236  14.566  35.602  0.00  0.00    -0.175 NA
ATOM     13  C13 UNL     1      15.505  14.012  36.604  0.00  0.00    +0.394 A 
ATOM     14  O4  UNL     1      15.682  12.709  36.742  0.00  0.00    -0.409 OA
ATOM     15  C14 UNL     1      16.543  12.377  35.819  0.00  0.00    +0.160 A 
ATOM     16  C15 UNL     1      17.075  11.125  35.530  0.00  0.00    +0.061 A 
BRANCH  13  17
ATOM     17  O3  UNL     1      14.651  14.754  37.411  0.00  0.00    -0.465 OA
ATOM     18  H16 UNL     1      15.013  15.262  38.209  0.00  0.00    +0.297 HD
ENDBRANCH  13  17
ENDBRANCH   4   8
BRANCH   1  21
ATOM     19  C5  UNL     1      23.724   7.021  34.597  0.00  0.00    +0.216 C 
ATOM     20  O1  UNL     1      23.928   6.317  35.623  0.00  0.00    -0.276 OA
ATOM     21  N1  UNL     1      22.462   7.685  34.421  0.00  0.00    -0.308 N 
ATOM     22  H10 UNL     1      22.304   8.231  33.545  0.00  0.00    +0.149 HD
BRANCH  19  23
ATOM     23  C3  UNL     1      24.820   7.162  33.570  0.00  0.00    +0.072 C 
ATOM     24  C4  UNL     1      25.253   5.779  33.064  0.00  0.00    +0.017 C 
BRANCH  23  26
ATOM     25  C1  UNL     1      25.174   9.377  32.339  0.00  0.00    +0.004 C 
ATOM     26  C2  UNL     1      24.356   8.087  32.424  0.00  0.00    +0.009 C 
ENDBRANCH  23  26
ENDBRANCH  19  23
ENDBRANCH   1  21
BRANCH   7  27
ATOM     27  O5  UNL     1      21.139   8.631  37.651  0.00  0.00    -0.388 OA
ATOM     28  H21 UNL     1      21.075   9.500  38.127  0.00  0.00    +0.210 HD
ENDBRANCH   7  27
TORSDOF 6
ENDMDL
MODEL 3
REMARK VINA RESULT:    -6.135      3.948      6.651
REMARK INTER + INTRA:          -8.366
REMARK INTER:                  -7.811
REMARK INTRA:                  -0.555
REMARK UNBOUND:                -0.437
REMARK  Name = /home/qwerty/github/datacon2025hack/step_04_hit_selection/docking/ligands/lig_146.pdb
REMARK  8 active torsions:
REMARK  status: ('A' for Active; 'I' for Inactive)
REMARK    1  A    between atoms: C1_1  and  C2_2
REMARK    2  A    between atoms: C2_2  and  C3_3
REMARK    3  A    between atoms: C3_3  and  C4_4
REMARK    4  A    between atoms: C3_3  and  C5_5
REMARK    5  A    between atoms: N1_7  and  C6_8
REMARK    6  A    between atoms: C8_11  and  C9_13
REMARK    7  A    between atoms: C13_18  and  O3_19
REMARK    8  A    between atoms: C17_24  and  O5_25
REMARK                            x       y       z     vdW  Elec       q    Type
REMARK                         _______ _______ _______ _____ _____    ______ ____
ROOT
ATOM      1  C6  UNL     1      20.847   3.023  26.515  0.00  0.00    +0.120 C 
ATOM      2  C7  UNL     1      19.320   2.919  26.466  0.00  0.00    +0.133 C 
ATOM      3  N2  UNL     1      19.026   1.957  25.416  0.00  0.00    -0.293 N 
ATOM      4  C8  UNL     1      17.763   1.275  25.318  0.00  0.00    +0.247 C 
ATOM      5  O2  UNL     1      16.983   1.264  26.309  0.00  0.00    -0.270 OA
ATOM      6  C16 UNL     1      20.214   1.571  24.669  0.00  0.00    +0.141 C 
ATOM      7  C17 UNL     1      21.323   2.507  25.147  0.00  0.00    +0.153 C 
ENDROOT
BRANCH   4   8
ATOM      8  C9  UNL     1      17.356   0.572  24.086  0.00  0.00    +0.041 A 
ATOM      9  C10 UNL     1      17.563  -0.827  23.951  0.00  0.00    +0.015 A 
ATOM     10  C11 UNL     1      17.193  -1.498  22.770  0.00  0.00    +0.032 A 
ATOM     11  C12 UNL     1      16.635  -0.741  21.744  0.00  0.00    +0.113 A 
ATOM     12  N3  UNL     1      16.218  -1.165  20.539  0.00  0.00    -0.175 NA
ATOM     13  C13 UNL     1      15.787  -0.006  19.976  0.00  0.00    +0.394 A 
ATOM     14  O4  UNL     1      15.924   1.053  20.755  0.00  0.00    -0.409 OA
ATOM     15  C14 UNL     1      16.453   0.603  21.861  0.00  0.00    +0.160 A 
ATOM     16  C15 UNL     1      16.804   1.304  23.010  0.00  0.00    +0.061 A 
BRANCH  13  17
ATOM     17  O3  UNL     1      15.255   0.054  18.694  0.00  0.00    -0.465 OA
ATOM     18  H16 UNL     1      15.097   0.949  18.247  0.00  0.00    +0.297 HD
ENDBRANCH  13  17
ENDBRANCH   4   8
BRANCH   1  21
ATOM     19  C5  UNL     1      21.632   2.693  28.907  0.00  0.00    +0.216 C 
ATOM     20  O1  UNL     1      21.272   3.865  29.202  0.00  0.00    -0.276 OA
ATOM     21  N1  UNL     1      21.397   2.182  27.585  0.00  0.00    -0.308 N 
ATOM     22  H10 UNL     1      21.670   1.196  27.375  0.00  0.00    +0.149 HD
BRANCH  19  23
ATOM     23  C3  UNL     1      22.318   1.846  29.950  0.00  0.00    +0.072 C 
ATOM     24  C4  UNL     1      21.340   1.511  31.085  0.00  0.00    +0.017 C 
BRANCH  23  26
ATOM     25  C1  UNL     1      24.435   0.658  29.143  0.00  0.00    +0.004 C 
ATOM     26  C2  UNL     1      22.915   0.581  29.297  0.00  0.00    +0.009 C 
ENDBRANCH  23  26
ENDBRANCH  19  23
ENDBRANCH   1  21
BRANCH   7  27
ATOM     27  O5  UNL     1      21.453   3.577  24.248  0.00  0.00    -0.388 OA
ATOM     28  H21 UNL     1      22.365   3.512  23.862  0.00  0.00    +0.210 HD
ENDBRANCH   7  27
TORSDOF 6
ENDMDL
MODEL 4
REMARK VINA RESULT:    -6.086      2.715      9.390
REMARK INTER + INTRA:          -8.303
REMARK INTER:                  -7.836
REMARK INTRA:                  -0.467
REMARK UNBOUND:                -0.437
REMARK  Name = /home/qwerty/github/datacon2025hack/step_04_hit_selection/docking/ligands/lig_146.pdb
REMARK  8 active torsions:
REMARK  status: ('A' for Active; 'I' for Inactive)
REMARK    1  A    between atoms: C1_1  and  C2_2
REMARK    2  A    between atoms: C2_2  and  C3_3
REMARK    3  A    between atoms: C3_3  and  C4_4
REMARK    4  A    between atoms: C3_3  and  C5_5
REMARK    5  A    between atoms: N1_7  and  C6_8
REMARK    6  A    between atoms: C8_11  and  C9_13
REMARK    7  A    between atoms: C13_18  and  O3_19
REMARK    8  A    between atoms: C17_24  and  O5_25
REMARK                            x       y       z     vdW  Elec       q    Type
REMARK                         _______ _______ _______ _____ _____    ______ ____
ROOT
ATOM      1  C6  UNL     1      19.136   1.019  25.482  0.00  0.00    +0.120 C 
ATOM      2  C7  UNL     1      20.531   0.928  26.108  0.00  0.00    +0.133 C 
ATOM      3  N2  UNL     1      20.329   1.065  27.541  0.00  0.00    -0.293 N 
ATOM      4  C8  UNL     1      21.304   0.638  28.508  0.00  0.00    +0.247 C 
ATOM      5  O2  UNL     1      22.231  -0.142  28.155  0.00  0.00    -0.270 OA
ATOM      6  C16 UNL     1      18.956   1.415  27.876  0.00  0.00    +0.141 C 
ATOM      7  C17 UNL     1      18.272   1.720  26.544  0.00  0.00    +0.153 C 
ENDROOT
BRANCH   4   8
ATOM      8  C9  UNL     1      21.245   1.079  29.915  0.00  0.00    +0.041 A 
ATOM      9  C10 UNL     1      20.471   0.359  30.865  0.00  0.00    +0.015 A 
ATOM     10  C11 UNL     1      20.397   0.787  32.204  0.00  0.00    +0.032 A 
ATOM     11  C12 UNL     1      21.092   1.941  32.554  0.00  0.00    +0.113 A 
ATOM     12  N3  UNL     1      21.158   2.531  33.760  0.00  0.00    -0.175 NA
ATOM     13  C13 UNL     1      21.955   3.599  33.497  0.00  0.00    +0.394 A 
ATOM     14  O4  UNL     1      22.352   3.677  32.238  0.00  0.00    -0.409 OA
ATOM     15  C14 UNL     1      21.818   2.646  31.643  0.00  0.00    +0.160 A 
ATOM     16  C15 UNL     1      21.918   2.257  30.311  0.00  0.00    +0.061 A 
BRANCH  13  17
ATOM     17  O3  UNL     1      22.314   4.526  34.468  0.00  0.00    -0.465 OA
ATOM     18  H16 UNL     1      22.608   4.218  35.387  0.00  0.00    +0.297 HD
ENDBRANCH  13  17
ENDBRANCH   4   8
BRANCH   1  21
ATOM     19  C5  UNL     1      17.614  -0.539  24.179  0.00  0.00    +0.216 C 
ATOM     20  O1  UNL     1      17.265   0.409  23.424  0.00  0.00    -0.276 OA
ATOM     21  N1  UNL     1      18.597  -0.317  25.203  0.00  0.00    -0.308 N 
ATOM     22  H10 UNL     1      18.897  -1.126  25.791  0.00  0.00    +0.149 HD
BRANCH  19  23
ATOM     23  C3  UNL     1      16.981  -1.896  23.999  0.00  0.00    +0.072 C 
ATOM     24  C4  UNL     1      17.770  -2.956  24.780  0.00  0.00    +0.017 C 
BRANCH  23  26
ATOM     25  C1  UNL     1      15.061  -3.085  25.201  0.00  0.00    +0.004 C 
ATOM     26  C2  UNL     1      15.495  -1.847  24.413  0.00  0.00    +0.009 C 
ENDBRANCH  23  26
ENDBRANCH  19  23
ENDBRANCH   1  21
BRANCH   7  27
ATOM     27  O5  UNL     1      18.271   3.106  26.325  0.00  0.00    -0.388 OA
ATOM     28  H21 UNL     1      18.622   3.247  25.407  0.00  0.00    +0.210 HD
ENDBRANCH   7  27
TORSDOF 6
ENDMDL
MODEL 5
REMARK VINA RESULT:    -6.040     10.323     13.268
REMARK INTER + INTRA:          -8.243
REMARK INTER:                  -7.711
REMARK INTRA:                  -0.532
REMARK UNBOUND:                -0.437
REMARK  Name = /home/qwerty/github/datacon2025hack/step_04_hit_selection/docking/ligands/lig_146.pdb
REMARK  8 active torsions:
REMARK  status: ('A' for Active; 'I' for Inactive)
REMARK    1  A    between atoms: C1_1  and  C2_2
REMARK    2  A    between atoms: C2_2  and  C3_3
REMARK    3  A    between atoms: C3_3  and  C4_4
REMARK    4  A    between atoms: C3_3  and  C5_5
REMARK    5  A    between atoms: N1_7  and  C6_8
REMARK    6  A    between atoms: C8_11  and  C9_13
REMARK    7  A    between atoms: C13_18  and  O3_19
REMARK    8  A    between atoms: C17_24  and  O5_25
REMARK                            x       y       z     vdW  Elec       q    Type
REMARK                         _______ _______ _______ _____ _____    ______ ____
ROOT
ATOM      1  C6  UNL     1      15.737   0.780  21.505  0.00  0.00    +0.120 C 
ATOM      2  C7  UNL     1      15.431   2.089  22.239  0.00  0.00    +0.133 C 
ATOM      3  N2  UNL     1      14.096   2.475  21.814  0.00  0.00    -0.293 N 
ATOM      4  C8  UNL     1      13.281   3.401  22.555  0.00  0.00    +0.247 C 
ATOM      5  O2  UNL     1      13.579   3.674  23.750  0.00  0.00    -0.270 OA
ATOM      6  C16 UNL     1      13.590   1.631  20.741  0.00  0.00    +0.141 C 
ATOM      7  C17 UNL     1      14.770   0.762  20.310  0.00  0.00    +0.153 C 
ENDROOT
BRANCH   4   8
ATOM      8  C9  UNL     1      12.091   4.036  21.957  0.00  0.00    +0.041 A 
ATOM      9  C10 UNL     1      12.233   5.092  21.016  0.00  0.00    +0.015 A 
ATOM     10  C11 UNL     1      11.099   5.713  20.458  0.00  0.00    +0.032 A 
ATOM     11  C12 UNL     1       9.847   5.266  20.869  0.00  0.00    +0.113 A 
ATOM     12  N3  UNL     1       8.642   5.712  20.477  0.00  0.00    -0.175 NA
ATOM     13  C13 UNL     1       7.810   4.924  21.206  0.00  0.00    +0.394 A 
ATOM     14  O4  UNL     1       8.434   4.061  21.989  0.00  0.00    -0.409 OA
ATOM     15  C14 UNL     1       9.707   4.268  21.785  0.00  0.00    +0.160 A 
ATOM     16  C15 UNL     1      10.800   3.628  22.361  0.00  0.00    +0.061 A 
BRANCH  13  17
ATOM     17  O3  UNL     1       6.426   5.023  21.133  0.00  0.00    -0.465 OA
ATOM     18  H16 UNL     1       5.983   5.920  20.972  0.00  0.00    +0.297 HD
ENDBRANCH  13  17
ENDBRANCH   4   8
BRANCH   1  21
ATOM     19  C5  UNL     1      16.526  -0.992  23.143  0.00  0.00    +0.216 C 
ATOM     20  O1  UNL     1      17.676  -0.475  23.170  0.00  0.00    -0.276 OA
ATOM     21  N1  UNL     1      15.482  -0.379  22.369  0.00  0.00    -0.308 N 
ATOM     22  H10 UNL     1      14.528  -0.804  22.392  0.00  0.00    +0.149 HD
BRANCH  19  23
ATOM     23  C3  UNL     1      16.268  -2.258  23.921  0.00  0.00    +0.072 C 
ATOM     24  C4  UNL     1      17.586  -3.002  24.173  0.00  0.00    +0.017 C 
BRANCH  23  26
ATOM     25  C1  UNL     1      14.316  -2.848  25.466  0.00  0.00    +0.004 C 
ATOM     26  C2  UNL     1      15.517  -1.932  25.230  0.00  0.00    +0.009 C 
ENDBRANCH  23  26
ENDBRANCH  19  23
ENDBRANCH   1  21
BRANCH   7  27
ATOM     27  O5  UNL     1      15.386   1.334  19.185  0.00  0.00    -0.388 OA
ATOM     28  H21 UNL     1      16.037   2.000  19.528  0.00  0.00    +0.210 HD
ENDBRANCH   7  27
TORSDOF 6
ENDMDL
MODEL 6
REMARK VINA RESULT:    -5.970      3.338      8.990
REMARK INTER + INTRA:          -8.152
REMARK INTER:                  -7.806
REMARK INTRA:                  -0.347
REMARK UNBOUND:                -0.437
REMARK  Name = /home/qwerty/github/datacon2025hack/step_04_hit_selection/docking/ligands/lig_146.pdb
REMARK  8 active torsions:
REMARK  status: ('A' for Active; 'I' for Inactive)
REMARK    1  A    between atoms: C1_1  and  C2_2
REMARK    2  A    between atoms: C2_2  and  C3_3
REMARK    3  A    between atoms: C3_3  and  C4_4
REMARK    4  A    between atoms: C3_3  and  C5_5
REMARK    5  A    between atoms: N1_7  and  C6_8
REMARK    6  A    between atoms: C8_11  and  C9_13
REMARK    7  A    between atoms: C13_18  and  O3_19
REMARK    8  A    between atoms: C17_24  and  O5_25
REMARK                            x       y       z     vdW  Elec       q    Type
REMARK                         _______ _______ _______ _____ _____    ______ ____
ROOT
ATOM      1  C6  UNL     1      19.513   0.953  31.240  0.00  0.00    +0.120 C 
ATOM      2  C7  UNL     1      18.863   2.339  31.240  0.00  0.00    +0.133 C 
ATOM      3  N2  UNL     1      19.300   2.978  32.470  0.00  0.00    -0.293 N 
ATOM      4  C8  UNL     1      19.255   4.403  32.666  0.00  0.00    +0.247 C 
ATOM      5  O2  UNL     1      19.119   5.164  31.669  0.00  0.00    -0.270 OA
ATOM      6  C16 UNL     1      20.024   2.064  33.343  0.00  0.00    +0.141 C 
ATOM      7  C17 UNL     1      19.867   0.682  32.711  0.00  0.00    +0.153 C 
ENDROOT
BRANCH   4   8
ATOM      8  C9  UNL     1      19.377   5.005  34.008  0.00  0.00    +0.041 A 
ATOM      9  C10 UNL     1      18.385   4.767  34.998  0.00  0.00    +0.015 A 
ATOM     10  C11 UNL     1      18.488   5.355  36.274  0.00  0.00    +0.032 A 
ATOM     11  C12 UNL     1      19.581   6.181  36.519  0.00  0.00    +0.113 A 
ATOM     12  N3  UNL     1      19.877   6.844  37.649  0.00  0.00    -0.175 NA
ATOM     13  C13 UNL     1      21.027   7.476  37.302  0.00  0.00    +0.394 A 
ATOM     14  O4  UNL     1      21.420   7.235  36.062  0.00  0.00    -0.409 OA
ATOM     15  C14 UNL     1      20.523   6.427  35.566  0.00  0.00    +0.160 A 
ATOM     16  C15 UNL     1      20.459   5.867  34.295  0.00  0.00    +0.061 A 
BRANCH  13  17
ATOM     17  O3  UNL     1      21.723   8.304  38.174  0.00  0.00    -0.465 OA
ATOM     18  H16 UNL     1      21.481   9.284  38.254  0.00  0.00    +0.297 HD
ENDBRANCH  13  17
ENDBRANCH   4   8
BRANCH   1  21
ATOM     19  C5  UNL     1      20.688   0.995  28.989  0.00  0.00    +0.216 C 
ATOM     20  O1  UNL     1      19.584   1.148  28.399  0.00  0.00    -0.276 OA
ATOM     21  N1  UNL     1      20.734   0.945  30.424  0.00  0.00    -0.308 N 
ATOM     22  H10 UNL     1      21.664   0.855  30.891  0.00  0.00    +0.149 HD
BRANCH  19  23
ATOM     23  C3  UNL     1      21.948   0.855  28.172  0.00  0.00    +0.072 C 
ATOM     24  C4  UNL     1      22.484   2.240  27.785  0.00  0.00    +0.017 C 
BRANCH  23  26
ATOM     25  C1  UNL     1      24.260   0.806  29.266  0.00  0.00    +0.004 C 
ATOM     26  C2  UNL     1      22.990   0.017  28.944  0.00  0.00    +0.009 C 
ENDBRANCH  23  26
ENDBRANCH  19  23
ENDBRANCH   1  21
BRANCH   7  27
ATOM     27  O5  UNL     1      18.815  -0.003  33.339  0.00  0.00    -0.388 OA
ATOM     28  H21 UNL     1      17.976   0.449  33.061  0.00  0.00    +0.210 HD
ENDBRANCH   7  27
TORSDOF 6
ENDMDL
MODEL 7
REMARK VINA RESULT:    -5.911      4.247      6.767
REMARK INTER + INTRA:          -8.076
REMARK INTER:                  -7.602
REMARK INTRA:                  -0.475
REMARK UNBOUND:                -0.437
REMARK  Name = /home/qwerty/github/datacon2025hack/step_04_hit_selection/docking/ligands/lig_146.pdb
REMARK  8 active torsions:
REMARK  status: ('A' for Active; 'I' for Inactive)
REMARK    1  A    between atoms: C1_1  and  C2_2
REMARK    2  A    between atoms: C2_2  and  C3_3
REMARK    3  A    between atoms: C3_3  and  C4_4
REMARK    4  A    between atoms: C3_3  and  C5_5
REMARK    5  A    between atoms: N1_7  and  C6_8
REMARK    6  A    between atoms: C8_11  and  C9_13
REMARK    7  A    between atoms: C13_18  and  O3_19
REMARK    8  A    between atoms: C17_24  and  O5_25
REMARK                            x       y       z     vdW  Elec       q    Type
REMARK                         _______ _______ _______ _____ _____    ______ ____
ROOT
ATOM      1  C6  UNL     1      21.597   3.518  26.561  0.00  0.00    +0.120 C 
ATOM      2  C7  UNL     1      20.131   3.951  26.472  0.00  0.00    +0.133 C 
ATOM      3  N2  UNL     1      19.636   3.407  25.218  0.00  0.00    -0.293 N 
ATOM      4  C8  UNL     1      18.234   3.234  24.945  0.00  0.00    +0.247 C 
ATOM      5  O2  UNL     1      17.406   3.266  25.896  0.00  0.00    -0.270 OA
ATOM      6  C16 UNL     1      20.696   2.819  24.412  0.00  0.00    +0.141 C 
ATOM      7  C17 UNL     1      22.001   3.191  25.114  0.00  0.00    +0.153 C 
ENDROOT
BRANCH   4   8
ATOM      8  C9  UNL     1      17.734   3.005  23.576  0.00  0.00    +0.041 A 
ATOM      9  C10 UNL     1      17.802   4.037  22.601  0.00  0.00    +0.015 A 
ATOM     10  C11 UNL     1      17.308   3.829  21.299  0.00  0.00    +0.032 A 
ATOM     11  C12 UNL     1      16.745   2.589  21.011  0.00  0.00    +0.113 A 
ATOM     12  N3  UNL     1      16.212   2.175  19.849  0.00  0.00    -0.175 NA
ATOM     13  C13 UNL     1      15.823   0.912  20.162  0.00  0.00    +0.394 A 
ATOM     14  O4  UNL     1      16.085   0.563  21.411  0.00  0.00    -0.409 OA
ATOM     15  C14 UNL     1      16.660   1.604  21.948  0.00  0.00    +0.160 A 
ATOM     16  C15 UNL     1      17.135   1.768  23.245  0.00  0.00    +0.061 A 
BRANCH  13  17
ATOM     17  O3  UNL     1      15.203   0.068  19.249  0.00  0.00    -0.465 OA
ATOM     18  H16 UNL     1      14.967  -0.882  19.508  0.00  0.00    +0.297 HD
ENDBRANCH  13  17
ENDBRANCH   4   8
BRANCH   1  21
ATOM     19  C5  UNL     1      21.846   2.410  28.831  0.00  0.00    +0.216 C 
ATOM     20  O1  UNL     1      21.713   3.525  29.406  0.00  0.00    -0.276 OA
ATOM     21  N1  UNL     1      21.743   2.324  27.401  0.00  0.00    -0.308 N 
ATOM     22  H10 UNL     1      21.819   1.384  26.951  0.00  0.00    +0.149 HD
BRANCH  19  23
ATOM     23  C3  UNL     1      22.124   1.181  29.660  0.00  0.00    +0.072 C 
ATOM     24  C4  UNL     1      20.815   0.438  29.960  0.00  0.00    +0.017 C 
BRANCH  23  26
ATOM     25  C1  UNL     1      22.694  -1.168  28.824  0.00  0.00    +0.004 C 
ATOM     26  C2  UNL     1      23.158   0.284  28.947  0.00  0.00    +0.009 C 
ENDBRANCH  23  26
ENDBRANCH  19  23
ENDBRANCH   1  21
BRANCH   7  27
ATOM     27  O5  UNL     1      22.555   4.326  24.501  0.00  0.00    -0.388 OA
ATOM     28  H21 UNL     1      22.966   4.017  23.652  0.00  0.00    +0.210 HD
ENDBRANCH   7  27
TORSDOF 6
ENDMDL
MODEL 8
REMARK VINA RESULT:    -5.896      9.225     12.883
REMARK INTER + INTRA:          -8.057
REMARK INTER:                  -7.744
REMARK INTRA:                  -0.313
REMARK UNBOUND:                -0.437
REMARK  Name = /home/qwerty/github/datacon2025hack/step_04_hit_selection/docking/ligands/lig_146.pdb
REMARK  8 active torsions:
REMARK  status: ('A' for Active; 'I' for Inactive)
REMARK    1  A    between atoms: C1_1  and  C2_2
REMARK    2  A    between atoms: C2_2  and  C3_3
REMARK    3  A    between atoms: C3_3  and  C4_4
REMARK    4  A    between atoms: C3_3  and  C5_5
REMARK    5  A    between atoms: N1_7  and  C6_8
REMARK    6  A    between atoms: C8_11  and  C9_13
REMARK    7  A    between atoms: C13_18  and  O3_19
REMARK    8  A    between atoms: C17_24  and  O5_25
REMARK                            x       y       z     vdW  Elec       q    Type
REMARK                         _______ _______ _______ _____ _____    ______ ____
ROOT
ATOM      1  C6  UNL     1      15.117  13.188  35.705  0.00  0.00    +0.120 C 
ATOM      2  C7  UNL     1      16.069  12.572  34.676  0.00  0.00    +0.133 C 
ATOM      3  N2  UNL     1      16.745  11.486  35.366  0.00  0.00    -0.293 N 
ATOM      4  C8  UNL     1      17.404  10.413  34.671  0.00  0.00    +0.247 C 
ATOM      5  O2  UNL     1      17.159  10.220  33.448  0.00  0.00    -0.270 OA
ATOM      6  C16 UNL     1      16.444  11.463  36.791  0.00  0.00    +0.141 C 
ATOM      7  C17 UNL     1      15.675  12.752  37.070  0.00  0.00    +0.153 C 
ENDROOT
BRANCH   4   8
ATOM      8  C9  UNL     1      18.357   9.516  35.354  0.00  0.00    +0.041 A 
ATOM      9  C10 UNL     1      17.894   8.544  36.281  0.00  0.00    +0.015 A 
ATOM     10  C11 UNL     1      18.801   7.699  36.949  0.00  0.00    +0.032 A 
ATOM     11  C12 UNL     1      20.156   7.862  36.678  0.00  0.00    +0.113 A 
ATOM     12  N3  UNL     1      21.190   7.179  37.198  0.00  0.00    -0.175 NA
ATOM     13  C13 UNL     1      22.246   7.771  36.582  0.00  0.00    +0.394 A 
ATOM     14  O4  UNL     1      21.908   8.742  35.751  0.00  0.00    -0.409 OA
ATOM     15  C14 UNL     1      20.605   8.806  35.805  0.00  0.00    +0.160 A 
ATOM     16  C15 UNL     1      19.744   9.660  35.124  0.00  0.00    +0.061 A 
BRANCH  13  17
ATOM     17  O3  UNL     1      23.561   7.388  36.812  0.00  0.00    -0.465 OA
ATOM     18  H16 UNL     1      24.201   7.260  36.037  0.00  0.00    +0.297 HD
ENDBRANCH  13  17
ENDBRANCH   4   8
BRANCH   1  21
ATOM     19  C5  UNL     1      12.738  13.420  34.849  0.00  0.00    +0.216 C 
ATOM     20  O1  UNL     1      13.032  14.509  34.285  0.00  0.00    -0.276 OA
ATOM     21  N1  UNL     1      13.754  12.671  35.536  0.00  0.00    -0.308 N 
ATOM     22  H10 UNL     1      13.495  11.753  35.963  0.00  0.00    +0.149 HD
BRANCH  19  23
ATOM     23  C3  UNL     1      11.315  12.924  34.801  0.00  0.00    +0.072 C 
ATOM     24  C4  UNL     1      11.290  11.391  34.738  0.00  0.00    +0.017 C 
BRANCH  23  26
ATOM     25  C1  UNL     1       9.566  14.605  35.616  0.00  0.00    +0.004 C 
ATOM     26  C2  UNL     1      10.521  13.475  36.006  0.00  0.00    +0.009 C 
ENDBRANCH  23  26
ENDBRANCH  19  23
ENDBRANCH   1  21
BRANCH   7  27
ATOM     27  O5  UNL     1      16.557  13.727  37.562  0.00  0.00    -0.388 OA
ATOM     28  H21 UNL     1      16.161  14.067  38.407  0.00  0.00    +0.210 HD
ENDBRANCH   7  27
TORSDOF 6
ENDMDL
MODEL 9
REMARK VINA RESULT:    -5.896     13.840     14.926
REMARK INTER + INTRA:          -8.057
REMARK INTER:                  -7.642
REMARK INTRA:                  -0.415
REMARK UNBOUND:                -0.437
REMARK  Name = /home/qwerty/github/datacon2025hack/step_04_hit_selection/docking/ligands/lig_146.pdb
REMARK  8 active torsions:
REMARK  status: ('A' for Active; 'I' for Inactive)
REMARK    1  A    between atoms: C1_1  and  C2_2
REMARK    2  A    between atoms: C2_2  and  C3_3
REMARK    3  A    between atoms: C3_3  and  C4_4
REMARK    4  A    between atoms: C3_3  and  C5_5
REMARK    5  A    between atoms: N1_7  and  C6_8
REMARK    6  A    between atoms: C8_11  and  C9_13
REMARK    7  A    between atoms: C13_18  and  O3_19
REMARK    8  A    between atoms: C17_24  and  O5_25
REMARK                            x       y       z     vdW  Elec       q    Type
REMARK                         _______ _______ _______ _____ _____    ______ ____
ROOT
ATOM      1  C6  UNL     1       8.733   9.480  28.385  0.00  0.00    +0.120 C 
ATOM      2  C7  UNL     1       9.691   8.540  27.648  0.00  0.00    +0.133 C 
ATOM      3  N2  UNL     1       9.224   8.503  26.272  0.00  0.00    -0.293 N 
ATOM      4  C8  UNL     1      10.057   8.076  25.179  0.00  0.00    +0.247 C 
ATOM      5  O2  UNL     1      11.307   8.008  25.338  0.00  0.00    -0.270 OA
ATOM      6  C16 UNL     1       7.953   9.190  26.100  0.00  0.00    +0.141 C 
ATOM      7  C17 UNL     1       7.469   9.522  27.510  0.00  0.00    +0.153 C 
ENDROOT
BRANCH   4   8
ATOM      8  C9  UNL     1       9.489   7.725  23.863  0.00  0.00    +0.041 A 
ATOM      9  C10 UNL     1       9.428   8.691  22.822  0.00  0.00    +0.015 A 
ATOM     10  C11 UNL     1       8.869   8.364  21.572  0.00  0.00    +0.032 A 
ATOM     11  C12 UNL     1       8.372   7.076  21.401  0.00  0.00    +0.113 A 
ATOM     12  N3  UNL     1       7.795   6.552  20.306  0.00  0.00    -0.175 NA
ATOM     13  C13 UNL     1       7.510   5.292  20.725  0.00  0.00    +0.394 A 
ATOM     14  O4  UNL     1       7.871   5.045  21.973  0.00  0.00    -0.409 OA
ATOM     15  C14 UNL     1       8.410   6.154  22.403  0.00  0.00    +0.160 A 
ATOM     16  C15 UNL     1       8.953   6.434  23.652  0.00  0.00    +0.061 A 
BRANCH  13  17
ATOM     17  O3  UNL     1       6.891   4.351  19.911  0.00  0.00    -0.465 OA
ATOM     18  H16 UNL     1       5.884   4.353  19.800  0.00  0.00    +0.297 HD
ENDBRANCH  13  17
ENDBRANCH   4   8
BRANCH   1  21
ATOM     19  C5  UNL     1       8.623  11.882  29.199  0.00  0.00    +0.216 C 
ATOM     20  O1  UNL     1       7.552  11.638  29.819  0.00  0.00    -0.276 OA
ATOM     21  N1  UNL     1       9.304  10.827  28.501  0.00  0.00    -0.308 N 
ATOM     22  H10 UNL     1      10.209  11.045  28.026  0.00  0.00    +0.149 HD
BRANCH  19  23
ATOM     23  C3  UNL     1       9.169  13.288  29.193  0.00  0.00    +0.072 C 
ATOM     24  C4  UNL     1      10.275  13.431  30.247  0.00  0.00    +0.017 C 
BRANCH  23  26
ATOM     25  C1  UNL     1      11.078  14.226  27.771  0.00  0.00    +0.004 C 
ATOM     26  C2  UNL     1       9.656  13.662  27.777  0.00  0.00    +0.009 C 
ENDBRANCH  23  26
ENDBRANCH  19  23
ENDBRANCH   1  21
BRANCH   7  27
ATOM     27  O5  UNL     1       6.558   8.543  27.935  0.00  0.00    -0.388 OA
ATOM     28  H21 UNL     1       6.026   8.950  28.668  0.00  0.00    +0.210 HD
ENDBRANCH   7  27
TORSDOF 6
ENDMDL
