REMARK  Name = /home/qwerty/github/datacon2025hack/step_04_hit_selection/docking/ligands/lig_266.pdb
REMARK  7 active torsions:
REMARK  status: ('A' for Active; 'I' for Inactive)
REMARK    1  A    between atoms: C1_1  and  C2_2
REMARK    2  A    between atoms: C6_6  and  C7_7
REMARK    3  A    between atoms: C8_8  and  C9_9
REMARK    4  A    between atoms: C13_15  and  C14_16
REMARK    5  A    between atoms: C14_16  and  N2_17
REMARK    6  A    between atoms: C15_18  and  C16_20
REMARK    7  A    between atoms: C18_22  and  C19_23
REMARK                            x       y       z     vdW  Elec       q    Type
REMARK                         _______ _______ _______ _____ _____    ______ ____
ROOT
ATOM      1  C9  UNL     1      -3.215  -1.117  -0.683  0.00  0.00    +0.247 C 
ATOM      2  O1  UNL     1      -4.234  -1.858  -0.735  0.00  0.00    -0.270 OA
ATOM      3  N1  UNL     1      -1.977  -1.567  -1.263  0.00  0.00    -0.293 N 
ATOM      4  C10 UNL     1      -1.945  -2.534  -2.346  0.00  0.00    +0.108 C 
ATOM      5  C11 UNL     1      -0.554  -2.426  -2.952  0.00  0.00    +0.021 C 
ATOM      6  C12 UNL     1       0.313  -1.750  -1.894  0.00  0.00    +0.025 C 
ATOM      7  C13 UNL     1      -0.657  -1.030  -0.946  0.00  0.00    +0.093 C 
ENDROOT
BRANCH   1  15
ATOM      8  C1  UNL     1      -2.964   1.368  -2.312  0.00  0.00    +0.044 C 
ATOM      9  C2  UNL     1      -3.175   1.397  -0.818  0.00  0.00    -0.038 A 
ATOM     10  C3  UNL     1      -3.217   2.646  -0.182  0.00  0.00    +0.004 A 
ATOM     11  C4  UNL     1      -3.468   2.738   1.185  0.00  0.00    +0.001 A 
ATOM     12  C5  UNL     1      -3.681   1.586   1.938  0.00  0.00    +0.004 A 
ATOM     13  C6  UNL     1      -3.610   0.318   1.340  0.00  0.00    -0.038 A 
ATOM     14  C7  UNL     1      -3.874  -0.901   2.186  0.00  0.00    +0.044 C 
ATOM     15  C8  UNL     1      -3.329   0.215  -0.047  0.00  0.00    +0.043 A 
ENDBRANCH   1  15
BRANCH   7  16
ATOM     16  C14 UNL     1      -0.296  -1.273   0.531  0.00  0.00    +0.126 C 
BRANCH  16  17
ATOM     17  N2  UNL     1       1.034  -0.746   0.831  0.00  0.00    -0.313 N 
ATOM     18  C15 UNL     1       1.300   0.660   0.915  0.00  0.00    +0.217 C 
ATOM     19  O2  UNL     1       0.352   1.492   0.895  0.00  0.00    -0.275 OA
ATOM     20  H19 UNL     1       1.814  -1.421   0.999  0.00  0.00    +0.149 HD
BRANCH  18  21
ATOM     21  C16 UNL     1       2.706   1.145   1.079  0.00  0.00    +0.084 C 
ATOM     22  C17 UNL     1       3.149   2.170   0.037  0.00  0.00    +0.023 C 
ATOM     23  C18 UNL     1       3.643   0.732  -0.053  0.00  0.00    +0.050 C 
BRANCH  23  24
ATOM     24  C19 UNL     1       5.085   0.513   0.324  0.00  0.00    +0.039 A 
ATOM     25  C20 UNL     1       5.817   1.124   1.327  0.00  0.00    +0.133 A 
ATOM     26  N3  UNL     1       7.072   0.633   1.322  0.00  0.00    -0.244 NA
ATOM     27  C21 UNL     1       7.076  -0.266   0.315  0.00  0.00    +0.196 A 
ATOM     28  N4  UNL     1       5.886  -0.360  -0.306  0.00  0.00    -0.348 N 
ATOM     29  H26 UNL     1       5.642  -0.981  -1.109  0.00  0.00    +0.166 HD
ENDBRANCH  23  24
ENDBRANCH  18  21
ENDBRANCH  16  17
ENDBRANCH   7  16
TORSDOF 5
