REMARK  Name = /home/qwerty/github/datacon2025hack/step_04_hit_selection/docking/ligands/lig_414.pdb
REMARK  6 active torsions:
REMARK  status: ('A' for Active; 'I' for Inactive)
REMARK    1  A    between atoms: C1_1  and  C2_2
REMARK    2  A    between atoms: C2_2  and  C3_3
REMARK    3  A    between atoms: C2_2  and  C4_4
REMARK    4  A    between atoms: C7_7  and  C8_8
REMARK    5  A    between atoms: C8_8  and  N1_9
REMARK    6  A    between atoms: N3_15  and  C12_16
REMARK                            x       y       z     vdW  Elec       q    Type
REMARK                         _______ _______ _______ _____ _____    ______ ____
ROOT
ATOM      1  N1  UNL     1      -2.083   0.829  -0.832  0.00  0.00    -0.295 NA
ATOM      2  C9  UNL     1      -1.940   1.502   0.476  0.00  0.00    +0.104 C 
ATOM      3  C10 UNL     1      -0.813   0.856   1.285  0.00  0.00    +0.124 C 
ATOM      4  N2  UNL     1       0.420   0.801   0.491  0.00  0.00    -0.283 N 
ATOM      5  C11 UNL     1       1.695   0.871   1.159  0.00  0.00    +0.303 C 
ATOM      6  O1  UNL     1       1.836   1.634   2.154  0.00  0.00    -0.253 OA
ATOM      7  N3  UNL     1       2.803   0.072   0.714  0.00  0.00    -0.295 N 
ATOM      8  C21 UNL     1       0.334   0.331  -0.897  0.00  0.00    +0.124 C 
ATOM      9  C22 UNL     1      -0.843   0.998  -1.614  0.00  0.00    +0.104 C 
ATOM     10  H16 UNL     1       2.619  -0.702   0.037  0.00  0.00    +0.151 HD
ENDROOT
BRANCH   7  11
ATOM     11  C12 UNL     1       4.151   0.244   1.266  0.00  0.00    +0.093 C 
ATOM     12  C13 UNL     1       4.773   1.570   0.828  0.00  0.00    +0.043 C 
ATOM     13  C14 UNL     1       6.267   1.296   0.710  0.00  0.00    +0.108 C 
ATOM     14  N4  UNL     1       6.395  -0.150   0.593  0.00  0.00    -0.311 N 
ATOM     15  C15 UNL     1       7.602  -0.855   0.234  0.00  0.00    +0.157 A 
ATOM     16  N5  UNL     1       7.521  -2.175  -0.101  0.00  0.00    -0.237 NA
ATOM     17  C16 UNL     1       8.610  -2.907  -0.453  0.00  0.00    +0.113 A 
ATOM     18  C17 UNL     1       9.871  -2.313  -0.479  0.00  0.00    +0.023 A 
ATOM     19  C18 UNL     1       9.996  -0.967  -0.138  0.00  0.00    +0.043 A 
ATOM     20  C19 UNL     1       8.868  -0.227   0.224  0.00  0.00    +0.163 A 
ATOM     21  F1  UNL     1       9.026   1.074   0.567  0.00  0.00    -0.202 F 
ATOM     22  C20 UNL     1       5.123  -0.831   0.775  0.00  0.00    +0.129 C 
ENDBRANCH   7  11
BRANCH   1  23
ATOM     23  C8  UNL     1      -3.234   1.379  -1.578  0.00  0.00    +0.119 C 
BRANCH  23  27
ATOM     24  C4  UNL     1      -6.918  -0.206   0.046  0.00  0.00    -0.045 A 
ATOM     25  C5  UNL     1      -6.597   1.154   0.205  0.00  0.00    +0.004 A 
ATOM     26  C6  UNL     1      -5.411   1.670  -0.324  0.00  0.00    +0.005 A 
ATOM     27  C7  UNL     1      -4.526   0.837  -1.025  0.00  0.00    -0.033 A 
ATOM     28  C23 UNL     1      -4.841  -0.520  -1.184  0.00  0.00    +0.005 A 
ATOM     29  C24 UNL     1      -6.026  -1.038  -0.656  0.00  0.00    +0.004 A 
BRANCH  24  31
ATOM     30  C1  UNL     1      -9.129  -1.287  -0.476  0.00  0.00    +0.012 C 
ATOM     31  C2  UNL     1      -8.207  -0.755   0.628  0.00  0.00    +0.013 C 
ATOM     32  C3  UNL     1      -7.924  -1.836   1.678  0.00  0.00    +0.012 C 
ENDBRANCH  24  31
ENDBRANCH  23  27
ENDBRANCH   1  23
TORSDOF 4
