REMARK  Name = /home/qwerty/github/datacon2025hack/step_04_hit_selection/docking/ligands/lig_521.pdb
REMARK  8 active torsions:
REMARK  status: ('A' for Active; 'I' for Inactive)
REMARK    1  A    between atoms: C1_1  and  O1_2
REMARK    2  A    between atoms: O1_2  and  C2_3
REMARK    3  A    between atoms: C5_6  and  N1_7
REMARK    4  A    between atoms: C6_8  and  C7_10
REMARK    5  A    between atoms: N3_17  and  C12_18
REMARK    6  A    between atoms: C15_21  and  N4_22
REMARK    7  A    between atoms: N4_22  and  C16_23
REMARK    8  A    between atoms: N4_22  and  C17_24
REMARK                            x       y       z     vdW  Elec       q    Type
REMARK                         _______ _______ _______ _____ _____    ______ ____
ROOT
ATOM      1  C7  UNL     1       2.720   1.240  -0.678  0.00  0.00    +0.164 A 
ATOM      2  N2  UNL     1       2.063   0.497  -1.597  0.00  0.00    -0.239 NA
ATOM      3  C8  UNL     1       0.836   1.008  -1.887  0.00  0.00    +0.054 A 
ATOM      4  C9  UNL     1       0.504   2.175  -1.188  0.00  0.00    +0.014 A 
ATOM      5  S1  UNL     1       1.805   2.567  -0.196  0.00  0.00    -0.067 S 
ATOM      6  C10 UNL     1      -0.746   3.008  -1.300  0.00  0.00    +0.059 C 
ATOM      7  C11 UNL     1      -1.953   2.270  -1.898  0.00  0.00    +0.090 C 
ATOM      8  N3  UNL     1      -2.010   0.872  -1.396  0.00  0.00    -0.299 NA
ATOM      9  C20 UNL     1      -1.405  -0.073  -2.374  0.00  0.00    +0.091 C 
ATOM     10  C21 UNL     1      -0.039   0.383  -2.932  0.00  0.00    +0.071 C 
ENDROOT
BRANCH   8  11
ATOM     11  C12 UNL     1      -3.393   0.502  -0.962  0.00  0.00    +0.057 C 
ATOM     12  C13 UNL     1      -3.679   1.150   0.418  0.00  0.00    +0.020 C 
ATOM     13  C14 UNL     1      -5.104   0.847   0.901  0.00  0.00    +0.020 C 
ATOM     14  C15 UNL     1      -5.325  -0.680   1.010  0.00  0.00    +0.056 C 
ATOM     15  C18 UNL     1      -5.046  -1.352  -0.345  0.00  0.00    +0.020 C 
ATOM     16  C19 UNL     1      -3.627  -1.031  -0.839  0.00  0.00    +0.020 C 
BRANCH  14  17
ATOM     17  N4  UNL     1      -6.670  -1.071   1.519  0.00  0.00    -0.305 NA
ATOM     18  C16 UNL     1      -7.798  -0.340   0.912  0.00  0.00    +0.104 C 
ATOM     19  C17 UNL     1      -6.744  -0.989   2.988  0.00  0.00    +0.104 C 
ENDBRANCH  14  17
ENDBRANCH   8  11
BRANCH   1  21
ATOM     20  N1  UNL     1       4.768  -0.235  -0.671  0.00  0.00    -0.280 N 
ATOM     21  C6  UNL     1       4.082   0.941  -0.208  0.00  0.00    +0.273 C 
ATOM     22  O2  UNL     1       4.655   1.753   0.568  0.00  0.00    -0.268 OA
ATOM     23  H6  UNL     1       4.353  -0.763  -1.473  0.00  0.00    +0.155 HD
BRANCH  20  27
ATOM     24  C2  UNL     1       8.604  -1.517   0.672  0.00  0.00    +0.120 A 
ATOM     25  C3  UNL     1       7.710  -0.910   1.574  0.00  0.00    +0.047 A 
ATOM     26  C4  UNL     1       6.449  -0.488   1.142  0.00  0.00    +0.027 A 
ATOM     27  C5  UNL     1       6.064  -0.652  -0.201  0.00  0.00    +0.034 A 
ATOM     28  C22 UNL     1       6.945  -1.287  -1.089  0.00  0.00    +0.027 A 
ATOM     29  C23 UNL     1       8.206  -1.707  -0.657  0.00  0.00    +0.047 A 
BRANCH  24  31
ATOM     30  C1  UNL     1      10.428  -1.792   2.361  0.00  0.00    +0.277 C 
ATOM     31  O1  UNL     1       9.885  -1.944   1.053  0.00  0.00    -0.495 OA
ENDBRANCH  24  31
ENDBRANCH  20  27
ENDBRANCH   1  21
TORSDOF 5
