REMARK  Name = /home/qwerty/github/datacon2025hack/step_04_hit_selection/docking/ligands/lig_198.pdb
REMARK  9 active torsions:
REMARK  status: ('A' for Active; 'I' for Inactive)
REMARK    1  A    between atoms: C1_1  and  C2_2
REMARK    2  A    between atoms: C2_2  and  N1_3
REMARK    3  A    between atoms: C2_2  and  C20_28
REMARK    4  A    between atoms: N1_3  and  C3_4
REMARK    5  A    between atoms: C3_4  and  C4_5
REMARK    6  A    between atoms: C3_4  and  C11_18
REMARK    7  A    between atoms: N2_7  and  C5_8
REMARK    8  A    between atoms: C9_13  and  N3_14
REMARK    9  A    between atoms: C23_31  and  N5_32
REMARK                            x       y       z     vdW  Elec       q    Type
REMARK                         _______ _______ _______ _____ _____    ______ ____
ROOT
ATOM      1  C3  UNL     1      -0.383   0.316   1.469  0.00  0.00    +0.172 C 
ENDROOT
BRANCH   1   2
ATOM      2  C11 UNL     1      -0.777   1.641   0.834  0.00  0.00    -0.020 A 
ATOM      3  C12 UNL     1      -0.676   2.832   1.576  0.00  0.00    +0.006 A 
ATOM      4  C13 UNL     1      -1.021   4.059   1.003  0.00  0.00    +0.010 A 
ATOM      5  C14 UNL     1      -1.474   4.112  -0.322  0.00  0.00    +0.000 A 
ATOM      6  C15 UNL     1      -1.835   5.327  -0.920  0.00  0.00    +0.011 A 
ATOM      7  C16 UNL     1      -2.288   5.341  -2.240  0.00  0.00    +0.020 A 
ATOM      8  C17 UNL     1      -2.375   4.141  -2.951  0.00  0.00    +0.111 A 
ATOM      9  N4  UNL     1      -2.019   2.969  -2.361  0.00  0.00    -0.255 NA
ATOM     10  C18 UNL     1      -1.574   2.923  -1.076  0.00  0.00    +0.071 A 
ATOM     11  C19 UNL     1      -1.221   1.699  -0.500  0.00  0.00    +0.034 A 
ENDBRANCH   1   2
BRANCH   1  12
ATOM     12  C4  UNL     1      -1.512  -0.685   1.361  0.00  0.00    +0.239 C 
ATOM     13  O1  UNL     1      -2.700  -0.299   1.537  0.00  0.00    -0.273 OA
ATOM     14  N2  UNL     1      -1.237  -2.082   1.168  0.00  0.00    -0.284 N 
ATOM     15  H7  UNL     1      -0.315  -2.451   1.496  0.00  0.00    +0.155 HD
BRANCH  14  16
ATOM     16  C5  UNL     1      -2.182  -3.015   0.618  0.00  0.00    +0.036 A 
ATOM     17  C6  UNL     1      -2.077  -4.371   0.948  0.00  0.00    +0.025 A 
ATOM     18  C7  UNL     1      -2.961  -5.303   0.403  0.00  0.00    +0.024 A 
ATOM     19  C8  UNL     1      -3.960  -4.898  -0.490  0.00  0.00    +0.071 A 
ATOM     20 CL1  UNL     1      -4.982  -6.150  -1.189  0.00  0.00    -0.081 Cl
ATOM     21  C9  UNL     1      -4.079  -3.533  -0.844  0.00  0.00    +0.146 A 
ATOM     22  C10 UNL     1      -3.173  -2.607  -0.294  0.00  0.00    +0.057 A 
BRANCH  21  23
ATOM     23  N3  UNL     1      -5.089  -3.068  -1.759  0.00  0.00    +0.058 N 
ATOM     24  O2  UNL     1      -6.198  -3.636  -1.831  0.00  0.00    -0.126 OA
ATOM     25  O3  UNL     1      -4.905  -1.892  -2.452  0.00  0.00    -0.126 OA
ENDBRANCH  21  23
ENDBRANCH  14  16
ENDBRANCH   1  12
BRANCH   1  26
ATOM     26  N1  UNL     1       0.845  -0.232   0.856  0.00  0.00    -0.296 NA
ATOM     27  H5  UNL     1       0.696  -0.310  -0.179  0.00  0.00    +0.124 HD
BRANCH  26  29
ATOM     28  C1  UNL     1       2.499   0.482   2.577  0.00  0.00    +0.029 C 
ATOM     29  C2  UNL     1       2.060   0.572   1.107  0.00  0.00    +0.082 C 
BRANCH  29  30
ATOM     30  C20 UNL     1       3.189   0.079   0.221  0.00  0.00    -0.031 A 
ATOM     31  C21 UNL     1       3.919   0.982  -0.570  0.00  0.00    +0.007 A 
ATOM     32  C22 UNL     1       4.967   0.530  -1.378  0.00  0.00    +0.023 A 
ATOM     33  C23 UNL     1       5.305  -0.830  -1.401  0.00  0.00    +0.025 A 
ATOM     34  C24 UNL     1       4.583  -1.735  -0.612  0.00  0.00    +0.023 A 
ATOM     35  C25 UNL     1       3.533  -1.285   0.193  0.00  0.00    +0.007 A 
BRANCH  33  36
ATOM     36  N5  UNL     1       6.379  -1.292  -2.224  0.00  0.00    -0.358 N 
ATOM     37  H19 UNL     1       6.921  -0.627  -2.816  0.00  0.00    +0.142 HD
ATOM     38  H20 UNL     1       6.647  -2.302  -2.237  0.00  0.00    +0.142 HD
ENDBRANCH  33  36
ENDBRANCH  29  30
ENDBRANCH  26  29
ENDBRANCH   1  26
TORSDOF 8
