REMARK  Name = /home/qwerty/github/datacon2025hack/step_04_hit_selection/docking/ligands/lig_604.pdb
REMARK  9 active torsions:
REMARK  status: ('A' for Active; 'I' for Inactive)
REMARK    1  A    between atoms: C1_1  and  O1_2
REMARK    2  A    between atoms: O1_2  and  C2_3
REMARK    3  A    between atoms: C2_3  and  C3_5
REMARK    4  A    between atoms: C5_7  and  N1_8
REMARK    5  A    between atoms: C6_9  and  C7_11
REMARK    6  A    between atoms: C7_11  and  C8_12
REMARK    7  A    between atoms: C20_24  and  C21_25
REMARK    8  A    between atoms: C21_25  and  O5_27
REMARK    9  A    between atoms: O5_27  and  C22_28
REMARK                            x       y       z     vdW  Elec       q    Type
REMARK                         _______ _______ _______ _____ _____    ______ ____
ROOT
ATOM      1  N1  UNL     1      -0.319   0.552  -0.081  0.00  0.00    -0.285 N 
ATOM      2  C6  UNL     1       0.408   0.214   1.119  0.00  0.00    +0.224 C 
ATOM      3  O3  UNL     1      -0.234  -0.203   2.123  0.00  0.00    -0.275 OA
ATOM      4  H5  UNL     1       0.162   1.070  -0.849  0.00  0.00    +0.155 HD
ENDROOT
BRANCH   1   7
ATOM      5  C3  UNL     1      -3.870   0.867  -1.224  0.00  0.00    +0.062 A 
ATOM      6  C4  UNL     1      -2.516   1.149  -0.984  0.00  0.00    +0.038 A 
ATOM      7  C5  UNL     1      -1.708   0.244  -0.283  0.00  0.00    +0.035 A 
ATOM      8  C19 UNL     1      -2.253  -0.977   0.146  0.00  0.00    +0.038 A 
ATOM      9  C20 UNL     1      -3.606  -1.279  -0.084  0.00  0.00    +0.062 A 
ATOM     10  C23 UNL     1      -4.409  -0.348  -0.765  0.00  0.00    +0.030 A 
BRANCH   5  11
ATOM     11  C2  UNL     1      -4.715   1.840  -1.954  0.00  0.00    +0.339 C 
ATOM     12  O2  UNL     1      -5.931   1.585  -2.172  0.00  0.00    -0.245 OA
BRANCH  11  14
ATOM     13  C1  UNL     1      -4.916   4.020  -3.113  0.00  0.00    +0.280 C 
ATOM     14  O1  UNL     1      -4.162   3.045  -2.402  0.00  0.00    -0.464 OA
ENDBRANCH  11  14
ENDBRANCH   5  11
BRANCH   9  15
ATOM     15  C21 UNL     1      -4.180  -2.564   0.376  0.00  0.00    +0.339 C 
ATOM     16  O4  UNL     1      -3.462  -3.389   1.007  0.00  0.00    -0.245 OA
BRANCH  15  17
ATOM     17  O5  UNL     1      -5.520  -2.864   0.109  0.00  0.00    -0.464 OA
ATOM     18  C22 UNL     1      -6.134  -4.077   0.530  0.00  0.00    +0.280 C 
ENDBRANCH  15  17
ENDBRANCH   9  15
ENDBRANCH   1   7
BRANCH   2  19
ATOM     19  C7  UNL     1       1.949   0.309   1.177  0.00  0.00    +0.050 C 
ATOM     20  C14 UNL     1       2.410   1.642   0.469  0.00  0.00    +0.016 C 
ATOM     21  C15 UNL     1       3.455   2.457   1.249  0.00  0.00    +0.001 C 
ATOM     22  C16 UNL     1       2.957   2.822   2.658  0.00  0.00    +0.000 C 
ATOM     23  C17 UNL     1       2.131   1.706   3.329  0.00  0.00    +0.001 C 
ATOM     24  C18 UNL     1       2.387   0.336   2.687  0.00  0.00    +0.016 C 
BRANCH  19  25
ATOM     25  C8  UNL     1       2.553  -0.989   0.492  0.00  0.00    +0.004 C 
ATOM     26  C9  UNL     1       4.117  -1.038   0.412  0.00  0.00    +0.004 C 
ATOM     27  C10 UNL     1       4.665  -0.935  -1.018  0.00  0.00    +0.000 C 
ATOM     28  C11 UNL     1       4.122  -2.053  -1.924  0.00  0.00    +0.000 C 
ATOM     29  C12 UNL     1       2.678  -2.465  -1.587  0.00  0.00    +0.000 C 
ATOM     30  C13 UNL     1       1.909  -1.343  -0.882  0.00  0.00    +0.004 C 
ENDBRANCH  19  25
ENDBRANCH   2  19
TORSDOF 7
