MODEL 1
REMARK VINA RESULT:    -6.998      0.000      0.000
REMARK INTER + INTRA:          -9.434
REMARK INTER:                  -8.635
REMARK INTRA:                  -0.799
REMARK UNBOUND:                -0.799
REMARK  Name = /home/qwerty/github/datacon2025hack/step_04_hit_selection/docking/ligands/lig_668.pdb
REMARK  6 active torsions:
REMARK  status: ('A' for Active; 'I' for Inactive)
REMARK    1  A    between atoms: C1_1  and  C2_2
REMARK    2  A    between atoms: C2_2  and  N1_3
REMARK    3  A    between atoms: C2_2  and  C15_19
REMARK    4  A    between atoms: C7_10  and  N3_11
REMARK    5  A    between atoms: N3_11  and  C8_12
REMARK    6  A    between atoms: N4_28  and  C23_29
REMARK                            x       y       z     vdW  Elec       q    Type
REMARK                         _______ _______ _______ _____ _____    ______ ____
ROOT
ATOM      1  N1  UNL     1      23.497  12.814  20.408  0.00  0.00    -0.293 N 
ATOM      2  C3  UNL     1      23.458  14.211  20.734  0.00  0.00    +0.303 C 
ATOM      3  O1  UNL     1      23.358  15.067  19.813  0.00  0.00    -0.253 OA
ATOM      4  N2  UNL     1      23.547  14.642  22.104  0.00  0.00    -0.284 N 
ATOM      5  C4  UNL     1      24.081  15.975  22.410  0.00  0.00    +0.109 C 
ATOM      6  C5  UNL     1      24.872  15.945  23.721  0.00  0.00    +0.021 C 
ATOM      7  C6  UNL     1      24.022  15.371  24.860  0.00  0.00    +0.025 C 
ATOM      8  C7  UNL     1      23.476  13.981  24.480  0.00  0.00    +0.088 C 
ATOM      9  C14 UNL     1      22.738  13.971  23.130  0.00  0.00    +0.131 C 
ATOM     10  H5  UNL     1      23.817  12.139  21.139  0.00  0.00    +0.151 HD
ENDROOT
BRANCH   1  12
ATOM     11  C1  UNL     1      24.255  11.448  18.499  0.00  0.00    +0.033 C 
ATOM     12  C2  UNL     1      23.134  12.318  19.076  0.00  0.00    +0.102 C 
BRANCH  12  13
ATOM     13  C15 UNL     1      21.845  11.529  19.141  0.00  0.00    -0.027 A 
ATOM     14  C16 UNL     1      21.856  10.117  19.023  0.00  0.00    +0.007 A 
ATOM     15  C17 UNL     1      20.660   9.385  19.068  0.00  0.00    +0.024 A 
ATOM     16  C18 UNL     1      19.460  10.080  19.228  0.00  0.00    +0.040 A 
ATOM     17  C19 UNL     1      19.437  11.455  19.328  0.00  0.00    -0.017 A 
ATOM     18  C20 UNL     1      20.613  12.204  19.284  0.00  0.00    +0.011 A 
ATOM     19  C21 UNL     1      18.035  11.959  19.441  0.00  0.00    +0.133 C 
ATOM     20  C22 UNL     1      17.289  10.660  19.368  0.00  0.00    +0.224 C 
ATOM     21  O2  UNL     1      16.033  10.573  19.359  0.00  0.00    -0.275 OA
ATOM     22  N4  UNL     1      18.152   9.527  19.284  0.00  0.00    -0.274 N 
ATOM     23  C23 UNL     1      17.759   8.195  18.834  0.00  0.00    +0.138 C 
ENDBRANCH  12  13
ENDBRANCH   1  12
BRANCH   8  24
ATOM     24  N3  UNL     1      22.677  13.376  25.557  0.00  0.00    -0.339 N 
ATOM     25  H13 UNL     1      22.094  12.559  25.266  0.00  0.00    +0.146 HD
BRANCH  24  26
ATOM     26  C8  UNL     1      22.650  13.718  26.964  0.00  0.00    +0.027 A 
ATOM     27  C9  UNL     1      23.732  13.316  27.770  0.00  0.00    +0.023 A 
ATOM     28  C10 UNL     1      23.761  13.613  29.136  0.00  0.00    +0.002 A 
ATOM     29  C11 UNL     1      22.706  14.314  29.721  0.00  0.00    +0.000 A 
ATOM     30  C12 UNL     1      21.621  14.717  28.940  0.00  0.00    +0.002 A 
ATOM     31  C13 UNL     1      21.588  14.422  27.572  0.00  0.00    +0.023 A 
ENDBRANCH  24  26
ENDBRANCH   8  24
TORSDOF 4
ENDMDL
MODEL 2
REMARK VINA RESULT:    -6.894     11.169     13.453
REMARK INTER + INTRA:          -9.305
REMARK INTER:                  -8.404
REMARK INTRA:                  -0.901
REMARK UNBOUND:                -0.799
REMARK  Name = /home/qwerty/github/datacon2025hack/step_04_hit_selection/docking/ligands/lig_668.pdb
REMARK  6 active torsions:
REMARK  status: ('A' for Active; 'I' for Inactive)
REMARK    1  A    between atoms: C1_1  and  C2_2
REMARK    2  A    between atoms: C2_2  and  N1_3
REMARK    3  A    between atoms: C2_2  and  C15_19
REMARK    4  A    between atoms: C7_10  and  N3_11
REMARK    5  A    between atoms: N3_11  and  C8_12
REMARK    6  A    between atoms: N4_28  and  C23_29
REMARK                            x       y       z     vdW  Elec       q    Type
REMARK                         _______ _______ _______ _____ _____    ______ ____
ROOT
ATOM      1  N1  UNL     1       9.830  13.780  28.406  0.00  0.00    -0.293 N 
ATOM      2  C3  UNL     1      10.672  13.760  29.569  0.00  0.00    +0.303 C 
ATOM      3  O1  UNL     1      10.153  13.737  30.718  0.00  0.00    -0.253 OA
ATOM      4  N2  UNL     1      12.104  13.781  29.431  0.00  0.00    -0.284 N 
ATOM      5  C4  UNL     1      12.927  14.332  30.514  0.00  0.00    +0.109 C 
ATOM      6  C5  UNL     1      14.156  15.044  29.940  0.00  0.00    +0.021 C 
ATOM      7  C6  UNL     1      14.944  14.114  29.011  0.00  0.00    +0.025 C 
ATOM      8  C7  UNL     1      14.030  13.554  27.905  0.00  0.00    +0.088 C 
ATOM      9  C14 UNL     1      12.752  12.895  28.454  0.00  0.00    +0.131 C 
ATOM     10  H5  UNL     1      10.253  14.038  27.487  0.00  0.00    +0.151 HD
ENDROOT
BRANCH   1  12
ATOM     11  C1  UNL     1       7.631  14.211  27.375  0.00  0.00    +0.033 C 
ATOM     12  C2  UNL     1       8.395  13.481  28.484  0.00  0.00    +0.102 C 
BRANCH  12  13
ATOM     13  C15 UNL     1       8.162  11.990  28.381  0.00  0.00    -0.027 A 
ATOM     14  C16 UNL     1       8.254  11.329  27.132  0.00  0.00    +0.007 A 
ATOM     15  C17 UNL     1       8.022   9.948  27.032  0.00  0.00    +0.024 A 
ATOM     16  C18 UNL     1       7.696   9.243  28.192  0.00  0.00    +0.040 A 
ATOM     17  C19 UNL     1       7.589   9.880  29.411  0.00  0.00    -0.017 A 
ATOM     18  C20 UNL     1       7.812  11.251  29.533  0.00  0.00    +0.011 A 
ATOM     19  C21 UNL     1       7.182   8.920  30.481  0.00  0.00    +0.133 C 
ATOM     20  C22 UNL     1       7.062   7.666  29.668  0.00  0.00    +0.224 C 
ATOM     21  O2  UNL     1       6.670   6.563  30.134  0.00  0.00    -0.275 OA
ATOM     22  N4  UNL     1       7.414   7.854  28.298  0.00  0.00    -0.274 N 
ATOM     23  C23 UNL     1       7.056   6.962  27.201  0.00  0.00    +0.138 C 
ENDBRANCH  12  13
ENDBRANCH   1  12
BRANCH   8  24
ATOM     24  N3  UNL     1      14.751  12.677  26.969  0.00  0.00    -0.339 N 
ATOM     25  H13 UNL     1      14.566  12.866  25.958  0.00  0.00    +0.146 HD
BRANCH  24  26
ATOM     26  C8  UNL     1      15.724  11.646  27.264  0.00  0.00    +0.027 A 
ATOM     27  C9  UNL     1      17.020  11.778  26.728  0.00  0.00    +0.023 A 
ATOM     28  C10 UNL     1      18.001  10.812  26.974  0.00  0.00    +0.002 A 
ATOM     29  C11 UNL     1      17.703   9.696  27.757  0.00  0.00    +0.000 A 
ATOM     30  C12 UNL     1      16.424   9.545  28.293  0.00  0.00    +0.002 A 
ATOM     31  C13 UNL     1      15.437  10.509  28.050  0.00  0.00    +0.023 A 
ENDBRANCH  24  26
ENDBRANCH   8  24
TORSDOF 4
ENDMDL
MODEL 3
REMARK VINA RESULT:    -6.873     13.513     16.832
REMARK INTER + INTRA:          -9.279
REMARK INTER:                  -8.186
REMARK INTRA:                  -1.093
REMARK UNBOUND:                -0.799
REMARK  Name = /home/qwerty/github/datacon2025hack/step_04_hit_selection/docking/ligands/lig_668.pdb
REMARK  6 active torsions:
REMARK  status: ('A' for Active; 'I' for Inactive)
REMARK    1  A    between atoms: C1_1  and  C2_2
REMARK    2  A    between atoms: C2_2  and  N1_3
REMARK    3  A    between atoms: C2_2  and  C15_19
REMARK    4  A    between atoms: C7_10  and  N3_11
REMARK    5  A    between atoms: N3_11  and  C8_12
REMARK    6  A    between atoms: N4_28  and  C23_29
REMARK                            x       y       z     vdW  Elec       q    Type
REMARK                         _______ _______ _______ _____ _____    ______ ____
ROOT
ATOM      1  N1  UNL     1      19.804   6.480  35.570  0.00  0.00    -0.293 N 
ATOM      2  C3  UNL     1      21.139   6.975  35.747  0.00  0.00    +0.303 C 
ATOM      3  O1  UNL     1      21.391   7.775  36.689  0.00  0.00    -0.253 OA
ATOM      4  N2  UNL     1      22.188   6.578  34.846  0.00  0.00    -0.284 N 
ATOM      5  C4  UNL     1      23.340   7.465  34.640  0.00  0.00    +0.109 C 
ATOM      6  C5  UNL     1      23.830   7.375  33.192  0.00  0.00    +0.021 C 
ATOM      7  C6  UNL     1      24.123   5.922  32.802  0.00  0.00    +0.025 C 
ATOM      8  C7  UNL     1      22.889   5.035  33.052  0.00  0.00    +0.088 C 
ATOM      9  C14 UNL     1      22.334   5.162  34.482  0.00  0.00    +0.131 C 
ATOM     10  H5  UNL     1      19.557   6.020  34.665  0.00  0.00    +0.151 HD
ENDROOT
BRANCH   1  12
ATOM     11  C1  UNL     1      17.769   7.714  36.218  0.00  0.00    +0.033 C 
ATOM     12  C2  UNL     1      18.778   6.630  36.608  0.00  0.00    +0.102 C 
BRANCH  12  13
ATOM     13  C15 UNL     1      18.065   5.315  36.839  0.00  0.00    -0.027 A 
ATOM     14  C16 UNL     1      17.033   5.213  37.804  0.00  0.00    +0.007 A 
ATOM     15  C17 UNL     1      16.381   3.991  38.030  0.00  0.00    +0.024 A 
ATOM     16  C18 UNL     1      16.776   2.879  37.284  0.00  0.00    +0.040 A 
ATOM     17  C19 UNL     1      17.790   2.965  36.352  0.00  0.00    -0.017 A 
ATOM     18  C20 UNL     1      18.452   4.168  36.113  0.00  0.00    +0.011 A 
ATOM     19  C21 UNL     1      18.055   1.634  35.727  0.00  0.00    +0.133 C 
ATOM     20  C22 UNL     1      17.051   0.799  36.467  0.00  0.00    +0.224 C 
ATOM     21  O2  UNL     1      16.936  -0.447  36.325  0.00  0.00    -0.275 OA
ATOM     22  N4  UNL     1      16.253   1.560  37.372  0.00  0.00    -0.274 N 
ATOM     23  C23 UNL     1      15.473   1.015  38.478  0.00  0.00    +0.138 C 
ENDBRANCH  12  13
ENDBRANCH   1  12
BRANCH   8  24
ATOM     24  N3  UNL     1      23.113   3.634  32.663  0.00  0.00    -0.339 N 
ATOM     25  H13 UNL     1      24.084   3.282  32.828  0.00  0.00    +0.146 HD
BRANCH  24  26
ATOM     26  C8  UNL     1      22.157   2.672  32.156  0.00  0.00    +0.027 A 
ATOM     27  C9  UNL     1      21.121   2.247  33.010  0.00  0.00    +0.023 A 
ATOM     28  C10 UNL     1      20.170   1.317  32.579  0.00  0.00    +0.002 A 
ATOM     29  C11 UNL     1      20.241   0.792  31.288  0.00  0.00    +0.000 A 
ATOM     30  C12 UNL     1      21.263   1.197  30.428  0.00  0.00    +0.002 A 
ATOM     31  C13 UNL     1      22.217   2.129  30.855  0.00  0.00    +0.023 A 
ENDBRANCH  24  26
ENDBRANCH   8  24
TORSDOF 4
ENDMDL
MODEL 4
REMARK VINA RESULT:    -6.741      9.073     13.491
REMARK INTER + INTRA:          -9.116
REMARK INTER:                  -7.982
REMARK INTRA:                  -1.134
REMARK UNBOUND:                -0.799
REMARK  Name = /home/qwerty/github/datacon2025hack/step_04_hit_selection/docking/ligands/lig_668.pdb
REMARK  6 active torsions:
REMARK  status: ('A' for Active; 'I' for Inactive)
REMARK    1  A    between atoms: C1_1  and  C2_2
REMARK    2  A    between atoms: C2_2  and  N1_3
REMARK    3  A    between atoms: C2_2  and  C15_19
REMARK    4  A    between atoms: C7_10  and  N3_11
REMARK    5  A    between atoms: N3_11  and  C8_12
REMARK    6  A    between atoms: N4_28  and  C23_29
REMARK                            x       y       z     vdW  Elec       q    Type
REMARK                         _______ _______ _______ _____ _____    ______ ____
ROOT
ATOM      1  N1  UNL     1      19.914  10.451  35.821  0.00  0.00    -0.293 N 
ATOM      2  C3  UNL     1      19.748   9.153  36.411  0.00  0.00    +0.303 C 
ATOM      3  O1  UNL     1      18.632   8.822  36.895  0.00  0.00    -0.253 OA
ATOM      4  N2  UNL     1      20.853   8.233  36.468  0.00  0.00    -0.284 N 
ATOM      5  C4  UNL     1      20.891   7.211  37.522  0.00  0.00    +0.109 C 
ATOM      6  C5  UNL     1      22.334   6.957  37.966  0.00  0.00    +0.021 C 
ATOM      7  C6  UNL     1      23.222   6.605  36.768  0.00  0.00    +0.025 C 
ATOM      8  C7  UNL     1      23.133   7.701  35.689  0.00  0.00    +0.088 C 
ATOM      9  C14 UNL     1      21.687   8.026  35.276  0.00  0.00    +0.131 C 
ATOM     10  H5  UNL     1      20.883  10.800  35.646  0.00  0.00    +0.151 HD
ENDROOT
BRANCH   1  12
ATOM     11  C1  UNL     1      18.515  12.326  36.605  0.00  0.00    +0.033 C 
ATOM     12  C2  UNL     1      18.767  11.304  35.491  0.00  0.00    +0.102 C 
BRANCH  12  13
ATOM     13  C15 UNL     1      19.000  12.016  34.177  0.00  0.00    -0.027 A 
ATOM     14  C16 UNL     1      18.448  13.298  33.942  0.00  0.00    +0.007 A 
ATOM     15  C17 UNL     1      18.650  13.953  32.717  0.00  0.00    +0.024 A 
ATOM     16  C18 UNL     1      19.405  13.309  31.736  0.00  0.00    +0.040 A 
ATOM     17  C19 UNL     1      19.934  12.053  31.949  0.00  0.00    -0.017 A 
ATOM     18  C20 UNL     1      19.744  11.383  33.157  0.00  0.00    +0.011 A 
ATOM     19  C21 UNL     1      20.654  11.565  30.734  0.00  0.00    +0.133 C 
ATOM     20  C22 UNL     1      20.426  12.727  29.815  0.00  0.00    +0.224 C 
ATOM     21  O2  UNL     1      20.803  12.756  28.614  0.00  0.00    -0.275 OA
ATOM     22  N4  UNL     1      19.710  13.795  30.435  0.00  0.00    -0.274 N 
ATOM     23  C23 UNL     1      19.019  14.872  29.734  0.00  0.00    +0.138 C 
ENDBRANCH  12  13
ENDBRANCH   1  12
BRANCH   8  24
ATOM     24  N3  UNL     1      23.995   7.421  34.529  0.00  0.00    -0.339 N 
ATOM     25  H13 UNL     1      24.741   6.709  34.697  0.00  0.00    +0.146 HD
BRANCH  24  26
ATOM     26  C8  UNL     1      23.896   7.946  33.183  0.00  0.00    +0.027 A 
ATOM     27  C9  UNL     1      24.568   9.146  32.883  0.00  0.00    +0.023 A 
ATOM     28  C10 UNL     1      24.506   9.705  31.603  0.00  0.00    +0.002 A 
ATOM     29  C11 UNL     1      23.767   9.075  30.601  0.00  0.00    +0.000 A 
ATOM     30  C12 UNL     1      23.089   7.887  30.879  0.00  0.00    +0.002 A 
ATOM     31  C13 UNL     1      23.148   7.324  32.159  0.00  0.00    +0.023 A 
ENDBRANCH  24  26
ENDBRANCH   8  24
TORSDOF 4
ENDMDL
MODEL 5
REMARK VINA RESULT:    -6.736     11.480     13.705
REMARK INTER + INTRA:          -9.110
REMARK INTER:                  -8.080
REMARK INTRA:                  -1.031
REMARK UNBOUND:                -0.799
REMARK  Name = /home/qwerty/github/datacon2025hack/step_04_hit_selection/docking/ligands/lig_668.pdb
REMARK  6 active torsions:
REMARK  status: ('A' for Active; 'I' for Inactive)
REMARK    1  A    between atoms: C1_1  and  C2_2
REMARK    2  A    between atoms: C2_2  and  N1_3
REMARK    3  A    between atoms: C2_2  and  C15_19
REMARK    4  A    between atoms: C7_10  and  N3_11
REMARK    5  A    between atoms: N3_11  and  C8_12
REMARK    6  A    between atoms: N4_28  and  C23_29
REMARK                            x       y       z     vdW  Elec       q    Type
REMARK                         _______ _______ _______ _____ _____    ______ ____
ROOT
ATOM      1  N1  UNL     1      22.981   8.719  33.330  0.00  0.00    -0.293 N 
ATOM      2  C3  UNL     1      21.834   9.514  32.997  0.00  0.00    +0.303 C 
ATOM      3  O1  UNL     1      21.561   9.746  31.788  0.00  0.00    -0.253 OA
ATOM      4  N2  UNL     1      21.002  10.062  34.035  0.00  0.00    -0.284 N 
ATOM      5  C4  UNL     1      20.233  11.286  33.776  0.00  0.00    +0.109 C 
ATOM      6  C5  UNL     1      20.150  12.141  35.045  0.00  0.00    +0.021 C 
ATOM      7  C6  UNL     1      19.592  11.328  36.218  0.00  0.00    +0.025 C 
ATOM      8  C7  UNL     1      20.425  10.051  36.435  0.00  0.00    +0.088 C 
ATOM      9  C14 UNL     1      20.584   9.209  35.156  0.00  0.00    +0.131 C 
ATOM     10  H5  UNL     1      23.331   8.734  34.314  0.00  0.00    +0.151 HD
ENDROOT
BRANCH   1  12
ATOM     11  C1  UNL     1      25.105   7.584  32.798  0.00  0.00    +0.033 C 
ATOM     12  C2  UNL     1      23.688   7.918  32.324  0.00  0.00    +0.102 C 
BRANCH  12  13
ATOM     13  C15 UNL     1      22.923   6.646  32.031  0.00  0.00    -0.027 A 
ATOM     14  C16 UNL     1      22.239   6.482  30.802  0.00  0.00    +0.007 A 
ATOM     15  C17 UNL     1      21.516   5.310  30.534  0.00  0.00    +0.024 A 
ATOM     16  C18 UNL     1      21.485   4.310  31.509  0.00  0.00    +0.040 A 
ATOM     17  C19 UNL     1      22.136   4.467  32.716  0.00  0.00    -0.017 A 
ATOM     18  C20 UNL     1      22.858   5.625  33.003  0.00  0.00    +0.011 A 
ATOM     19  C21 UNL     1      21.910   3.285  33.601  0.00  0.00    +0.133 C 
ATOM     20  C22 UNL     1      21.023   2.465  32.713  0.00  0.00    +0.224 C 
ATOM     21  O2  UNL     1      20.504   1.371  33.058  0.00  0.00    -0.275 OA
ATOM     22  N4  UNL     1      20.805   3.065  31.437  0.00  0.00    -0.274 N 
ATOM     23  C23 UNL     1      19.727   2.725  30.514  0.00  0.00    +0.138 C 
ENDBRANCH  12  13
ENDBRANCH   1  12
BRANCH   8  24
ATOM     24  N3  UNL     1      19.945   9.251  37.573  0.00  0.00    -0.339 N 
ATOM     25  H13 UNL     1      20.302   9.555  38.506  0.00  0.00    +0.146 HD
BRANCH  24  26
ATOM     26  C8  UNL     1      18.997   8.156  37.571  0.00  0.00    +0.027 A 
ATOM     27  C9  UNL     1      17.623   8.462  37.595  0.00  0.00    +0.023 A 
ATOM     28  C10 UNL     1      16.660   7.448  37.600  0.00  0.00    +0.002 A 
ATOM     29  C11 UNL     1      17.055   6.110  37.585  0.00  0.00    +0.000 A 
ATOM     30  C12 UNL     1      18.412   5.786  37.566  0.00  0.00    +0.002 A 
ATOM     31  C13 UNL     1      19.380   6.797  37.561  0.00  0.00    +0.023 A 
ENDBRANCH  24  26
ENDBRANCH   8  24
TORSDOF 4
ENDMDL
MODEL 6
REMARK VINA RESULT:    -6.702      8.464     11.155
REMARK INTER + INTRA:          -9.068
REMARK INTER:                  -7.794
REMARK INTRA:                  -1.275
REMARK UNBOUND:                -0.799
REMARK  Name = /home/qwerty/github/datacon2025hack/step_04_hit_selection/docking/ligands/lig_668.pdb
REMARK  6 active torsions:
REMARK  status: ('A' for Active; 'I' for Inactive)
REMARK    1  A    between atoms: C1_1  and  C2_2
REMARK    2  A    between atoms: C2_2  and  N1_3
REMARK    3  A    between atoms: C2_2  and  C15_19
REMARK    4  A    between atoms: C7_10  and  N3_11
REMARK    5  A    between atoms: N3_11  and  C8_12
REMARK    6  A    between atoms: N4_28  and  C23_29
REMARK                            x       y       z     vdW  Elec       q    Type
REMARK                         _______ _______ _______ _____ _____    ______ ____
ROOT
ATOM      1  N1  UNL     1      20.925   4.476  22.931  0.00  0.00    -0.293 N 
ATOM      2  C3  UNL     1      21.003   4.855  24.313  0.00  0.00    +0.303 C 
ATOM      3  O1  UNL     1      21.004   6.076  24.630  0.00  0.00    -0.253 OA
ATOM      4  N2  UNL     1      21.096   3.850  25.339  0.00  0.00    -0.284 N 
ATOM      5  C4  UNL     1      21.740   4.179  26.618  0.00  0.00    +0.109 C 
ATOM      6  C5  UNL     1      22.491   2.961  27.164  0.00  0.00    +0.021 C 
ATOM      7  C6  UNL     1      21.565   1.744  27.262  0.00  0.00    +0.025 C 
ATOM      8  C7  UNL     1      20.906   1.455  25.900  0.00  0.00    +0.088 C 
ATOM      9  C14 UNL     1      20.204   2.684  25.295  0.00  0.00    +0.131 C 
ATOM     10  H5  UNL     1      21.164   3.494  22.668  0.00  0.00    +0.151 HD
ENDROOT
BRANCH   1  12
ATOM     11  C1  UNL     1      21.595   5.445  20.764  0.00  0.00    +0.033 C 
ATOM     12  C2  UNL     1      20.552   5.435  21.885  0.00  0.00    +0.102 C 
BRANCH  12  13
ATOM     13  C15 UNL     1      19.188   5.098  21.323  0.00  0.00    -0.027 A 
ATOM     14  C16 UNL     1      18.551   5.968  20.405  0.00  0.00    +0.007 A 
ATOM     15  C17 UNL     1      17.279   5.665  19.894  0.00  0.00    +0.024 A 
ATOM     16  C18 UNL     1      16.656   4.488  20.316  0.00  0.00    +0.040 A 
ATOM     17  C19 UNL     1      17.263   3.643  21.221  0.00  0.00    -0.017 A 
ATOM     18  C20 UNL     1      18.524   3.925  21.743  0.00  0.00    +0.011 A 
ATOM     19  C21 UNL     1      16.375   2.485  21.547  0.00  0.00    +0.133 C 
ATOM     20  C22 UNL     1      15.185   2.829  20.702  0.00  0.00    +0.224 C 
ATOM     21  O2  UNL     1      14.117   2.161  20.690  0.00  0.00    -0.275 OA
ATOM     22  N4  UNL     1      15.374   4.013  19.928  0.00  0.00    -0.274 N 
ATOM     23  C23 UNL     1      14.312   4.803  19.315  0.00  0.00    +0.138 C 
ENDBRANCH  12  13
ENDBRANCH   1  12
BRANCH   8  24
ATOM     24  N3  UNL     1      20.028   0.274  25.937  0.00  0.00    -0.339 N 
ATOM     25  H13 UNL     1      20.446  -0.570  26.390  0.00  0.00    +0.146 HD
BRANCH  24  26
ATOM     26  C8  UNL     1      18.653   0.156  25.498  0.00  0.00    +0.027 A 
ATOM     27  C9  UNL     1      17.631   0.355  26.445  0.00  0.00    +0.023 A 
ATOM     28  C10 UNL     1      16.284   0.249  26.083  0.00  0.00    +0.002 A 
ATOM     29  C11 UNL     1      15.937  -0.061  24.767  0.00  0.00    +0.000 A 
ATOM     30  C12 UNL     1      16.936  -0.267  23.815  0.00  0.00    +0.002 A 
ATOM     31  C13 UNL     1      18.286  -0.162  24.173  0.00  0.00    +0.023 A 
ENDBRANCH  24  26
ENDBRANCH   8  24
TORSDOF 4
ENDMDL
MODEL 7
REMARK VINA RESULT:    -6.667     10.092     13.290
REMARK INTER + INTRA:          -9.025
REMARK INTER:                  -8.442
REMARK INTRA:                  -0.583
REMARK UNBOUND:                -0.799
REMARK  Name = /home/qwerty/github/datacon2025hack/step_04_hit_selection/docking/ligands/lig_668.pdb
REMARK  6 active torsions:
REMARK  status: ('A' for Active; 'I' for Inactive)
REMARK    1  A    between atoms: C1_1  and  C2_2
REMARK    2  A    between atoms: C2_2  and  N1_3
REMARK    3  A    between atoms: C2_2  and  C15_19
REMARK    4  A    between atoms: C7_10  and  N3_11
REMARK    5  A    between atoms: N3_11  and  C8_12
REMARK    6  A    between atoms: N4_28  and  C23_29
REMARK                            x       y       z     vdW  Elec       q    Type
REMARK                         _______ _______ _______ _____ _____    ______ ____
ROOT
ATOM      1  N1  UNL     1       7.556  10.467  24.574  0.00  0.00    -0.293 N 
ATOM      2  C3  UNL     1       7.892   9.615  25.679  0.00  0.00    +0.303 C 
ATOM      3  O1  UNL     1       8.070   8.381  25.488  0.00  0.00    -0.253 OA
ATOM      4  N2  UNL     1       8.011  10.158  27.007  0.00  0.00    -0.284 N 
ATOM      5  C4  UNL     1       7.773   9.290  28.167  0.00  0.00    +0.109 C 
ATOM      6  C5  UNL     1       7.113  10.084  29.299  0.00  0.00    +0.021 C 
ATOM      7  C6  UNL     1       7.937  11.328  29.648  0.00  0.00    +0.025 C 
ATOM      8  C7  UNL     1       8.169  12.192  28.394  0.00  0.00    +0.088 C 
ATOM      9  C14 UNL     1       8.766  11.400  27.217  0.00  0.00    +0.131 C 
ATOM     10  H5  UNL     1       7.180  11.421  24.775  0.00  0.00    +0.151 HD
ENDROOT
BRANCH   1  12
ATOM     11  C1  UNL     1       7.319  11.150  22.216  0.00  0.00    +0.033 C 
ATOM     12  C2  UNL     1       7.695  10.023  23.183  0.00  0.00    +0.102 C 
BRANCH  12  13
ATOM     13  C15 UNL     1       9.111   9.560  22.917  0.00  0.00    -0.027 A 
ATOM     14  C16 UNL     1      10.209  10.423  23.152  0.00  0.00    +0.007 A 
ATOM     15  C17 UNL     1      11.521  10.001  22.892  0.00  0.00    +0.024 A 
ATOM     16  C18 UNL     1      11.719   8.712  22.393  0.00  0.00    +0.040 A 
ATOM     17  C19 UNL     1      10.655   7.870  22.145  0.00  0.00    -0.017 A 
ATOM     18  C20 UNL     1       9.343   8.268  22.395  0.00  0.00    +0.011 A 
ATOM     19  C21 UNL     1      11.124   6.573  21.570  0.00  0.00    +0.133 C 
ATOM     20  C22 UNL     1      12.600   6.834  21.518  0.00  0.00    +0.224 C 
ATOM     21  O2  UNL     1      13.438   6.028  21.033  0.00  0.00    -0.275 OA
ATOM     22  N4  UNL     1      12.959   8.106  22.055  0.00  0.00    -0.274 N 
ATOM     23  C23 UNL     1      14.221   8.800  21.817  0.00  0.00    +0.138 C 
ENDBRANCH  12  13
ENDBRANCH   1  12
BRANCH   8  24
ATOM     24  N3  UNL     1       8.932  13.416  28.687  0.00  0.00    -0.339 N 
ATOM     25  H13 UNL     1       8.351  14.243  28.950  0.00  0.00    +0.146 HD
BRANCH  24  26
ATOM     26  C8  UNL     1      10.368  13.598  28.725  0.00  0.00    +0.027 A 
ATOM     27  C9  UNL     1      10.962  14.428  27.755  0.00  0.00    +0.023 A 
ATOM     28  C10 UNL     1      12.344  14.638  27.737  0.00  0.00    +0.002 A 
ATOM     29  C11 UNL     1      13.158  14.018  28.687  0.00  0.00    +0.000 A 
ATOM     30  C12 UNL     1      12.588  13.188  29.653  0.00  0.00    +0.002 A 
ATOM     31  C13 UNL     1      11.205  12.974  29.675  0.00  0.00    +0.023 A 
ENDBRANCH  24  26
ENDBRANCH   8  24
TORSDOF 4
ENDMDL
MODEL 8
REMARK VINA RESULT:    -6.662     11.009     13.919
REMARK INTER + INTRA:          -9.019
REMARK INTER:                  -8.216
REMARK INTRA:                  -0.803
REMARK UNBOUND:                -0.799
REMARK  Name = /home/qwerty/github/datacon2025hack/step_04_hit_selection/docking/ligands/lig_668.pdb
REMARK  6 active torsions:
REMARK  status: ('A' for Active; 'I' for Inactive)
REMARK    1  A    between atoms: C1_1  and  C2_2
REMARK    2  A    between atoms: C2_2  and  N1_3
REMARK    3  A    between atoms: C2_2  and  C15_19
REMARK    4  A    between atoms: C7_10  and  N3_11
REMARK    5  A    between atoms: N3_11  and  C8_12
REMARK    6  A    between atoms: N4_28  and  C23_29
REMARK                            x       y       z     vdW  Elec       q    Type
REMARK                         _______ _______ _______ _____ _____    ______ ____
ROOT
ATOM      1  N1  UNL     1      19.054   4.394  33.653  0.00  0.00    -0.293 N 
ATOM      2  C3  UNL     1      19.093   4.748  35.044  0.00  0.00    +0.303 C 
ATOM      3  O1  UNL     1      18.436   4.072  35.881  0.00  0.00    -0.253 OA
ATOM      4  N2  UNL     1      19.864   5.879  35.486  0.00  0.00    -0.284 N 
ATOM      5  C4  UNL     1      19.476   6.585  36.713  0.00  0.00    +0.109 C 
ATOM      6  C5  UNL     1      19.759   8.084  36.578  0.00  0.00    +0.021 C 
ATOM      7  C6  UNL     1      21.219   8.333  36.188  0.00  0.00    +0.025 C 
ATOM      8  C7  UNL     1      21.576   7.559  34.905  0.00  0.00    +0.088 C 
ATOM      9  C14 UNL     1      21.236   6.060  34.990  0.00  0.00    +0.131 C 
ATOM     10  H5  UNL     1      19.397   5.088  32.951  0.00  0.00    +0.151 HD
ENDROOT
BRANCH   1  12
ATOM     11  C1  UNL     1      17.088   3.271  32.675  0.00  0.00    +0.033 C 
ATOM     12  C2  UNL     1      18.519   3.106  33.196  0.00  0.00    +0.102 C 
BRANCH  12  13
ATOM     13  C15 UNL     1      19.402   2.523  32.115  0.00  0.00    -0.027 A 
ATOM     14  C16 UNL     1      19.759   1.153  32.136  0.00  0.00    +0.007 A 
ATOM     15  C17 UNL     1      20.590   0.613  31.143  0.00  0.00    +0.024 A 
ATOM     16  C18 UNL     1      21.060   1.459  30.136  0.00  0.00    +0.040 A 
ATOM     17  C19 UNL     1      20.730   2.798  30.116  0.00  0.00    -0.017 A 
ATOM     18  C20 UNL     1      19.907   3.356  31.093  0.00  0.00    +0.011 A 
ATOM     19  C21 UNL     1      21.394   3.494  28.972  0.00  0.00    +0.133 C 
ATOM     20  C22 UNL     1      22.154   2.344  28.379  0.00  0.00    +0.224 C 
ATOM     21  O2  UNL     1      22.939   2.453  27.400  0.00  0.00    -0.275 OA
ATOM     22  N4  UNL     1      21.916   1.111  29.057  0.00  0.00    -0.274 N 
ATOM     23  C23 UNL     1      22.759  -0.077  28.974  0.00  0.00    +0.138 C 
ENDBRANCH  12  13
ENDBRANCH   1  12
BRANCH   8  24
ATOM     24  N3  UNL     1      22.964   7.791  34.473  0.00  0.00    -0.339 N 
ATOM     25  H13 UNL     1      23.689   7.301  35.044  0.00  0.00    +0.146 HD
BRANCH  24  26
ATOM     26  C8  UNL     1      23.441   8.543  33.332  0.00  0.00    +0.027 A 
ATOM     27  C9  UNL     1      22.491   9.117  32.465  0.00  0.00    +0.023 A 
ATOM     28  C10 UNL     1      22.890   9.850  31.343  0.00  0.00    +0.002 A 
ATOM     29  C11 UNL     1      24.247  10.019  31.066  0.00  0.00    +0.000 A 
ATOM     30  C12 UNL     1      25.205   9.455  31.910  0.00  0.00    +0.002 A 
ATOM     31  C13 UNL     1      24.810   8.720  33.035  0.00  0.00    +0.023 A 
ENDBRANCH  24  26
ENDBRANCH   8  24
TORSDOF 4
ENDMDL
MODEL 9
REMARK VINA RESULT:    -4.139      3.789      8.193
REMARK INTER + INTRA:          -5.905
REMARK INTER:                  -5.051
REMARK INTRA:                  -0.854
REMARK UNBOUND:                -0.799
REMARK  Name = /home/qwerty/github/datacon2025hack/step_04_hit_selection/docking/ligands/lig_668.pdb
REMARK  6 active torsions:
REMARK  status: ('A' for Active; 'I' for Inactive)
REMARK    1  A    between atoms: C1_1  and  C2_2
REMARK    2  A    between atoms: C2_2  and  N1_3
REMARK    3  A    between atoms: C2_2  and  C15_19
REMARK    4  A    between atoms: C7_10  and  N3_11
REMARK    5  A    between atoms: N3_11  and  C8_12
REMARK    6  A    between atoms: N4_28  and  C23_29
REMARK                            x       y       z     vdW  Elec       q    Type
REMARK                         _______ _______ _______ _____ _____    ______ ____
ROOT
ATOM      1  N1  UNL     1      22.065  16.172  26.600  0.00  0.00    -0.293 N 
ATOM      2  C3  UNL     1      23.061  15.351  25.972  0.00  0.00    +0.303 C 
ATOM      3  O1  UNL     1      23.723  14.529  26.662  0.00  0.00    -0.253 OA
ATOM      4  N2  UNL     1      23.320  15.472  24.561  0.00  0.00    -0.284 N 
ATOM      5  C4  UNL     1      24.644  15.115  24.035  0.00  0.00    +0.109 C 
ATOM      6  C5  UNL     1      25.018  16.034  22.868  0.00  0.00    +0.021 C 
ATOM      7  C6  UNL     1      23.929  16.022  21.790  0.00  0.00    +0.025 C 
ATOM      8  C7  UNL     1      22.562  16.387  22.399  0.00  0.00    +0.088 C 
ATOM      9  C14 UNL     1      22.194  15.524  23.619  0.00  0.00    +0.131 C 
ATOM     10  H5  UNL     1      21.700  17.001  26.080  0.00  0.00    +0.151 HD
ENDROOT
BRANCH   1  12
ATOM     11  C1  UNL     1      21.607  17.165  28.811  0.00  0.00    +0.033 C 
ATOM     12  C2  UNL     1      21.575  15.895  27.955  0.00  0.00    +0.102 C 
BRANCH  12  13
ATOM     13  C15 UNL     1      20.170  15.337  27.904  0.00  0.00    -0.027 A 
ATOM     14  C16 UNL     1      19.939  13.948  28.048  0.00  0.00    +0.007 A 
ATOM     15  C17 UNL     1      18.638  13.426  27.985  0.00  0.00    +0.024 A 
ATOM     16  C18 UNL     1      17.577  14.310  27.774  0.00  0.00    +0.040 A 
ATOM     17  C19 UNL     1      17.793  15.663  27.617  0.00  0.00    -0.017 A 
ATOM     18  C20 UNL     1      19.078  16.202  27.674  0.00  0.00    +0.011 A 
ATOM     19  C21 UNL     1      16.509  16.381  27.356  0.00  0.00    +0.133 C 
ATOM     20  C22 UNL     1      15.559  15.222  27.372  0.00  0.00    +0.224 C 
ATOM     21  O2  UNL     1      14.327  15.322  27.128  0.00  0.00    -0.275 OA
ATOM     22  N4  UNL     1      16.199  13.981  27.667  0.00  0.00    -0.274 N 
ATOM     23  C23 UNL     1      15.647  12.658  27.396  0.00  0.00    +0.138 C 
ENDBRANCH  12  13
ENDBRANCH   1  12
BRANCH   8  24
ATOM     24  N3  UNL     1      21.487  16.418  21.394  0.00  0.00    -0.339 N 
ATOM     25  H13 UNL     1      21.095  17.367  21.198  0.00  0.00    +0.146 HD
BRANCH  24  26
ATOM     26  C8  UNL     1      20.961  15.326  20.601  0.00  0.00    +0.027 A 
ATOM     27  C9  UNL     1      21.417  15.183  19.276  0.00  0.00    +0.023 A 
ATOM     28  C10 UNL     1      20.942  14.152  18.459  0.00  0.00    +0.002 A 
ATOM     29  C11 UNL     1      19.999  13.249  18.952  0.00  0.00    +0.000 A 
ATOM     30  C12 UNL     1      19.531  13.377  20.261  0.00  0.00    +0.002 A 
ATOM     31  C13 UNL     1      20.004  14.407  21.082  0.00  0.00    +0.023 A 
ENDBRANCH  24  26
ENDBRANCH   8  24
TORSDOF 4
ENDMDL
