REMARK  Name = /home/qwerty/github/datacon2025hack/step_04_hit_selection/docking/ligands/lig_65.pdb
REMARK  7 active torsions:
REMARK  status: ('A' for Active; 'I' for Inactive)
REMARK    1  A    between atoms: C1_1  and  O1_2
REMARK    2  A    between atoms: O1_2  and  C2_3
REMARK    3  A    between atoms: C2_3  and  C3_5
REMARK    4  A    between atoms: C3_5  and  C4_6
REMARK    5  A    between atoms: C7_9  and  N1_10
REMARK    6  A    between atoms: N1_10  and  C8_11
REMARK    7  A    between atoms: C9_12  and  N2_13
REMARK                            x       y       z     vdW  Elec       q    Type
REMARK                         _______ _______ _______ _____ _____    ______ ____
ROOT
ATOM      1  C4  UNL     1      -1.771   0.262  -0.631  0.00  0.00    -0.030 A 
ATOM      2  C5  UNL     1      -1.833   1.351   0.251  0.00  0.00    +0.006 A 
ATOM      3  C6  UNL     1      -0.681   1.795   0.905  0.00  0.00    +0.023 A 
ATOM      4  C7  UNL     1       0.547   1.148   0.703  0.00  0.00    +0.031 A 
ATOM      5  C14 UNL     1       0.604   0.049  -0.174  0.00  0.00    +0.023 A 
ATOM      6  C15 UNL     1      -0.549  -0.396  -0.827  0.00  0.00    +0.006 A 
ENDROOT
BRANCH   1   7
ATOM      7  C3  UNL     1      -3.019  -0.241  -1.304  0.00  0.00    +0.093 C 
ATOM      8  C16 UNL     1      -3.797   0.761  -2.149  0.00  0.00    +0.024 C 
ATOM      9  C17 UNL     1      -2.980  -0.329  -2.825  0.00  0.00    +0.024 C 
BRANCH   7  10
ATOM     10  C2  UNL     1      -3.824  -1.295  -0.612  0.00  0.00    +0.317 C 
ATOM     11  O2  UNL     1      -4.726  -0.959   0.203  0.00  0.00    -0.250 OA
BRANCH  10  13
ATOM     12  C1  UNL     1      -4.263  -3.697  -0.225  0.00  0.00    +0.280 C 
ATOM     13  O1  UNL     1      -3.538  -2.642  -0.845  0.00  0.00    -0.467 OA
ENDBRANCH  10  13
ENDBRANCH   7  10
ENDBRANCH   1   7
BRANCH   4  14
ATOM     14  N1  UNL     1       1.720   1.631   1.383  0.00  0.00    -0.312 N 
ATOM     15  H6  UNL     1       1.687   2.571   1.840  0.00  0.00    +0.152 HD
BRANCH  14  16
ATOM     16  C8  UNL     1       2.973   0.932   1.395  0.00  0.00    +0.071 A 
ATOM     17  C9  UNL     1       4.098   1.484   0.744  0.00  0.00    +0.050 A 
ATOM     18  C10 UNL     1       5.320   0.795   0.771  0.00  0.00    +0.063 A 
ATOM     19  C11 UNL     1       5.430  -0.426   1.439  0.00  0.00    +0.127 A 
ATOM     20  F1  UNL     1       6.616  -1.085   1.455  0.00  0.00    -0.205 F 
ATOM     21  C12 UNL     1       4.323  -0.967   2.094  0.00  0.00    +0.060 A 
ATOM     22  C13 UNL     1       3.097  -0.293   2.080  0.00  0.00    +0.067 A 
ATOM     23 CL1  UNL     1       1.740  -0.986   2.962  0.00  0.00    -0.081 Cl
BRANCH  17  24
ATOM     24  N2  UNL     1       4.006   2.726   0.035  0.00  0.00    -0.356 N 
ATOM     25  H7  UNL     1       4.845   3.131  -0.438  0.00  0.00    +0.142 HD
ATOM     26  H8  UNL     1       3.105   3.247  -0.045  0.00  0.00    +0.142 HD
ENDBRANCH  17  24
ENDBRANCH  14  16
ENDBRANCH   4  14
TORSDOF 6
