MODEL 1
REMARK VINA RESULT:    -6.364      0.000      0.000
REMARK INTER + INTRA:          -8.585
REMARK INTER:                  -7.853
REMARK INTRA:                  -0.733
REMARK UNBOUND:                -0.733
REMARK  Name = /home/qwerty/github/datacon2025hack/step_04_hit_selection/docking/ligands/lig_797.pdb
REMARK  7 active torsions:
REMARK  status: ('A' for Active; 'I' for Inactive)
REMARK    1  A    between atoms: C1_1  and  C2_2
REMARK    2  A    between atoms: C2_2  and  C3_3
REMARK    3  A    between atoms: C3_3  and  N1_4
REMARK    4  A    between atoms: C3_3  and  C15_19
REMARK    5  A    between atoms: C7_10  and  C8_11
REMARK    6  A    between atoms: C16_20  and  C17_21
REMARK    7  A    between atoms: C18_24  and  C19_25
REMARK                            x       y       z     vdW  Elec       q    Type
REMARK                         _______ _______ _______ _____ _____    ______ ____
ROOT
ATOM      1  N1  UNL     1      12.136  13.185  33.953  0.00  0.00    -0.292 N 
ATOM      2  C4  UNL     1      11.872  13.968  32.777  0.00  0.00    +0.303 C 
ATOM      3  O1  UNL     1      11.505  15.170  32.894  0.00  0.00    -0.253 OA
ATOM      4  N2  UNL     1      12.032  13.402  31.465  0.00  0.00    -0.285 N 
ATOM      5  C5  UNL     1      12.553  12.070  31.212  0.00  0.00    +0.110 C 
ATOM      6  C6  UNL     1      12.709  11.962  29.700  0.00  0.00    +0.029 C 
ATOM      7  C7  UNL     1      11.937  13.148  29.099  0.00  0.00    +0.038 C 
ATOM      8  C14 UNL     1      11.734  14.139  30.250  0.00  0.00    +0.117 C 
ATOM      9  H7  UNL     1      12.289  12.158  33.847  0.00  0.00    +0.151 HD
ENDROOT
BRANCH   7  10
ATOM     10  C8  UNL     1      10.619  12.704  28.484  0.00  0.00    -0.041 A 
ATOM     11  C9  UNL     1      10.359  11.343  28.223  0.00  0.00    +0.004 A 
ATOM     12  C10 UNL     1       9.147  10.953  27.646  0.00  0.00    +0.002 A 
ATOM     13  C11 UNL     1       8.185  11.911  27.319  0.00  0.00    +0.020 A 
ATOM     14  C12 UNL     1       8.433  13.263  27.568  0.00  0.00    +0.041 A 
ATOM     15 CL1  UNL     1       7.224  14.466  27.154  0.00  0.00    -0.084 Cl
ATOM     16  C13 UNL     1       9.644  13.660  28.146  0.00  0.00    +0.024 A 
ENDBRANCH   7  10
BRANCH   1  17
ATOM     17  C3  UNL     1      12.101  13.772  35.297  0.00  0.00    +0.110 C 
BRANCH  17  18
ATOM     18  C15 UNL     1      13.361  13.451  36.080  0.00  0.00    +0.037 A 
ATOM     19  C16 UNL     1      13.792  12.246  36.626  0.00  0.00    +0.086 A 
ATOM     20  C17 UNL     1      13.165  10.896  36.482  0.00  0.00    +0.069 C 
ATOM     21  N3  UNL     1      14.960  12.443  37.270  0.00  0.00    -0.083 NA
ATOM     22  O2  UNL     1      15.250  13.706  37.166  0.00  0.00    -0.359 OA
ATOM     23  C18 UNL     1      14.337  14.348  36.476  0.00  0.00    +0.139 A 
ATOM     24  C19 UNL     1      14.386  15.813  36.185  0.00  0.00    +0.089 C 
ENDBRANCH  17  18
BRANCH  17  26
ATOM     25  C1  UNL     1       9.649  14.342  35.909  0.00  0.00    +0.006 C 
ATOM     26  C2  UNL     1      10.823  13.371  36.067  0.00  0.00    +0.024 C 
ENDBRANCH  17  26
ENDBRANCH   1  17
TORSDOF 4
ENDMDL
MODEL 2
REMARK VINA RESULT:    -6.200      3.634      8.591
REMARK INTER + INTRA:          -8.383
REMARK INTER:                  -7.736
REMARK INTRA:                  -0.647
REMARK UNBOUND:                -0.733
REMARK  Name = /home/qwerty/github/datacon2025hack/step_04_hit_selection/docking/ligands/lig_797.pdb
REMARK  7 active torsions:
REMARK  status: ('A' for Active; 'I' for Inactive)
REMARK    1  A    between atoms: C1_1  and  C2_2
REMARK    2  A    between atoms: C2_2  and  C3_3
REMARK    3  A    between atoms: C3_3  and  N1_4
REMARK    4  A    between atoms: C3_3  and  C15_19
REMARK    5  A    between atoms: C7_10  and  C8_11
REMARK    6  A    between atoms: C16_20  and  C17_21
REMARK    7  A    between atoms: C18_24  and  C19_25
REMARK                            x       y       z     vdW  Elec       q    Type
REMARK                         _______ _______ _______ _____ _____    ______ ____
ROOT
ATOM      1  N1  UNL     1      11.023  12.869  31.509  0.00  0.00    -0.292 N 
ATOM      2  C4  UNL     1      11.299  13.663  32.675  0.00  0.00    +0.303 C 
ATOM      3  O1  UNL     1      11.329  14.921  32.584  0.00  0.00    -0.253 OA
ATOM      4  N2  UNL     1      11.530  13.040  33.950  0.00  0.00    -0.285 N 
ATOM      5  C5  UNL     1      11.411  11.612  34.191  0.00  0.00    +0.110 C 
ATOM      6  C6  UNL     1      11.571  11.427  35.696  0.00  0.00    +0.029 C 
ATOM      7  C7  UNL     1      12.124  12.755  36.239  0.00  0.00    +0.038 C 
ATOM      8  C14 UNL     1      11.857  13.796  35.146  0.00  0.00    +0.117 C 
ATOM      9  H7  UNL     1      11.150  11.835  31.564  0.00  0.00    +0.151 HD
ENDROOT
BRANCH   7  10
ATOM     10  C8  UNL     1      13.601  12.648  36.583  0.00  0.00    -0.041 A 
ATOM     11  C9  UNL     1      14.433  13.785  36.579  0.00  0.00    +0.004 A 
ATOM     12  C10 UNL     1      15.792  13.668  36.885  0.00  0.00    +0.002 A 
ATOM     13  C11 UNL     1      16.337  12.419  37.193  0.00  0.00    +0.020 A 
ATOM     14  C12 UNL     1      15.523  11.283  37.194  0.00  0.00    +0.041 A 
ATOM     15 CL1  UNL     1      16.209   9.715  37.577  0.00  0.00    -0.084 Cl
ATOM     16  C13 UNL     1      14.162  11.395  36.889  0.00  0.00    +0.024 A 
ENDBRANCH   7  10
BRANCH   1  17
ATOM     17  C3  UNL     1      10.660  13.481  30.225  0.00  0.00    +0.110 C 
BRANCH  17  18
ATOM     18  C15 UNL     1       9.753  12.577  29.411  0.00  0.00    +0.037 A 
ATOM     19  C16 UNL     1      10.052  11.423  28.693  0.00  0.00    +0.086 A 
ATOM     20  C17 UNL     1      11.355  10.693  28.628  0.00  0.00    +0.069 C 
ATOM     21  N3  UNL     1       8.932  10.971  28.093  0.00  0.00    -0.083 NA
ATOM     22  O2  UNL     1       7.975  11.801  28.388  0.00  0.00    -0.359 OA
ATOM     23  C18 UNL     1       8.406  12.769  29.160  0.00  0.00    +0.139 A 
ATOM     24  C19 UNL     1       7.545  13.879  29.669  0.00  0.00    +0.089 C 
ENDBRANCH  17  18
BRANCH  17  26
ATOM     25  C1  UNL     1      11.605  14.744  28.170  0.00  0.00    +0.006 C 
ATOM     26  C2  UNL     1      11.908  13.922  29.426  0.00  0.00    +0.024 C 
ENDBRANCH  17  26
ENDBRANCH   1  17
TORSDOF 4
ENDMDL
MODEL 3
REMARK VINA RESULT:    -6.145      6.393      9.580
REMARK INTER + INTRA:          -8.315
REMARK INTER:                  -7.575
REMARK INTRA:                  -0.740
REMARK UNBOUND:                -0.733
REMARK  Name = /home/qwerty/github/datacon2025hack/step_04_hit_selection/docking/ligands/lig_797.pdb
REMARK  7 active torsions:
REMARK  status: ('A' for Active; 'I' for Inactive)
REMARK    1  A    between atoms: C1_1  and  C2_2
REMARK    2  A    between atoms: C2_2  and  C3_3
REMARK    3  A    between atoms: C3_3  and  N1_4
REMARK    4  A    between atoms: C3_3  and  C15_19
REMARK    5  A    between atoms: C7_10  and  C8_11
REMARK    6  A    between atoms: C16_20  and  C17_21
REMARK    7  A    between atoms: C18_24  and  C19_25
REMARK                            x       y       z     vdW  Elec       q    Type
REMARK                         _______ _______ _______ _____ _____    ______ ____
ROOT
ATOM      1  N1  UNL     1       9.100  10.504  25.802  0.00  0.00    -0.292 N 
ATOM      2  C4  UNL     1       8.327  10.056  24.676  0.00  0.00    +0.303 C 
ATOM      3  O1  UNL     1       7.067  10.035  24.750  0.00  0.00    -0.253 OA
ATOM      4  N2  UNL     1       8.971   9.640  23.459  0.00  0.00    -0.285 N 
ATOM      5  C5  UNL     1      10.402   9.728  23.227  0.00  0.00    +0.110 C 
ATOM      6  C6  UNL     1      10.613   9.349  21.765  0.00  0.00    +0.029 C 
ATOM      7  C7  UNL     1       9.295   8.717  21.288  0.00  0.00    +0.038 C 
ATOM      8  C14 UNL     1       8.236   9.138  22.313  0.00  0.00    +0.117 C 
ATOM      9  H7  UNL     1      10.135  10.373  25.783  0.00  0.00    +0.151 HD
ENDROOT
BRANCH   7  10
ATOM     10  C8  UNL     1       9.410   7.205  21.168  0.00  0.00    -0.041 A 
ATOM     11  C9  UNL     1      10.364   6.613  20.316  0.00  0.00    +0.004 A 
ATOM     12  C10 UNL     1      10.449   5.222  20.209  0.00  0.00    +0.002 A 
ATOM     13  C11 UNL     1       9.583   4.408  20.942  0.00  0.00    +0.020 A 
ATOM     14  C12 UNL     1       8.629   4.983  21.785  0.00  0.00    +0.041 A 
ATOM     15 CL1  UNL     1       7.541   3.958  22.703  0.00  0.00    -0.084 Cl
ATOM     16  C13 UNL     1       8.541   6.375  21.898  0.00  0.00    +0.024 A 
ENDBRANCH   7  10
BRANCH   1  17
ATOM     17  C3  UNL     1       8.467  11.049  27.008  0.00  0.00    +0.110 C 
BRANCH  17  18
ATOM     18  C15 UNL     1       9.327  12.117  27.657  0.00  0.00    +0.037 A 
ATOM     19  C16 UNL     1      10.583  12.015  28.249  0.00  0.00    +0.086 A 
ATOM     20  C17 UNL     1      11.481  10.821  28.299  0.00  0.00    +0.069 C 
ATOM     21  N3  UNL     1      10.946  13.222  28.728  0.00  0.00    -0.083 NA
ATOM     22  O2  UNL     1       9.970  14.045  28.481  0.00  0.00    -0.359 OA
ATOM     23  C18 UNL     1       8.988  13.444  27.854  0.00  0.00    +0.139 A 
ATOM     24  C19 UNL     1       7.725  14.122  27.434  0.00  0.00    +0.089 C 
ENDBRANCH  17  18
BRANCH  17  26
ATOM     25  C1  UNL     1       7.439  10.436  29.305  0.00  0.00    +0.006 C 
ATOM     26  C2  UNL     1       8.073   9.936  28.004  0.00  0.00    +0.024 C 
ENDBRANCH  17  26
ENDBRANCH   1  17
TORSDOF 4
ENDMDL
MODEL 4
REMARK VINA RESULT:    -6.118     12.542     15.488
REMARK INTER + INTRA:          -8.281
REMARK INTER:                  -7.507
REMARK INTRA:                  -0.774
REMARK UNBOUND:                -0.733
REMARK  Name = /home/qwerty/github/datacon2025hack/step_04_hit_selection/docking/ligands/lig_797.pdb
REMARK  7 active torsions:
REMARK  status: ('A' for Active; 'I' for Inactive)
REMARK    1  A    between atoms: C1_1  and  C2_2
REMARK    2  A    between atoms: C2_2  and  C3_3
REMARK    3  A    between atoms: C3_3  and  N1_4
REMARK    4  A    between atoms: C3_3  and  C15_19
REMARK    5  A    between atoms: C7_10  and  C8_11
REMARK    6  A    between atoms: C16_20  and  C17_21
REMARK    7  A    between atoms: C18_24  and  C19_25
REMARK                            x       y       z     vdW  Elec       q    Type
REMARK                         _______ _______ _______ _____ _____    ______ ____
ROOT
ATOM      1  N1  UNL     1      20.859   2.619  31.546  0.00  0.00    -0.292 N 
ATOM      2  C4  UNL     1      21.957   3.408  32.033  0.00  0.00    +0.303 C 
ATOM      3  O1  UNL     1      23.126   2.934  32.013  0.00  0.00    -0.253 OA
ATOM      4  N2  UNL     1      21.742   4.740  32.532  0.00  0.00    -0.285 N 
ATOM      5  C5  UNL     1      20.461   5.424  32.498  0.00  0.00    +0.110 C 
ATOM      6  C6  UNL     1      20.735   6.849  32.962  0.00  0.00    +0.029 C 
ATOM      7  C7  UNL     1      22.142   6.840  33.581  0.00  0.00    +0.038 C 
ATOM      8  C14 UNL     1      22.812   5.558  33.075  0.00  0.00    +0.117 C 
ATOM      9  H7  UNL     1      19.886   2.961  31.707  0.00  0.00    +0.151 HD
ENDROOT
BRANCH   7  10
ATOM     10  C8  UNL     1      22.086   6.898  35.100  0.00  0.00    -0.041 A 
ATOM     11  C9  UNL     1      23.220   6.598  35.882  0.00  0.00    +0.004 A 
ATOM     12  C10 UNL     1      23.149   6.644  37.277  0.00  0.00    +0.002 A 
ATOM     13  C11 UNL     1      21.950   6.984  37.907  0.00  0.00    +0.020 A 
ATOM     14  C12 UNL     1      20.818   7.278  37.143  0.00  0.00    +0.041 A 
ATOM     15 CL1  UNL     1      19.312   7.702  37.937  0.00  0.00    -0.084 Cl
ATOM     16  C13 UNL     1      20.883   7.235  35.746  0.00  0.00    +0.024 A 
ENDBRANCH   7  10
BRANCH   1  17
ATOM     17  C3  UNL     1      21.066   1.310  30.918  0.00  0.00    +0.110 C 
BRANCH  17  18
ATOM     18  C15 UNL     1      21.094   1.414  29.404  0.00  0.00    +0.037 A 
ATOM     19  C16 UNL     1      20.051   1.587  28.500  0.00  0.00    +0.086 A 
ATOM     20  C17 UNL     1      18.607   1.835  28.800  0.00  0.00    +0.069 C 
ATOM     21  N3  UNL     1      20.546   1.586  27.246  0.00  0.00    -0.083 NA
ATOM     22  O2  UNL     1      21.829   1.398  27.337  0.00  0.00    -0.359 OA
ATOM     23  C18 UNL     1      22.205   1.286  28.589  0.00  0.00    +0.139 A 
ATOM     24  C19 UNL     1      23.618   1.061  29.021  0.00  0.00    +0.089 C 
ENDBRANCH  17  18
BRANCH  17  26
ATOM     25  C1  UNL     1      19.301   0.651  32.696  0.00  0.00    +0.006 C 
ATOM     26  C2  UNL     1      20.035   0.268  31.408  0.00  0.00    +0.024 C 
ENDBRANCH  17  26
ENDBRANCH   1  17
TORSDOF 4
ENDMDL
MODEL 5
REMARK VINA RESULT:    -6.040     14.385     15.975
REMARK INTER + INTRA:          -8.185
REMARK INTER:                  -7.338
REMARK INTRA:                  -0.847
REMARK UNBOUND:                -0.733
REMARK  Name = /home/qwerty/github/datacon2025hack/step_04_hit_selection/docking/ligands/lig_797.pdb
REMARK  7 active torsions:
REMARK  status: ('A' for Active; 'I' for Inactive)
REMARK    1  A    between atoms: C1_1  and  C2_2
REMARK    2  A    between atoms: C2_2  and  C3_3
REMARK    3  A    between atoms: C3_3  and  N1_4
REMARK    4  A    between atoms: C3_3  and  C15_19
REMARK    5  A    between atoms: C7_10  and  C8_11
REMARK    6  A    between atoms: C16_20  and  C17_21
REMARK    7  A    between atoms: C18_24  and  C19_25
REMARK                            x       y       z     vdW  Elec       q    Type
REMARK                         _______ _______ _______ _____ _____    ______ ____
ROOT
ATOM      1  N1  UNL     1      18.848   1.746  26.891  0.00  0.00    -0.292 N 
ATOM      2  C4  UNL     1      18.897   0.643  25.970  0.00  0.00    +0.303 C 
ATOM      3  O1  UNL     1      20.002   0.093  25.709  0.00  0.00    -0.253 OA
ATOM      4  N2  UNL     1      17.697   0.149  25.350  0.00  0.00    -0.285 N 
ATOM      5  C5  UNL     1      16.363   0.632  25.661  0.00  0.00    +0.110 C 
ATOM      6  C6  UNL     1      15.401  -0.281  24.909  0.00  0.00    +0.029 C 
ATOM      7  C7  UNL     1      16.253  -1.070  23.900  0.00  0.00    +0.038 C 
ATOM      8  C14 UNL     1      17.702  -0.933  24.381  0.00  0.00    +0.117 C 
ATOM      9  H7  UNL     1      17.959   2.285  26.980  0.00  0.00    +0.151 HD
ENDROOT
BRANCH   7  10
ATOM     10  C8  UNL     1      16.066  -0.551  22.483  0.00  0.00    -0.041 A 
ATOM     11  C9  UNL     1      15.259   0.574  22.221  0.00  0.00    +0.004 A 
ATOM     12  C10 UNL     1      15.088   1.032  20.911  0.00  0.00    +0.002 A 
ATOM     13  C11 UNL     1      15.712   0.371  19.850  0.00  0.00    +0.020 A 
ATOM     14  C12 UNL     1      16.510  -0.749  20.097  0.00  0.00    +0.041 A 
ATOM     15 CL1  UNL     1      17.291  -1.578  18.763  0.00  0.00    -0.084 Cl
ATOM     16  C13 UNL     1      16.686  -1.210  21.407  0.00  0.00    +0.024 A 
ENDBRANCH   7  10
BRANCH   1  17
ATOM     17  C3  UNL     1      20.035   2.188  27.631  0.00  0.00    +0.110 C 
BRANCH  17  18
ATOM     18  C15 UNL     1      20.172   1.461  28.956  0.00  0.00    +0.037 A 
ATOM     19  C16 UNL     1      19.340   1.472  30.071  0.00  0.00    +0.086 A 
ATOM     20  C17 UNL     1      18.005   2.129  30.215  0.00  0.00    +0.069 C 
ATOM     21  N3  UNL     1      19.881   0.700  31.035  0.00  0.00    -0.083 NA
ATOM     22  O2  UNL     1      21.007   0.240  30.575  0.00  0.00    -0.359 OA
ATOM     23  C18 UNL     1      21.229   0.662  29.353  0.00  0.00    +0.139 A 
ATOM     24  C19 UNL     1      22.441   0.309  28.554  0.00  0.00    +0.089 C 
ENDBRANCH  17  18
BRANCH  17  26
ATOM     25  C1  UNL     1      21.413   4.292  28.255  0.00  0.00    +0.006 C 
ATOM     26  C2  UNL     1      20.063   3.724  27.807  0.00  0.00    +0.024 C 
ENDBRANCH  17  26
ENDBRANCH   1  17
TORSDOF 4
ENDMDL
MODEL 6
REMARK VINA RESULT:    -6.032      7.630     12.281
REMARK INTER + INTRA:          -8.175
REMARK INTER:                  -7.574
REMARK INTRA:                  -0.601
REMARK UNBOUND:                -0.733
REMARK  Name = /home/qwerty/github/datacon2025hack/step_04_hit_selection/docking/ligands/lig_797.pdb
REMARK  7 active torsions:
REMARK  status: ('A' for Active; 'I' for Inactive)
REMARK    1  A    between atoms: C1_1  and  C2_2
REMARK    2  A    between atoms: C2_2  and  C3_3
REMARK    3  A    between atoms: C3_3  and  N1_4
REMARK    4  A    between atoms: C3_3  and  C15_19
REMARK    5  A    between atoms: C7_10  and  C8_11
REMARK    6  A    between atoms: C16_20  and  C17_21
REMARK    7  A    between atoms: C18_24  and  C19_25
REMARK                            x       y       z     vdW  Elec       q    Type
REMARK                         _______ _______ _______ _____ _____    ______ ____
ROOT
ATOM      1  N1  UNL     1       9.687   8.608  22.670  0.00  0.00    -0.292 N 
ATOM      2  C4  UNL     1       8.660   9.080  23.559  0.00  0.00    +0.303 C 
ATOM      3  O1  UNL     1       7.525   9.382  23.100  0.00  0.00    -0.253 OA
ATOM      4  N2  UNL     1       8.908   9.201  24.971  0.00  0.00    -0.285 N 
ATOM      5  C5  UNL     1      10.137   8.777  25.619  0.00  0.00    +0.110 C 
ATOM      6  C6  UNL     1       9.894   8.929  27.117  0.00  0.00    +0.029 C 
ATOM      7  C7  UNL     1       8.617   9.773  27.264  0.00  0.00    +0.038 C 
ATOM      8  C14 UNL     1       7.919   9.714  25.901  0.00  0.00    +0.117 C 
ATOM      9  H7  UNL     1      10.659   8.507  23.036  0.00  0.00    +0.151 HD
ENDROOT
BRANCH   7  10
ATOM     10  C8  UNL     1       8.934  11.199  27.687  0.00  0.00    -0.041 A 
ATOM     11  C9  UNL     1      10.138  11.822  27.301  0.00  0.00    +0.004 A 
ATOM     12  C10 UNL     1      10.420  13.129  27.707  0.00  0.00    +0.002 A 
ATOM     13  C11 UNL     1       9.510  13.827  28.505  0.00  0.00    +0.020 A 
ATOM     14  C12 UNL     1       8.316  13.218  28.898  0.00  0.00    +0.041 A 
ATOM     15 CL1  UNL     1       7.176  14.096  29.903  0.00  0.00    -0.084 Cl
ATOM     16  C13 UNL     1       8.028  11.910  28.494  0.00  0.00    +0.024 A 
ENDBRANCH   7  10
BRANCH   1  17
ATOM     17  C3  UNL     1       9.424   8.357  21.249  0.00  0.00    +0.110 C 
BRANCH  17  18
ATOM     18  C15 UNL     1       9.476   6.876  20.923  0.00  0.00    +0.037 A 
ATOM     19  C16 UNL     1      10.569   6.059  20.650  0.00  0.00    +0.086 A 
ATOM     20  C17 UNL     1      12.020   6.412  20.719  0.00  0.00    +0.069 C 
ATOM     21  N3  UNL     1      10.133   4.812  20.379  0.00  0.00    -0.083 NA
ATOM     22  O2  UNL     1       8.835   4.832  20.450  0.00  0.00    -0.359 OA
ATOM     23  C18 UNL     1       8.395   6.027  20.764  0.00  0.00    +0.139 A 
ATOM     24  C19 UNL     1       6.949   6.372  20.920  0.00  0.00    +0.089 C 
ENDBRANCH  17  18
BRANCH  17  26
ATOM     25  C1  UNL     1      11.327  10.107  21.081  0.00  0.00    +0.006 C 
ATOM     26  C2  UNL     1      10.357   9.184  20.337  0.00  0.00    +0.024 C 
ENDBRANCH  17  26
ENDBRANCH   1  17
TORSDOF 4
ENDMDL
MODEL 7
REMARK VINA RESULT:    -6.011     14.972     17.548
REMARK INTER + INTRA:          -8.150
REMARK INTER:                  -7.445
REMARK INTRA:                  -0.705
REMARK UNBOUND:                -0.733
REMARK  Name = /home/qwerty/github/datacon2025hack/step_04_hit_selection/docking/ligands/lig_797.pdb
REMARK  7 active torsions:
REMARK  status: ('A' for Active; 'I' for Inactive)
REMARK    1  A    between atoms: C1_1  and  C2_2
REMARK    2  A    between atoms: C2_2  and  C3_3
REMARK    3  A    between atoms: C3_3  and  N1_4
REMARK    4  A    between atoms: C3_3  and  C15_19
REMARK    5  A    between atoms: C7_10  and  C8_11
REMARK    6  A    between atoms: C16_20  and  C17_21
REMARK    7  A    between atoms: C18_24  and  C19_25
REMARK                            x       y       z     vdW  Elec       q    Type
REMARK                         _______ _______ _______ _____ _____    ______ ____
ROOT
ATOM      1  N1  UNL     1      16.612   0.099  25.629  0.00  0.00    -0.292 N 
ATOM      2  C4  UNL     1      18.040   0.133  25.469  0.00  0.00    +0.303 C 
ATOM      3  O1  UNL     1      18.626  -0.809  24.868  0.00  0.00    -0.253 OA
ATOM      4  N2  UNL     1      18.811   1.236  25.977  0.00  0.00    -0.285 N 
ATOM      5  C5  UNL     1      18.232   2.421  26.584  0.00  0.00    +0.110 C 
ATOM      6  C6  UNL     1      19.391   3.385  26.811  0.00  0.00    +0.029 C 
ATOM      7  C7  UNL     1      20.679   2.564  26.627  0.00  0.00    +0.038 C 
ATOM      8  C14 UNL     1      20.259   1.293  25.880  0.00  0.00    +0.117 C 
ATOM      9  H7  UNL     1      16.161   0.802  26.255  0.00  0.00    +0.151 HD
ENDROOT
BRANCH   7  10
ATOM     10  C8  UNL     1      21.341   2.255  27.960  0.00  0.00    -0.041 A 
ATOM     11  C9  UNL     1      20.791   2.720  29.171  0.00  0.00    +0.004 A 
ATOM     12  C10 UNL     1      21.419   2.437  30.388  0.00  0.00    +0.002 A 
ATOM     13  C11 UNL     1      22.602   1.695  30.411  0.00  0.00    +0.020 A 
ATOM     14  C12 UNL     1      23.160   1.234  29.216  0.00  0.00    +0.041 A 
ATOM     15 CL1  UNL     1      24.648   0.305  29.247  0.00  0.00    -0.084 Cl
ATOM     16  C13 UNL     1      22.535   1.513  27.995  0.00  0.00    +0.024 A 
ENDBRANCH   7  10
BRANCH   1  17
ATOM     17  C3  UNL     1      15.790  -0.948  25.014  0.00  0.00    +0.110 C 
BRANCH  17  18
ATOM     18  C15 UNL     1      14.951  -0.403  23.873  0.00  0.00    +0.037 A 
ATOM     19  C16 UNL     1      13.734   0.271  23.901  0.00  0.00    +0.086 A 
ATOM     20  C17 UNL     1      12.974   0.745  25.098  0.00  0.00    +0.069 C 
ATOM     21  N3  UNL     1      13.343   0.533  22.638  0.00  0.00    -0.083 NA
ATOM     22  O2  UNL     1      14.243   0.034  21.843  0.00  0.00    -0.359 OA
ATOM     23  C18 UNL     1      15.213  -0.534  22.520  0.00  0.00    +0.139 A 
ATOM     24  C19 UNL     1      16.393  -1.199  21.892  0.00  0.00    +0.089 C 
ENDBRANCH  17  18
BRANCH  17  26
ATOM     25  C1  UNL     1      14.346  -3.024  25.578  0.00  0.00    +0.006 C 
ATOM     26  C2  UNL     1      14.931  -1.694  26.060  0.00  0.00    +0.024 C 
ENDBRANCH  17  26
ENDBRANCH   1  17
TORSDOF 4
ENDMDL
MODEL 8
REMARK VINA RESULT:    -5.823     12.312     14.972
REMARK INTER + INTRA:          -7.917
REMARK INTER:                  -7.214
REMARK INTRA:                  -0.703
REMARK UNBOUND:                -0.733
REMARK  Name = /home/qwerty/github/datacon2025hack/step_04_hit_selection/docking/ligands/lig_797.pdb
REMARK  7 active torsions:
REMARK  status: ('A' for Active; 'I' for Inactive)
REMARK    1  A    between atoms: C1_1  and  C2_2
REMARK    2  A    between atoms: C2_2  and  C3_3
REMARK    3  A    between atoms: C3_3  and  N1_4
REMARK    4  A    between atoms: C3_3  and  C15_19
REMARK    5  A    between atoms: C7_10  and  C8_11
REMARK    6  A    between atoms: C16_20  and  C17_21
REMARK    7  A    between atoms: C18_24  and  C19_25
REMARK                            x       y       z     vdW  Elec       q    Type
REMARK                         _______ _______ _______ _____ _____    ______ ____
ROOT
ATOM      1  N1  UNL     1      21.354   3.543  30.755  0.00  0.00    -0.292 N 
ATOM      2  C4  UNL     1      22.228   4.061  31.772  0.00  0.00    +0.303 C 
ATOM      3  O1  UNL     1      22.721   3.280  32.631  0.00  0.00    -0.253 OA
ATOM      4  N2  UNL     1      22.560   5.459  31.815  0.00  0.00    -0.285 N 
ATOM      5  C5  UNL     1      22.140   6.425  30.814  0.00  0.00    +0.110 C 
ATOM      6  C6  UNL     1      22.854   7.726  31.163  0.00  0.00    +0.029 C 
ATOM      7  C7  UNL     1      23.412   7.546  32.584  0.00  0.00    +0.038 C 
ATOM      8  C14 UNL     1      23.402   6.036  32.848  0.00  0.00    +0.117 C 
ATOM      9  H7  UNL     1      20.837   4.217  30.148  0.00  0.00    +0.151 HD
ENDROOT
BRANCH   7  10
ATOM     10  C8  UNL     1      22.593   8.314  33.610  0.00  0.00    -0.041 A 
ATOM     11  C9  UNL     1      22.580   7.930  34.966  0.00  0.00    +0.004 A 
ATOM     12  C10 UNL     1      21.812   8.639  35.894  0.00  0.00    +0.002 A 
ATOM     13  C11 UNL     1      21.047   9.733  35.482  0.00  0.00    +0.020 A 
ATOM     14  C12 UNL     1      21.048  10.120  34.139  0.00  0.00    +0.041 A 
ATOM     15 CL1  UNL     1      20.084  11.492  33.623  0.00  0.00    -0.084 Cl
ATOM     16  C13 UNL     1      21.815   9.414  33.206  0.00  0.00    +0.024 A 
ENDBRANCH   7  10
BRANCH   1  17
ATOM     17  C3  UNL     1      21.099   2.105  30.613  0.00  0.00    +0.110 C 
BRANCH  17  18
ATOM     18  C15 UNL     1      20.967   1.702  29.156  0.00  0.00    +0.037 A 
ATOM     19  C16 UNL     1      20.114   2.186  28.169  0.00  0.00    +0.086 A 
ATOM     20  C17 UNL     1      19.161   3.335  28.259  0.00  0.00    +0.069 C 
ATOM     21  N3  UNL     1      20.326   1.503  27.026  0.00  0.00    -0.083 NA
ATOM     22  O2  UNL     1      21.243   0.615  27.271  0.00  0.00    -0.359 OA
ATOM     23  C18 UNL     1      21.654   0.686  28.515  0.00  0.00    +0.139 A 
ATOM     24  C19 UNL     1      22.701  -0.203  29.103  0.00  0.00    +0.089 C 
ENDBRANCH  17  18
BRANCH  17  26
ATOM     25  C1  UNL     1      20.140   0.430  32.340  0.00  0.00    +0.006 C 
ATOM     26  C2  UNL     1      19.884   1.651  31.452  0.00  0.00    +0.024 C 
ENDBRANCH  17  26
ENDBRANCH   1  17
TORSDOF 4
ENDMDL
MODEL 9
REMARK VINA RESULT:    -5.696     11.851     13.624
REMARK INTER + INTRA:          -7.761
REMARK INTER:                  -6.898
REMARK INTRA:                  -0.862
REMARK UNBOUND:                -0.733
REMARK  Name = /home/qwerty/github/datacon2025hack/step_04_hit_selection/docking/ligands/lig_797.pdb
REMARK  7 active torsions:
REMARK  status: ('A' for Active; 'I' for Inactive)
REMARK    1  A    between atoms: C1_1  and  C2_2
REMARK    2  A    between atoms: C2_2  and  C3_3
REMARK    3  A    between atoms: C3_3  and  N1_4
REMARK    4  A    between atoms: C3_3  and  C15_19
REMARK    5  A    between atoms: C7_10  and  C8_11
REMARK    6  A    between atoms: C16_20  and  C17_21
REMARK    7  A    between atoms: C18_24  and  C19_25
REMARK                            x       y       z     vdW  Elec       q    Type
REMARK                         _______ _______ _______ _____ _____    ______ ____
ROOT
ATOM      1  N1  UNL     1      21.978   6.558  33.213  0.00  0.00    -0.292 N 
ATOM      2  C4  UNL     1      21.910   5.126  33.314  0.00  0.00    +0.303 C 
ATOM      3  O1  UNL     1      22.633   4.522  34.153  0.00  0.00    -0.253 OA
ATOM      4  N2  UNL     1      21.019   4.371  32.475  0.00  0.00    -0.285 N 
ATOM      5  C5  UNL     1      20.066   4.969  31.556  0.00  0.00    +0.110 C 
ATOM      6  C6  UNL     1      19.225   3.818  31.017  0.00  0.00    +0.029 C 
ATOM      7  C7  UNL     1      19.964   2.525  31.402  0.00  0.00    +0.038 C 
ATOM      8  C14 UNL     1      20.948   2.921  32.509  0.00  0.00    +0.117 C 
ATOM      9  H7  UNL     1      21.493   7.029  32.418  0.00  0.00    +0.151 HD
ENDROOT
BRANCH   7  10
ATOM     10  C8  UNL     1      20.666   1.903  30.205  0.00  0.00    -0.041 A 
ATOM     11  C9  UNL     1      19.957   1.589  29.028  0.00  0.00    +0.004 A 
ATOM     12  C10 UNL     1      20.614   1.007  27.940  0.00  0.00    +0.002 A 
ATOM     13  C11 UNL     1      21.980   0.726  28.015  0.00  0.00    +0.020 A 
ATOM     14  C12 UNL     1      22.693   1.028  29.179  0.00  0.00    +0.041 A 
ATOM     15 CL1  UNL     1      24.408   0.672  29.271  0.00  0.00    -0.084 Cl
ATOM     16  C13 UNL     1      22.040   1.612  30.270  0.00  0.00    +0.024 A 
ENDBRANCH   7  10
BRANCH   1  17
ATOM     17  C3  UNL     1      22.785   7.362  34.139  0.00  0.00    +0.110 C 
BRANCH  17  18
ATOM     18  C15 UNL     1      21.974   7.814  35.340  0.00  0.00    +0.037 A 
ATOM     19  C16 UNL     1      20.901   8.696  35.412  0.00  0.00    +0.086 A 
ATOM     20  C17 UNL     1      20.177   9.358  34.284  0.00  0.00    +0.069 C 
ATOM     21  N3  UNL     1      20.519   8.824  36.699  0.00  0.00    -0.083 NA
ATOM     22  O2  UNL     1      21.316   8.086  37.414  0.00  0.00    -0.359 OA
ATOM     23  C18 UNL     1      22.197   7.471  36.662  0.00  0.00    +0.139 A 
ATOM     24  C19 UNL     1      23.250   6.552  37.188  0.00  0.00    +0.089 C 
ENDBRANCH  17  18
BRANCH  17  26
ATOM     25  C1  UNL     1      23.313   8.554  31.900  0.00  0.00    +0.006 C 
ATOM     26  C2  UNL     1      23.471   8.547  33.423  0.00  0.00    +0.024 C 
ENDBRANCH  17  26
ENDBRANCH   1  17
TORSDOF 4
ENDMDL
