MODEL 1
REMARK VINA RESULT:    -7.040      0.000      0.000
REMARK INTER + INTRA:         -10.634
REMARK INTER:                  -9.509
REMARK INTRA:                  -1.125
REMARK UNBOUND:                -1.125
REMARK  Name = /home/qwerty/github/datacon2025hack/step_04_hit_selection/docking/ligands/lig_528.pdb
REMARK  10 active torsions:
REMARK  status: ('A' for Active; 'I' for Inactive)
REMARK    1  A    between atoms: C1_1  and  C2_2
REMARK    2  A    between atoms: N2_4  and  C3_5
REMARK    3  A    between atoms: C4_6  and  C5_7
REMARK    4  A    between atoms: C6_8  and  S1_9
REMARK    5  A    between atoms: S1_9  and  N3_12
REMARK    6  A    between atoms: N3_12  and  C7_13
REMARK    7  A    between atoms: C7_13  and  C8_14
REMARK    8  A    between atoms: C7_13  and  C9_15
REMARK    9  A    between atoms: N4_17  and  C10_18
REMARK   10  A    between atoms: C14_23  and  C15_24
REMARK                            x       y       z     vdW  Elec       q    Type
REMARK                         _______ _______ _______ _____ _____    ______ ____
ROOT
ATOM      1  C9  UNL     1      14.777  13.646  35.793  0.00  0.00    +0.236 C 
ATOM      2  O3  UNL     1      15.173  13.279  34.654  0.00  0.00    -0.274 OA
ATOM      3  N4  UNL     1      15.261  12.996  36.981  0.00  0.00    -0.284 N 
ATOM      4  H15 UNL     1      15.069  13.452  37.898  0.00  0.00    +0.155 HD
ENDROOT
BRANCH   3   5
ATOM      5  C10 UNL     1      16.069  11.805  36.984  0.00  0.00    +0.034 A 
ATOM      6  C11 UNL     1      15.441  10.550  37.185  0.00  0.00    +0.025 A 
ATOM      7  C12 UNL     1      16.191   9.360  37.187  0.00  0.00    +0.028 A 
ATOM      8  C13 UNL     1      17.565   9.455  36.971  0.00  0.00    +0.047 A 
ATOM      9  N5  UNL     1      18.456   8.451  36.937  0.00  0.00    -0.354 N 
ATOM     10  C14 UNL     1      19.657   9.032  36.692  0.00  0.00    +0.047 A 
ATOM     11  C21 UNL     1      19.517  10.417  36.563  0.00  0.00    +0.036 A 
ATOM     12  C22 UNL     1      18.175  10.660  36.750  0.00  0.00    +0.002 A 
ATOM     13  C23 UNL     1      17.462  11.856  36.739  0.00  0.00    +0.033 A 
ATOM     14  H18 UNL     1      18.247   7.435  37.058  0.00  0.00    +0.166 HD
BRANCH  10  15
ATOM     15  C15 UNL     1      20.936   8.287  36.600  0.00  0.00    -0.002 A 
ATOM     16  C16 UNL     1      21.781   8.449  35.486  0.00  0.00    +0.010 A 
ATOM     17  C17 UNL     1      22.996   7.760  35.411  0.00  0.00    +0.001 A 
ATOM     18  C18 UNL     1      23.381   6.905  36.446  0.00  0.00    +0.000 A 
ATOM     19  C19 UNL     1      22.550   6.733  37.556  0.00  0.00    +0.001 A 
ATOM     20  C20 UNL     1      21.333   7.417  37.634  0.00  0.00    +0.010 A 
ENDBRANCH  10  15
ENDBRANCH   3   5
BRANCH   1  21
ATOM     21  C7  UNL     1      13.745  14.746  35.909  0.00  0.00    +0.159 C 
ATOM     22  C8  UNL     1      14.404  16.085  36.243  0.00  0.00    +0.035 C 
BRANCH  21  23
ATOM     23  N3  UNL     1      12.977  14.883  34.655  0.00  0.00    -0.178 NA
ATOM     24  H10 UNL     1      13.502  14.498  33.838  0.00  0.00    +0.149 HD
BRANCH  23  25
ATOM     25  S1  UNL     1      11.470  14.019  34.738  0.00  0.00    +0.063 S 
ATOM     26  O1  UNL     1      10.578  14.456  33.610  0.00  0.00    -0.153 OA
ATOM     27  O2  UNL     1      10.789  14.346  36.038  0.00  0.00    -0.153 OA
BRANCH  25  35
ATOM     28  C1  UNL     1      12.223  12.119  32.077  0.00  0.00    +0.069 C 
ATOM     29  C2  UNL     1      12.057  11.568  33.456  0.00  0.00    +0.086 A 
ATOM     30  N1  UNL     1      12.315  10.283  33.772  0.00  0.00    -0.174 NA
ATOM     31  N2  UNL     1      12.170  10.156  35.082  0.00  0.00    -0.269 N 
ATOM     32  C3  UNL     1      12.384   8.899  35.789  0.00  0.00    +0.172 C 
ATOM     33  C4  UNL     1      11.834  11.347  35.627  0.00  0.00    +0.062 A 
ATOM     34  C5  UNL     1      11.624  11.607  37.091  0.00  0.00    +0.067 C 
ATOM     35  C6  UNL     1      11.757  12.281  34.606  0.00  0.00    +0.148 A 
ENDBRANCH  25  35
ENDBRANCH  23  25
ENDBRANCH  21  23
ENDBRANCH   1  21
TORSDOF 6
ENDMDL
MODEL 2
REMARK VINA RESULT:    -7.015      1.864      3.010
REMARK INTER + INTRA:         -10.601
REMARK INTER:                 -10.042
REMARK INTRA:                  -0.559
REMARK UNBOUND:                -1.125
REMARK  Name = /home/qwerty/github/datacon2025hack/step_04_hit_selection/docking/ligands/lig_528.pdb
REMARK  10 active torsions:
REMARK  status: ('A' for Active; 'I' for Inactive)
REMARK    1  A    between atoms: C1_1  and  C2_2
REMARK    2  A    between atoms: N2_4  and  C3_5
REMARK    3  A    between atoms: C4_6  and  C5_7
REMARK    4  A    between atoms: C6_8  and  S1_9
REMARK    5  A    between atoms: S1_9  and  N3_12
REMARK    6  A    between atoms: N3_12  and  C7_13
REMARK    7  A    between atoms: C7_13  and  C8_14
REMARK    8  A    between atoms: C7_13  and  C9_15
REMARK    9  A    between atoms: N4_17  and  C10_18
REMARK   10  A    between atoms: C14_23  and  C15_24
REMARK                            x       y       z     vdW  Elec       q    Type
REMARK                         _______ _______ _______ _____ _____    ______ ____
ROOT
ATOM      1  C9  UNL     1      15.450  13.974  35.296  0.00  0.00    +0.236 C 
ATOM      2  O3  UNL     1      15.131  13.191  34.361  0.00  0.00    -0.274 OA
ATOM      3  N4  UNL     1      16.821  14.095  35.714  0.00  0.00    -0.284 N 
ATOM      4  H15 UNL     1      17.070  14.889  36.343  0.00  0.00    +0.155 HD
ENDROOT
BRANCH   3   5
ATOM      5  C10 UNL     1      17.889  13.250  35.252  0.00  0.00    +0.034 A 
ATOM      6  C11 UNL     1      18.513  13.544  34.014  0.00  0.00    +0.025 A 
ATOM      7  C12 UNL     1      19.568  12.749  33.529  0.00  0.00    +0.028 A 
ATOM      8  C13 UNL     1      19.986  11.675  34.312  0.00  0.00    +0.047 A 
ATOM      9  N5  UNL     1      20.963  10.796  34.035  0.00  0.00    -0.354 N 
ATOM     10  C14 UNL     1      21.004   9.945  35.089  0.00  0.00    +0.047 A 
ATOM     11  C21 UNL     1      20.045  10.296  36.044  0.00  0.00    +0.036 A 
ATOM     12  C22 UNL     1      19.407  11.398  35.520  0.00  0.00    +0.002 A 
ATOM     13  C23 UNL     1      18.364  12.167  36.031  0.00  0.00    +0.033 A 
ATOM     14  H18 UNL     1      21.571  10.796  33.185  0.00  0.00    +0.166 HD
BRANCH  10  15
ATOM     15  C15 UNL     1      21.929   8.790  35.189  0.00  0.00    -0.002 A 
ATOM     16  C16 UNL     1      21.966   8.000  36.353  0.00  0.00    +0.010 A 
ATOM     17  C17 UNL     1      22.827   6.900  36.436  0.00  0.00    +0.001 A 
ATOM     18  C18 UNL     1      23.656   6.576  35.360  0.00  0.00    +0.000 A 
ATOM     19  C19 UNL     1      23.631   7.354  34.200  0.00  0.00    +0.001 A 
ATOM     20  C20 UNL     1      22.775   8.457  34.113  0.00  0.00    +0.010 A 
ENDBRANCH  10  15
ENDBRANCH   3   5
BRANCH   1  21
ATOM     21  C7  UNL     1      14.375  14.754  36.019  0.00  0.00    +0.159 C 
ATOM     22  C8  UNL     1      14.893  16.123  36.463  0.00  0.00    +0.035 C 
BRANCH  21  23
ATOM     23  N3  UNL     1      13.189  14.940  35.159  0.00  0.00    -0.178 NA
ATOM     24  H10 UNL     1      13.431  14.849  34.147  0.00  0.00    +0.149 HD
BRANCH  23  25
ATOM     25  S1  UNL     1      11.969  13.746  35.495  0.00  0.00    +0.063 S 
ATOM     26  O1  UNL     1      10.684  14.433  35.863  0.00  0.00    -0.153 OA
ATOM     27  O2  UNL     1      12.413  12.909  36.662  0.00  0.00    -0.153 OA
BRANCH  25  35
ATOM     28  C1  UNL     1      11.259  10.477  35.233  0.00  0.00    +0.069 C 
ATOM     29  C2  UNL     1      11.415  11.379  34.052  0.00  0.00    +0.086 A 
ATOM     30  N1  UNL     1      11.166  10.986  32.787  0.00  0.00    -0.174 NA
ATOM     31  N2  UNL     1      11.299  12.046  32.004  0.00  0.00    -0.269 N 
ATOM     32  C3  UNL     1      11.089  12.003  30.562  0.00  0.00    +0.172 C 
ATOM     33  C4  UNL     1      11.619  13.130  32.746  0.00  0.00    +0.062 A 
ATOM     34  C5  UNL     1      11.812  14.522  32.217  0.00  0.00    +0.067 C 
ATOM     35  C6  UNL     1      11.698  12.736  34.072  0.00  0.00    +0.148 A 
ENDBRANCH  25  35
ENDBRANCH  23  25
ENDBRANCH  21  23
ENDBRANCH   1  21
TORSDOF 6
ENDMDL
MODEL 3
REMARK VINA RESULT:    -6.752     14.864     18.715
REMARK INTER + INTRA:         -10.245
REMARK INTER:                  -9.611
REMARK INTRA:                  -0.634
REMARK UNBOUND:                -1.125
REMARK  Name = /home/qwerty/github/datacon2025hack/step_04_hit_selection/docking/ligands/lig_528.pdb
REMARK  10 active torsions:
REMARK  status: ('A' for Active; 'I' for Inactive)
REMARK    1  A    between atoms: C1_1  and  C2_2
REMARK    2  A    between atoms: N2_4  and  C3_5
REMARK    3  A    between atoms: C4_6  and  C5_7
REMARK    4  A    between atoms: C6_8  and  S1_9
REMARK    5  A    between atoms: S1_9  and  N3_12
REMARK    6  A    between atoms: N3_12  and  C7_13
REMARK    7  A    between atoms: C7_13  and  C8_14
REMARK    8  A    between atoms: C7_13  and  C9_15
REMARK    9  A    between atoms: N4_17  and  C10_18
REMARK   10  A    between atoms: C14_23  and  C15_24
REMARK                            x       y       z     vdW  Elec       q    Type
REMARK                         _______ _______ _______ _____ _____    ______ ____
ROOT
ATOM      1  C9  UNL     1      16.051   0.623  21.415  0.00  0.00    +0.236 C 
ATOM      2  O3  UNL     1      16.355   1.379  22.377  0.00  0.00    -0.274 OA
ATOM      3  N4  UNL     1      15.289   1.123  20.302  0.00  0.00    -0.284 N 
ATOM      4  H15 UNL     1      15.232   0.531  19.446  0.00  0.00    +0.155 HD
ENDROOT
BRANCH   3   5
ATOM      5  C10 UNL     1      14.672   2.421  20.258  0.00  0.00    +0.034 A 
ATOM      6  C11 UNL     1      15.418   3.520  19.760  0.00  0.00    +0.025 A 
ATOM      7  C12 UNL     1      14.851   4.805  19.690  0.00  0.00    +0.028 A 
ATOM      8  C13 UNL     1      13.532   4.959  20.112  0.00  0.00    +0.047 A 
ATOM      9  N5  UNL     1      12.809   6.090  20.132  0.00  0.00    -0.354 N 
ATOM     10  C14 UNL     1      11.590   5.742  20.614  0.00  0.00    +0.047 A 
ATOM     11  C21 UNL     1      11.544   4.373  20.893  0.00  0.00    +0.036 A 
ATOM     12  C22 UNL     1      12.796   3.900  20.570  0.00  0.00    +0.002 A 
ATOM     13  C23 UNL     1      13.325   2.614  20.649  0.00  0.00    +0.033 A 
ATOM     14  H18 UNL     1      13.129   7.034  19.818  0.00  0.00    +0.166 HD
BRANCH  10  15
ATOM     15  C15 UNL     1      10.478   6.699  20.830  0.00  0.00    -0.002 A 
ATOM     16  C16 UNL     1       9.289   6.285  21.459  0.00  0.00    +0.010 A 
ATOM     17  C17 UNL     1       8.249   7.195  21.678  0.00  0.00    +0.001 A 
ATOM     18  C18 UNL     1       8.385   8.525  21.276  0.00  0.00    +0.000 A 
ATOM     19  C19 UNL     1       9.559   8.948  20.648  0.00  0.00    +0.001 A 
ATOM     20  C20 UNL     1      10.601   8.042  20.423  0.00  0.00    +0.010 A 
ENDBRANCH  10  15
ENDBRANCH   3   5
BRANCH   1  21
ATOM     21  C7  UNL     1      16.451  -0.836  21.454  0.00  0.00    +0.159 C 
ATOM     22  C8  UNL     1      16.902  -1.320  20.076  0.00  0.00    +0.035 C 
BRANCH  21  23
ATOM     23  N3  UNL     1      17.540  -1.059  22.427  0.00  0.00    -0.178 NA
ATOM     24  H10 UNL     1      18.010  -0.163  22.689  0.00  0.00    +0.149 HD
BRANCH  23  25
ATOM     25  S1  UNL     1      16.939  -1.763  23.899  0.00  0.00    +0.063 S 
ATOM     26  O1  UNL     1      17.661  -3.053  24.169  0.00  0.00    -0.153 OA
ATOM     27  O2  UNL     1      15.475  -2.061  23.737  0.00  0.00    -0.153 OA
BRANCH  25  35
ATOM     28  C1  UNL     1      15.109  -1.200  26.655  0.00  0.00    +0.069 C 
ATOM     29  C2  UNL     1      16.385  -0.481  26.359  0.00  0.00    +0.086 A 
ATOM     30  N1  UNL     1      16.973   0.365  27.227  0.00  0.00    -0.174 NA
ATOM     31  N2  UNL     1      18.128   0.742  26.700  0.00  0.00    -0.269 N 
ATOM     32  C3  UNL     1      19.051   1.651  27.369  0.00  0.00    +0.172 C 
ATOM     33  C4  UNL     1      18.307   0.140  25.502  0.00  0.00    +0.062 A 
ATOM     34  C5  UNL     1      19.515   0.289  24.624  0.00  0.00    +0.067 C 
ATOM     35  C6  UNL     1      17.203  -0.659  25.254  0.00  0.00    +0.148 A 
ENDBRANCH  25  35
ENDBRANCH  23  25
ENDBRANCH  21  23
ENDBRANCH   1  21
TORSDOF 6
ENDMDL
MODEL 4
REMARK VINA RESULT:    -6.746     13.653     16.429
REMARK INTER + INTRA:         -10.236
REMARK INTER:                  -9.090
REMARK INTRA:                  -1.147
REMARK UNBOUND:                -1.125
REMARK  Name = /home/qwerty/github/datacon2025hack/step_04_hit_selection/docking/ligands/lig_528.pdb
REMARK  10 active torsions:
REMARK  status: ('A' for Active; 'I' for Inactive)
REMARK    1  A    between atoms: C1_1  and  C2_2
REMARK    2  A    between atoms: N2_4  and  C3_5
REMARK    3  A    between atoms: C4_6  and  C5_7
REMARK    4  A    between atoms: C6_8  and  S1_9
REMARK    5  A    between atoms: S1_9  and  N3_12
REMARK    6  A    between atoms: N3_12  and  C7_13
REMARK    7  A    between atoms: C7_13  and  C8_14
REMARK    8  A    between atoms: C7_13  and  C9_15
REMARK    9  A    between atoms: N4_17  and  C10_18
REMARK   10  A    between atoms: C14_23  and  C15_24
REMARK                            x       y       z     vdW  Elec       q    Type
REMARK                         _______ _______ _______ _____ _____    ______ ____
ROOT
ATOM      1  C9  UNL     1       9.029   6.552  21.409  0.00  0.00    +0.236 C 
ATOM      2  O3  UNL     1       9.417   6.339  22.589  0.00  0.00    -0.274 OA
ATOM      3  N4  UNL     1       9.745   5.999  20.291  0.00  0.00    -0.284 N 
ATOM      4  H15 UNL     1       9.285   6.028  19.355  0.00  0.00    +0.155 HD
ENDROOT
BRANCH   3   5
ATOM      5  C10 UNL     1      11.014   5.330  20.389  0.00  0.00    +0.034 A 
ATOM      6  C11 UNL     1      12.204   6.096  20.296  0.00  0.00    +0.025 A 
ATOM      7  C12 UNL     1      13.467   5.484  20.396  0.00  0.00    +0.028 A 
ATOM      8  C13 UNL     1      13.508   4.106  20.603  0.00  0.00    +0.047 A 
ATOM      9  N5  UNL     1      14.599   3.332  20.722  0.00  0.00    -0.354 N 
ATOM     10  C14 UNL     1      14.138   2.072  20.917  0.00  0.00    +0.047 A 
ATOM     11  C21 UNL     1      12.740   2.055  20.928  0.00  0.00    +0.036 A 
ATOM     12  C22 UNL     1      12.365   3.363  20.720  0.00  0.00    +0.002 A 
ATOM     13  C23 UNL     1      11.099   3.937  20.629  0.00  0.00    +0.033 A 
ATOM     14  H18 UNL     1      15.592   3.655  20.688  0.00  0.00    +0.166 HD
BRANCH  10  15
ATOM     15  C15 UNL     1      15.011   0.884  21.073  0.00  0.00    -0.002 A 
ATOM     16  C16 UNL     1      15.787   0.418  19.994  0.00  0.00    +0.010 A 
ATOM     17  C17 UNL     1      16.624  -0.692  20.150  0.00  0.00    +0.001 A 
ATOM     18  C18 UNL     1      16.699  -1.346  21.381  0.00  0.00    +0.000 A 
ATOM     19  C19 UNL     1      15.931  -0.896  22.458  0.00  0.00    +0.001 A 
ATOM     20  C20 UNL     1      15.090   0.211  22.308  0.00  0.00    +0.010 A 
ENDBRANCH  10  15
ENDBRANCH   3   5
BRANCH   1  21
ATOM     21  C7  UNL     1       7.827   7.437  21.164  0.00  0.00    +0.159 C 
ATOM     22  C8  UNL     1       6.590   6.605  20.824  0.00  0.00    +0.035 C 
BRANCH  21  23
ATOM     23  N3  UNL     1       7.538   8.274  22.348  0.00  0.00    -0.178 NA
ATOM     24  H10 UNL     1       7.919   7.846  23.222  0.00  0.00    +0.149 HD
BRANCH  23  25
ATOM     25  S1  UNL     1       8.260   9.849  22.200  0.00  0.00    +0.063 S 
ATOM     26  O1  UNL     1       7.646  10.778  23.210  0.00  0.00    -0.153 OA
ATOM     27  O2  UNL     1       7.982  10.388  20.825  0.00  0.00    -0.153 OA
BRANCH  25  35
ATOM     28  C1  UNL     1       9.992   9.561  25.060  0.00  0.00    +0.069 C 
ATOM     29  C2  UNL     1      10.639   9.641  23.716  0.00  0.00    +0.086 A 
ATOM     30  N1  UNL     1      11.963   9.482  23.525  0.00  0.00    -0.174 NA
ATOM     31  N2  UNL     1      12.186   9.506  22.220  0.00  0.00    -0.269 N 
ATOM     32  C3  UNL     1      13.512   9.348  21.634  0.00  0.00    +0.172 C 
ATOM     33  C4  UNL     1      11.019   9.664  21.555  0.00  0.00    +0.062 A 
ATOM     34  C5  UNL     1      10.864   9.699  20.062  0.00  0.00    +0.067 C 
ATOM     35  C6  UNL     1      10.000   9.751  22.490  0.00  0.00    +0.148 A 
ENDBRANCH  25  35
ENDBRANCH  23  25
ENDBRANCH  21  23
ENDBRANCH   1  21
TORSDOF 6
ENDMDL
MODEL 5
REMARK VINA RESULT:    -6.689     13.443     16.128
REMARK INTER + INTRA:         -10.160
REMARK INTER:                  -9.657
REMARK INTRA:                  -0.503
REMARK UNBOUND:                -1.125
REMARK  Name = /home/qwerty/github/datacon2025hack/step_04_hit_selection/docking/ligands/lig_528.pdb
REMARK  10 active torsions:
REMARK  status: ('A' for Active; 'I' for Inactive)
REMARK    1  A    between atoms: C1_1  and  C2_2
REMARK    2  A    between atoms: N2_4  and  C3_5
REMARK    3  A    between atoms: C4_6  and  C5_7
REMARK    4  A    between atoms: C6_8  and  S1_9
REMARK    5  A    between atoms: S1_9  and  N3_12
REMARK    6  A    between atoms: N3_12  and  C7_13
REMARK    7  A    between atoms: C7_13  and  C8_14
REMARK    8  A    between atoms: C7_13  and  C9_15
REMARK    9  A    between atoms: N4_17  and  C10_18
REMARK   10  A    between atoms: C14_23  and  C15_24
REMARK                            x       y       z     vdW  Elec       q    Type
REMARK                         _______ _______ _______ _____ _____    ______ ____
ROOT
ATOM      1  C9  UNL     1       8.860   6.183  21.188  0.00  0.00    +0.236 C 
ATOM      2  O3  UNL     1       9.117   5.998  22.408  0.00  0.00    -0.274 OA
ATOM      3  N4  UNL     1       9.701   5.618  20.168  0.00  0.00    -0.284 N 
ATOM      4  H15 UNL     1       9.347   5.623  19.187  0.00  0.00    +0.155 HD
ENDROOT
BRANCH   3   5
ATOM      5  C10 UNL     1      10.958   4.966  20.420  0.00  0.00    +0.034 A 
ATOM      6  C11 UNL     1      12.157   5.714  20.298  0.00  0.00    +0.025 A 
ATOM      7  C12 UNL     1      13.408   5.120  20.545  0.00  0.00    +0.028 A 
ATOM      8  C13 UNL     1      13.427   3.779  20.925  0.00  0.00    +0.047 A 
ATOM      9  N5  UNL     1      14.505   3.026  21.201  0.00  0.00    -0.354 N 
ATOM     10  C14 UNL     1      14.025   1.800  21.526  0.00  0.00    +0.047 A 
ATOM     11  C21 UNL     1      12.629   1.784  21.460  0.00  0.00    +0.036 A 
ATOM     12  C22 UNL     1      12.275   3.056  21.070  0.00  0.00    +0.002 A 
ATOM     13  C23 UNL     1      11.020   3.615  20.837  0.00  0.00    +0.033 A 
ATOM     14  H18 UNL     1      15.500   3.342  21.182  0.00  0.00    +0.166 HD
BRANCH  10  15
ATOM     15  C15 UNL     1      14.880   0.641  21.878  0.00  0.00    -0.002 A 
ATOM     16  C16 UNL     1      14.614  -0.122  23.031  0.00  0.00    +0.010 A 
ATOM     17  C17 UNL     1      15.411  -1.227  23.349  0.00  0.00    +0.001 A 
ATOM     18  C18 UNL     1      16.477  -1.584  22.521  0.00  0.00    +0.000 A 
ATOM     19  C19 UNL     1      16.753  -0.834  21.376  0.00  0.00    +0.001 A 
ATOM     20  C20 UNL     1      15.962   0.274  21.054  0.00  0.00    +0.010 A 
ENDBRANCH  10  15
ENDBRANCH   3   5
BRANCH   1  21
ATOM     21  C7  UNL     1       7.684   7.049  20.793  0.00  0.00    +0.159 C 
ATOM     22  C8  UNL     1       6.400   6.224  20.700  0.00  0.00    +0.035 C 
BRANCH  21  23
ATOM     23  N3  UNL     1       7.486   8.145  21.764  0.00  0.00    -0.178 NA
ATOM     24  H10 UNL     1       7.603   7.812  22.748  0.00  0.00    +0.149 HD
BRANCH  23  25
ATOM     25  S1  UNL     1       8.644   9.420  21.523  0.00  0.00    +0.063 S 
ATOM     26  O1  UNL     1       7.931  10.669  21.087  0.00  0.00    -0.153 OA
ATOM     27  O2  UNL     1       9.601   9.014  20.437  0.00  0.00    -0.153 OA
BRANCH  25  35
ATOM     28  C1  UNL     1      11.873  10.149  22.074  0.00  0.00    +0.069 C 
ATOM     29  C2  UNL     1      10.861  10.034  23.168  0.00  0.00    +0.086 A 
ATOM     30  N1  UNL     1      11.130  10.331  24.455  0.00  0.00    -0.174 NA
ATOM     31  N2  UNL     1       9.999  10.224  25.135  0.00  0.00    -0.269 N 
ATOM     32  C3  UNL     1       9.902  10.487  26.567  0.00  0.00    +0.172 C 
ATOM     33  C4  UNL     1       8.991   9.874  24.304  0.00  0.00    +0.062 A 
ATOM     34  C5  UNL     1       7.555   9.697  24.703  0.00  0.00    +0.067 C 
ATOM     35  C6  UNL     1       9.512   9.747  23.027  0.00  0.00    +0.148 A 
ENDBRANCH  25  35
ENDBRANCH  23  25
ENDBRANCH  21  23
ENDBRANCH   1  21
TORSDOF 6
ENDMDL
MODEL 6
REMARK VINA RESULT:    -6.658      5.358     10.303
REMARK INTER + INTRA:         -10.119
REMARK INTER:                  -9.456
REMARK INTRA:                  -0.662
REMARK UNBOUND:                -1.125
REMARK  Name = /home/qwerty/github/datacon2025hack/step_04_hit_selection/docking/ligands/lig_528.pdb
REMARK  10 active torsions:
REMARK  status: ('A' for Active; 'I' for Inactive)
REMARK    1  A    between atoms: C1_1  and  C2_2
REMARK    2  A    between atoms: N2_4  and  C3_5
REMARK    3  A    between atoms: C4_6  and  C5_7
REMARK    4  A    between atoms: C6_8  and  S1_9
REMARK    5  A    between atoms: S1_9  and  N3_12
REMARK    6  A    between atoms: N3_12  and  C7_13
REMARK    7  A    between atoms: C7_13  and  C8_14
REMARK    8  A    between atoms: C7_13  and  C9_15
REMARK    9  A    between atoms: N4_17  and  C10_18
REMARK   10  A    between atoms: C14_23  and  C15_24
REMARK                            x       y       z     vdW  Elec       q    Type
REMARK                         _______ _______ _______ _____ _____    ______ ____
ROOT
ATOM      1  C9  UNL     1      21.500   6.977  36.016  0.00  0.00    +0.236 C 
ATOM      2  O3  UNL     1      20.880   6.800  34.934  0.00  0.00    -0.274 OA
ATOM      3  N4  UNL     1      20.804   7.413  37.197  0.00  0.00    -0.284 N 
ATOM      4  H15 UNL     1      21.307   7.355  38.109  0.00  0.00    +0.155 HD
ENDROOT
BRANCH   3   5
ATOM      5  C10 UNL     1      19.431   7.840  37.219  0.00  0.00    +0.034 A 
ATOM      6  C11 UNL     1      18.423   6.899  37.547  0.00  0.00    +0.025 A 
ATOM      7  C12 UNL     1      17.068   7.276  37.590  0.00  0.00    +0.028 A 
ATOM      8  C13 UNL     1      16.754   8.605  37.314  0.00  0.00    +0.047 A 
ATOM      9  N5  UNL     1      15.535   9.168  37.297  0.00  0.00    -0.354 N 
ATOM     10  C14 UNL     1      15.734  10.473  36.987  0.00  0.00    +0.047 A 
ATOM     11  C21 UNL     1      17.096  10.735  36.814  0.00  0.00    +0.036 A 
ATOM     12  C22 UNL     1      17.723   9.527  37.022  0.00  0.00    +0.002 A 
ATOM     13  C23 UNL     1      19.072   9.188  36.975  0.00  0.00    +0.033 A 
ATOM     14  H18 UNL     1      14.630   8.688  37.502  0.00  0.00    +0.166 HD
BRANCH  10  15
ATOM     15  C15 UNL     1      14.643  11.466  36.833  0.00  0.00    -0.002 A 
ATOM     16  C16 UNL     1      14.937  12.831  36.653  0.00  0.00    +0.010 A 
ATOM     17  C17 UNL     1      13.906  13.762  36.490  0.00  0.00    +0.001 A 
ATOM     18  C18 UNL     1      12.575  13.343  36.501  0.00  0.00    +0.000 A 
ATOM     19  C19 UNL     1      12.269  11.991  36.682  0.00  0.00    +0.001 A 
ATOM     20  C20 UNL     1      13.296  11.056  36.850  0.00  0.00    +0.010 A 
ENDBRANCH  10  15
ENDBRANCH   3   5
BRANCH   1  21
ATOM     21  C7  UNL     1      23.000   6.779  36.062  0.00  0.00    +0.159 C 
ATOM     22  C8  UNL     1      23.474   6.489  37.486  0.00  0.00    +0.035 C 
BRANCH  21  23
ATOM     23  N3  UNL     1      23.412   5.669  35.178  0.00  0.00    -0.178 NA
ATOM     24  H10 UNL     1      22.602   5.059  34.925  0.00  0.00    +0.149 HD
BRANCH  23  25
ATOM     25  S1  UNL     1      24.082   6.263  33.687  0.00  0.00    +0.063 S 
ATOM     26  O1  UNL     1      25.383   5.564  33.409  0.00  0.00    -0.153 OA
ATOM     27  O2  UNL     1      24.351   7.735  33.823  0.00  0.00    -0.153 OA
BRANCH  25  35
ATOM     28  C1  UNL     1      23.067   8.247  31.178  0.00  0.00    +0.069 C 
ATOM     29  C2  UNL     1      22.591   6.842  31.354  0.00  0.00    +0.086 A 
ATOM     30  N1  UNL     1      21.809   6.211  30.456  0.00  0.00    -0.174 NA
ATOM     31  N2  UNL     1      21.661   4.959  30.863  0.00  0.00    -0.269 N 
ATOM     32  C3  UNL     1      20.883   3.968  30.128  0.00  0.00    +0.172 C 
ATOM     33  C4  UNL     1      22.350   4.762  32.010  0.00  0.00    +0.062 A 
ATOM     34  C5  UNL     1      22.454   3.461  32.751  0.00  0.00    +0.067 C 
ATOM     35  C6  UNL     1      22.965   5.955  32.353  0.00  0.00    +0.148 A 
ENDBRANCH  25  35
ENDBRANCH  23  25
ENDBRANCH  21  23
ENDBRANCH   1  21
TORSDOF 6
ENDMDL
MODEL 7
REMARK VINA RESULT:    -6.648      4.681      7.185
REMARK INTER + INTRA:         -10.104
REMARK INTER:                  -8.773
REMARK INTRA:                  -1.332
REMARK UNBOUND:                -1.125
REMARK  Name = /home/qwerty/github/datacon2025hack/step_04_hit_selection/docking/ligands/lig_528.pdb
REMARK  10 active torsions:
REMARK  status: ('A' for Active; 'I' for Inactive)
REMARK    1  A    between atoms: C1_1  and  C2_2
REMARK    2  A    between atoms: N2_4  and  C3_5
REMARK    3  A    between atoms: C4_6  and  C5_7
REMARK    4  A    between atoms: C6_8  and  S1_9
REMARK    5  A    between atoms: S1_9  and  N3_12
REMARK    6  A    between atoms: N3_12  and  C7_13
REMARK    7  A    between atoms: C7_13  and  C8_14
REMARK    8  A    between atoms: C7_13  and  C9_15
REMARK    9  A    between atoms: N4_17  and  C10_18
REMARK   10  A    between atoms: C14_23  and  C15_24
REMARK                            x       y       z     vdW  Elec       q    Type
REMARK                         _______ _______ _______ _____ _____    ______ ____
ROOT
ATOM      1  C9  UNL     1      20.676  10.181  35.435  0.00  0.00    +0.236 C 
ATOM      2  O3  UNL     1      20.859  10.253  34.190  0.00  0.00    -0.274 OA
ATOM      3  N4  UNL     1      21.060   9.002  36.165  0.00  0.00    -0.284 N 
ATOM      4  H15 UNL     1      21.079   9.058  37.206  0.00  0.00    +0.155 HD
ENDROOT
BRANCH   3   5
ATOM      5  C10 UNL     1      21.506   7.778  35.554  0.00  0.00    +0.034 A 
ATOM      6  C11 UNL     1      22.841   7.350  35.766  0.00  0.00    +0.025 A 
ATOM      7  C12 UNL     1      23.316   6.155  35.196  0.00  0.00    +0.028 A 
ATOM      8  C13 UNL     1      22.427   5.401  34.431  0.00  0.00    +0.047 A 
ATOM      9  N5  UNL     1      22.676   4.242  33.801  0.00  0.00    -0.354 N 
ATOM     10  C14 UNL     1      21.512   3.892  33.199  0.00  0.00    +0.047 A 
ATOM     11  C21 UNL     1      20.518   4.840  33.460  0.00  0.00    +0.036 A 
ATOM     12  C22 UNL     1      21.130   5.793  34.242  0.00  0.00    +0.002 A 
ATOM     13  C23 UNL     1      20.627   6.969  34.795  0.00  0.00    +0.033 A 
ATOM     14  H18 UNL     1      23.581   3.720  33.800  0.00  0.00    +0.166 HD
BRANCH  10  15
ATOM     15  C15 UNL     1      21.342   2.679  32.362  0.00  0.00    -0.002 A 
ATOM     16  C16 UNL     1      20.477   1.645  32.768  0.00  0.00    +0.010 A 
ATOM     17  C17 UNL     1      20.304   0.511  31.967  0.00  0.00    +0.001 A 
ATOM     18  C18 UNL     1      20.988   0.398  30.755  0.00  0.00    +0.000 A 
ATOM     19  C19 UNL     1      21.851   1.416  30.343  0.00  0.00    +0.001 A 
ATOM     20  C20 UNL     1      22.031   2.550  31.141  0.00  0.00    +0.010 A 
ENDBRANCH  10  15
ENDBRANCH   3   5
BRANCH   1  21
ATOM     21  C7  UNL     1      20.001  11.324  36.161  0.00  0.00    +0.159 C 
ATOM     22  C8  UNL     1      20.555  12.672  35.701  0.00  0.00    +0.035 C 
BRANCH  21  23
ATOM     23  N3  UNL     1      18.540  11.299  35.941  0.00  0.00    -0.178 NA
ATOM     24  H10 UNL     1      18.301  10.934  34.992  0.00  0.00    +0.149 HD
BRANCH  23  25
ATOM     25  S1  UNL     1      17.744  10.268  37.094  0.00  0.00    +0.063 S 
ATOM     26  O1  UNL     1      16.520  10.961  37.624  0.00  0.00    -0.153 OA
ATOM     27  O2  UNL     1      18.677  10.006  38.242  0.00  0.00    -0.153 OA
BRANCH  25  35
ATOM     28  C1  UNL     1      15.948   9.696  34.318  0.00  0.00    +0.069 C 
ATOM     29  C2  UNL     1      16.506   8.604  35.172  0.00  0.00    +0.086 A 
ATOM     30  N1  UNL     1      16.440   7.300  34.838  0.00  0.00    -0.174 NA
ATOM     31  N2  UNL     1      17.115   6.617  35.750  0.00  0.00    -0.269 N 
ATOM     32  C3  UNL     1      17.273   5.168  35.706  0.00  0.00    +0.172 C 
ATOM     33  C4  UNL     1      17.633   7.463  36.669  0.00  0.00    +0.062 A 
ATOM     34  C5  UNL     1      18.492   7.064  37.834  0.00  0.00    +0.067 C 
ATOM     35  C6  UNL     1      17.262   8.753  36.324  0.00  0.00    +0.148 A 
ENDBRANCH  25  35
ENDBRANCH  23  25
ENDBRANCH  21  23
ENDBRANCH   1  21
TORSDOF 6
ENDMDL
MODEL 8
REMARK VINA RESULT:    -6.639     12.775     15.685
REMARK INTER + INTRA:         -10.093
REMARK INTER:                  -9.419
REMARK INTRA:                  -0.674
REMARK UNBOUND:                -1.125
REMARK  Name = /home/qwerty/github/datacon2025hack/step_04_hit_selection/docking/ligands/lig_528.pdb
REMARK  10 active torsions:
REMARK  status: ('A' for Active; 'I' for Inactive)
REMARK    1  A    between atoms: C1_1  and  C2_2
REMARK    2  A    between atoms: N2_4  and  C3_5
REMARK    3  A    between atoms: C4_6  and  C5_7
REMARK    4  A    between atoms: C6_8  and  S1_9
REMARK    5  A    between atoms: S1_9  and  N3_12
REMARK    6  A    between atoms: N3_12  and  C7_13
REMARK    7  A    between atoms: C7_13  and  C8_14
REMARK    8  A    between atoms: C7_13  and  C9_15
REMARK    9  A    between atoms: N4_17  and  C10_18
REMARK   10  A    between atoms: C14_23  and  C15_24
REMARK                            x       y       z     vdW  Elec       q    Type
REMARK                         _______ _______ _______ _____ _____    ______ ____
ROOT
ATOM      1  C9  UNL     1       8.049   5.899  22.564  0.00  0.00    +0.236 C 
ATOM      2  O3  UNL     1       8.690   6.341  23.555  0.00  0.00    -0.274 OA
ATOM      3  N4  UNL     1       7.692   4.509  22.483  0.00  0.00    -0.284 N 
ATOM      4  H15 UNL     1       6.999   4.225  21.758  0.00  0.00    +0.155 HD
ENDROOT
BRANCH   3   5
ATOM      5  C10 UNL     1       8.160   3.495  23.391  0.00  0.00    +0.034 A 
ATOM      6  C11 UNL     1       9.264   2.691  23.014  0.00  0.00    +0.025 A 
ATOM      7  C12 UNL     1       9.760   1.695  23.874  0.00  0.00    +0.028 A 
ATOM      8  C13 UNL     1       9.139   1.536  25.112  0.00  0.00    +0.047 A 
ATOM      9  N5  UNL     1       9.450   0.650  26.072  0.00  0.00    -0.354 N 
ATOM     10  C14 UNL     1       8.578   0.881  27.084  0.00  0.00    +0.047 A 
ATOM     11  C21 UNL     1       7.713   1.929  26.759  0.00  0.00    +0.036 A 
ATOM     12  C22 UNL     1       8.089   2.325  25.495  0.00  0.00    +0.002 A 
ATOM     13  C23 UNL     1       7.576   3.322  24.669  0.00  0.00    +0.033 A 
ATOM     14  H18 UNL     1      10.221  -0.054  26.037  0.00  0.00    +0.166 HD
BRANCH  10  15
ATOM     15  C15 UNL     1       8.545   0.102  28.346  0.00  0.00    -0.002 A 
ATOM     16  C16 UNL     1       7.405   0.123  29.172  0.00  0.00    +0.010 A 
ATOM     17  C17 UNL     1       7.371  -0.627  30.352  0.00  0.00    +0.001 A 
ATOM     18  C18 UNL     1       8.469  -1.408  30.718  0.00  0.00    +0.000 A 
ATOM     19  C19 UNL     1       9.608  -1.435  29.909  0.00  0.00    +0.001 A 
ATOM     20  C20 UNL     1       9.649  -0.684  28.730  0.00  0.00    +0.010 A 
ENDBRANCH  10  15
ENDBRANCH   3   5
BRANCH   1  21
ATOM     21  C7  UNL     1       7.695   6.831  21.425  0.00  0.00    +0.159 C 
ATOM     22  C8  UNL     1       6.503   6.299  20.629  0.00  0.00    +0.035 C 
BRANCH  21  23
ATOM     23  N3  UNL     1       7.379   8.183  21.929  0.00  0.00    -0.178 NA
ATOM     24  H10 UNL     1       7.256   8.187  22.966  0.00  0.00    +0.149 HD
BRANCH  23  25
ATOM     25  S1  UNL     1       8.654   9.308  21.567  0.00  0.00    +0.063 S 
ATOM     26  O1  UNL     1       8.065  10.568  20.996  0.00  0.00    -0.153 OA
ATOM     27  O2  UNL     1       9.566   8.700  20.538  0.00  0.00    -0.153 OA
BRANCH  25  35
ATOM     28  C1  UNL     1      11.874  10.145  22.009  0.00  0.00    +0.069 C 
ATOM     29  C2  UNL     1      10.895  10.034  23.132  0.00  0.00    +0.086 A 
ATOM     30  N1  UNL     1      11.188  10.377  24.402  0.00  0.00    -0.174 NA
ATOM     31  N2  UNL     1      10.079  10.259  25.116  0.00  0.00    -0.269 N 
ATOM     32  C3  UNL     1      10.011  10.563  26.541  0.00  0.00    +0.172 C 
ATOM     33  C4  UNL     1       9.060   9.856  24.323  0.00  0.00    +0.062 A 
ATOM     34  C5  UNL     1       7.641   9.649  24.765  0.00  0.00    +0.067 C 
ATOM     35  C6  UNL     1       9.551   9.705  23.036  0.00  0.00    +0.148 A 
ENDBRANCH  25  35
ENDBRANCH  23  25
ENDBRANCH  21  23
ENDBRANCH   1  21
TORSDOF 6
ENDMDL
MODEL 9
REMARK VINA RESULT:    -6.505      4.687      6.984
REMARK INTER + INTRA:          -9.911
REMARK INTER:                  -9.121
REMARK INTRA:                  -0.790
REMARK UNBOUND:                -1.125
REMARK  Name = /home/qwerty/github/datacon2025hack/step_04_hit_selection/docking/ligands/lig_528.pdb
REMARK  10 active torsions:
REMARK  status: ('A' for Active; 'I' for Inactive)
REMARK    1  A    between atoms: C1_1  and  C2_2
REMARK    2  A    between atoms: N2_4  and  C3_5
REMARK    3  A    between atoms: C4_6  and  C5_7
REMARK    4  A    between atoms: C6_8  and  S1_9
REMARK    5  A    between atoms: S1_9  and  N3_12
REMARK    6  A    between atoms: N3_12  and  C7_13
REMARK    7  A    between atoms: C7_13  and  C8_14
REMARK    8  A    between atoms: C7_13  and  C9_15
REMARK    9  A    between atoms: N4_17  and  C10_18
REMARK   10  A    between atoms: C14_23  and  C15_24
REMARK                            x       y       z     vdW  Elec       q    Type
REMARK                         _______ _______ _______ _____ _____    ______ ____
ROOT
ATOM      1  C9  UNL     1      20.736  10.051  35.320  0.00  0.00    +0.236 C 
ATOM      2  O3  UNL     1      21.105  10.226  34.128  0.00  0.00    -0.274 OA
ATOM      3  N4  UNL     1      20.963   8.794  35.980  0.00  0.00    -0.284 N 
ATOM      4  H15 UNL     1      20.828   8.755  37.013  0.00  0.00    +0.155 HD
ENDROOT
BRANCH   3   5
ATOM      5  C10 UNL     1      21.450   7.609  35.326  0.00  0.00    +0.034 A 
ATOM      6  C11 UNL     1      22.818   7.261  35.462  0.00  0.00    +0.025 A 
ATOM      7  C12 UNL     1      23.334   6.106  34.847  0.00  0.00    +0.028 A 
ATOM      8  C13 UNL     1      22.455   5.311  34.114  0.00  0.00    +0.047 A 
ATOM      9  N5  UNL     1      22.741   4.178  33.451  0.00  0.00    -0.354 N 
ATOM     10  C14 UNL     1      21.571   3.766  32.903  0.00  0.00    +0.047 A 
ATOM     11  C21 UNL     1      20.536   4.647  33.231  0.00  0.00    +0.036 A 
ATOM     12  C22 UNL     1      21.128   5.624  33.999  0.00  0.00    +0.002 A 
ATOM     13  C23 UNL     1      20.584   6.758  34.597  0.00  0.00    +0.033 A 
ATOM     14  H18 UNL     1      23.675   3.714  33.395  0.00  0.00    +0.166 HD
BRANCH  10  15
ATOM     15  C15 UNL     1      21.431   2.558  32.055  0.00  0.00    -0.002 A 
ATOM     16  C16 UNL     1      20.502   1.554  32.385  0.00  0.00    +0.010 A 
ATOM     17  C17 UNL     1      20.359   0.424  31.573  0.00  0.00    +0.001 A 
ATOM     18  C18 UNL     1      21.138   0.286  30.423  0.00  0.00    +0.000 A 
ATOM     19  C19 UNL     1      22.067   1.273  30.085  0.00  0.00    +0.001 A 
ATOM     20  C20 UNL     1      22.216   2.403  30.896  0.00  0.00    +0.010 A 
ENDBRANCH  10  15
ENDBRANCH   3   5
BRANCH   1  21
ATOM     21  C7  UNL     1      20.002  11.157  36.047  0.00  0.00    +0.159 C 
ATOM     22  C8  UNL     1      20.621  12.521  35.743  0.00  0.00    +0.035 C 
BRANCH  21  23
ATOM     23  N3  UNL     1      18.573  11.178  35.670  0.00  0.00    -0.178 NA
ATOM     24  H10 UNL     1      18.436  10.914  34.669  0.00  0.00    +0.149 HD
BRANCH  23  25
ATOM     25  S1  UNL     1      17.652  10.048  36.619  0.00  0.00    +0.063 S 
ATOM     26  O1  UNL     1      18.166  10.043  38.031  0.00  0.00    -0.153 OA
ATOM     27  O2  UNL     1      17.825   8.670  36.044  0.00  0.00    -0.153 OA
BRANCH  25  35
ATOM     28  C1  UNL     1      16.190  13.025  37.129  0.00  0.00    +0.069 C 
ATOM     29  C2  UNL     1      15.423  11.772  36.857  0.00  0.00    +0.086 A 
ATOM     30  N1  UNL     1      14.088  11.751  36.672  0.00  0.00    -0.174 NA
ATOM     31  N2  UNL     1      13.747  10.512  36.350  0.00  0.00    -0.269 N 
ATOM     32  C3  UNL     1      12.375  10.112  36.062  0.00  0.00    +0.172 C 
ATOM     33  C4  UNL     1      14.848   9.727  36.309  0.00  0.00    +0.062 A 
ATOM     34  C5  UNL     1      14.866   8.271  35.942  0.00  0.00    +0.067 C 
ATOM     35  C6  UNL     1      15.946  10.509  36.627  0.00  0.00    +0.148 A 
ENDBRANCH  25  35
ENDBRANCH  23  25
ENDBRANCH  21  23
ENDBRANCH   1  21
TORSDOF 6
ENDMDL
