MODEL 1
REMARK VINA RESULT:    -5.747      0.000      0.000
REMARK INTER + INTRA:          -8.546
REMARK INTER:                  -7.763
REMARK INTRA:                  -0.783
REMARK UNBOUND:                -0.783
REMARK  Name = /home/qwerty/github/datacon2025hack/step_04_hit_selection/docking/ligands/lig_386.pdb
REMARK  9 active torsions:
REMARK  status: ('A' for Active; 'I' for Inactive)
REMARK    1  A    between atoms: C1_1  and  N1_2
REMARK    2  A    between atoms: C4_6  and  C5_7
REMARK    3  A    between atoms: C5_7  and  N3_8
REMARK    4  A    between atoms: N3_8  and  C6_9
REMARK    5  A    between atoms: C6_9  and  C7_10
REMARK    6  A    between atoms: C7_10  and  N4_11
REMARK    7  A    between atoms: C8_12  and  C9_14
REMARK    8  A    between atoms: N5_16  and  C11_17
REMARK    9  A    between atoms: N6_20  and  C13_21
REMARK                            x       y       z     vdW  Elec       q    Type
REMARK                         _______ _______ _______ _____ _____    ______ ____
ROOT
ATOM      1  C6  UNL     1      17.515  -1.351  24.059  0.00  0.00    +0.035 C 
ATOM      2  C14 UNL     1      17.363  -2.823  24.494  0.00  0.00    +0.024 C 
ATOM      3  C15 UNL     1      15.886  -3.034  24.796  0.00  0.00    +0.002 C 
ATOM      4  C16 UNL     1      15.302  -1.659  25.093  0.00  0.00    +0.002 C 
ATOM      5  C17 UNL     1      16.435  -0.657  24.911  0.00  0.00    +0.024 C 
ENDROOT
BRANCH   1   6
ATOM      6  N3  UNL     1      18.829  -0.781  24.447  0.00  0.00    -0.304 NA
ATOM      7  H8  UNL     1      19.466  -1.558  24.747  0.00  0.00    +0.123 HD
BRANCH   6   8
ATOM      8  C5  UNL     1      18.798   0.227  25.514  0.00  0.00    +0.136 C 
BRANCH   8  14
ATOM      9  C1  UNL     1      21.099   0.952  27.477  0.00  0.00    +0.150 C 
ATOM     10  N1  UNL     1      20.879   1.518  26.150  0.00  0.00    -0.336 N 
ATOM     11  C2  UNL     1      21.577   2.516  25.574  0.00  0.00    +0.199 A 
ATOM     12  N2  UNL     1      21.080   2.869  24.369  0.00  0.00    -0.244 NA
ATOM     13  C3  UNL     1      20.018   2.056  24.190  0.00  0.00    +0.135 A 
ATOM     14  C4  UNL     1      19.893   1.224  25.282  0.00  0.00    +0.052 A 
ENDBRANCH   8  14
ENDBRANCH   6   8
ENDBRANCH   1   6
BRANCH   1  15
ATOM     15  C7  UNL     1      17.178  -1.111  22.548  0.00  0.00    +0.126 C 
BRANCH  15  16
ATOM     16  N4  UNL     1      16.326   0.054  22.291  0.00  0.00    -0.308 N 
ATOM     17  C8  UNL     1      15.789   0.303  20.984  0.00  0.00    +0.262 C 
ATOM     18  O1  UNL     1      16.176  -0.396  20.009  0.00  0.00    -0.269 OA
ATOM     19  H11 UNL     1      16.122   0.743  23.044  0.00  0.00    +0.149 HD
BRANCH  17  20
ATOM     20  C9  UNL     1      14.778   1.365  20.772  0.00  0.00    +0.124 A 
ATOM     21  C10 UNL     1      13.434   1.283  21.107  0.00  0.00    +0.121 A 
ATOM     22  N5  UNL     1      12.833   2.429  20.734  0.00  0.00    -0.301 N 
ATOM     23  C11 UNL     1      11.440   2.799  20.960  0.00  0.00    +0.153 C 
ATOM     24  C12 UNL     1      13.808   3.192  20.202  0.00  0.00    +0.329 A 
ATOM     25  O2  UNL     1      13.618   4.359  19.762  0.00  0.00    -0.246 OA
ATOM     26  N6  UNL     1      15.007   2.574  20.201  0.00  0.00    -0.291 N 
ATOM     27  C13 UNL     1      16.270   3.110  19.695  0.00  0.00    +0.154 C 
ENDBRANCH  17  20
ENDBRANCH  15  16
ENDBRANCH   1  15
TORSDOF 6
ENDMDL
MODEL 2
REMARK VINA RESULT:    -5.657      6.431     10.717
REMARK INTER + INTRA:          -8.424
REMARK INTER:                  -7.265
REMARK INTRA:                  -1.159
REMARK UNBOUND:                -0.783
REMARK  Name = /home/qwerty/github/datacon2025hack/step_04_hit_selection/docking/ligands/lig_386.pdb
REMARK  9 active torsions:
REMARK  status: ('A' for Active; 'I' for Inactive)
REMARK    1  A    between atoms: C1_1  and  N1_2
REMARK    2  A    between atoms: C4_6  and  C5_7
REMARK    3  A    between atoms: C5_7  and  N3_8
REMARK    4  A    between atoms: N3_8  and  C6_9
REMARK    5  A    between atoms: C6_9  and  C7_10
REMARK    6  A    between atoms: C7_10  and  N4_11
REMARK    7  A    between atoms: C8_12  and  C9_14
REMARK    8  A    between atoms: N5_16  and  C11_17
REMARK    9  A    between atoms: N6_20  and  C13_21
REMARK                            x       y       z     vdW  Elec       q    Type
REMARK                         _______ _______ _______ _____ _____    ______ ____
ROOT
ATOM      1  C6  UNL     1      22.291   0.584  28.958  0.00  0.00    +0.035 C 
ATOM      2  C14 UNL     1      22.540  -0.847  28.440  0.00  0.00    +0.024 C 
ATOM      3  C15 UNL     1      23.900  -1.270  28.977  0.00  0.00    +0.002 C 
ATOM      4  C16 UNL     1      24.662   0.011  29.291  0.00  0.00    +0.002 C 
ATOM      5  C17 UNL     1      23.717   1.167  28.979  0.00  0.00    +0.024 C 
ENDROOT
BRANCH   1   6
ATOM      6  N3  UNL     1      21.489   1.397  28.010  0.00  0.00    -0.304 NA
ATOM      7  H8  UNL     1      21.033   0.761  27.312  0.00  0.00    +0.123 HD
BRANCH   6   8
ATOM      8  C5  UNL     1      22.224   2.434  27.276  0.00  0.00    +0.136 C 
BRANCH   8  14
ATOM      9  C1  UNL     1      22.690   4.813  25.328  0.00  0.00    +0.150 C 
ATOM     10  N1  UNL     1      21.814   3.666  25.105  0.00  0.00    -0.336 N 
ATOM     11  C2  UNL     1      20.987   3.476  24.059  0.00  0.00    +0.199 A 
ATOM     12  N2  UNL     1      20.247   2.352  24.180  0.00  0.00    -0.244 NA
ATOM     13  C3  UNL     1      20.631   1.821  25.360  0.00  0.00    +0.135 A 
ATOM     14  C4  UNL     1      21.594   2.625  25.930  0.00  0.00    +0.052 A 
ENDBRANCH   8  14
ENDBRANCH   6   8
ENDBRANCH   1   6
BRANCH   1  15
ATOM     15  C7  UNL     1      21.721   0.627  30.417  0.00  0.00    +0.126 C 
BRANCH  15  16
ATOM     16  N4  UNL     1      22.115   1.808  31.191  0.00  0.00    -0.308 N 
ATOM     17  C8  UNL     1      21.284   2.979  31.226  0.00  0.00    +0.262 C 
ATOM     18  O1  UNL     1      20.285   3.056  30.462  0.00  0.00    -0.269 OA
ATOM     19  H11 UNL     1      23.020   1.834  31.702  0.00  0.00    +0.149 HD
BRANCH  17  20
ATOM     20  C9  UNL     1      21.586   4.091  32.157  0.00  0.00    +0.124 A 
ATOM     21  C10 UNL     1      22.472   5.133  31.916  0.00  0.00    +0.121 A 
ATOM     22  N5  UNL     1      22.500   5.926  33.004  0.00  0.00    -0.301 N 
ATOM     23  C11 UNL     1      23.241   7.174  33.155  0.00  0.00    +0.153 C 
ATOM     24  C12 UNL     1      21.630   5.378  33.873  0.00  0.00    +0.329 A 
ATOM     25  O2  UNL     1      21.375   5.869  35.007  0.00  0.00    -0.246 OA
ATOM     26  N6  UNL     1      21.058   4.253  33.396  0.00  0.00    -0.291 N 
ATOM     27  C13 UNL     1      20.079   3.409  34.078  0.00  0.00    +0.154 C 
ENDBRANCH  17  20
ENDBRANCH  15  16
ENDBRANCH   1  15
TORSDOF 6
ENDMDL
MODEL 3
REMARK VINA RESULT:    -5.633     10.489     13.799
REMARK INTER + INTRA:          -8.392
REMARK INTER:                  -7.380
REMARK INTRA:                  -1.013
REMARK UNBOUND:                -0.783
REMARK  Name = /home/qwerty/github/datacon2025hack/step_04_hit_selection/docking/ligands/lig_386.pdb
REMARK  9 active torsions:
REMARK  status: ('A' for Active; 'I' for Inactive)
REMARK    1  A    between atoms: C1_1  and  N1_2
REMARK    2  A    between atoms: C4_6  and  C5_7
REMARK    3  A    between atoms: C5_7  and  N3_8
REMARK    4  A    between atoms: N3_8  and  C6_9
REMARK    5  A    between atoms: C6_9  and  C7_10
REMARK    6  A    between atoms: C7_10  and  N4_11
REMARK    7  A    between atoms: C8_12  and  C9_14
REMARK    8  A    between atoms: N5_16  and  C11_17
REMARK    9  A    between atoms: N6_20  and  C13_21
REMARK                            x       y       z     vdW  Elec       q    Type
REMARK                         _______ _______ _______ _____ _____    ______ ____
ROOT
ATOM      1  C6  UNL     1      23.079   8.149  32.381  0.00  0.00    +0.035 C 
ATOM      2  C14 UNL     1      22.718   9.072  31.199  0.00  0.00    +0.024 C 
ATOM      3  C15 UNL     1      24.026   9.678  30.709  0.00  0.00    +0.002 C 
ATOM      4  C16 UNL     1      25.007   9.593  31.871  0.00  0.00    +0.002 C 
ATOM      5  C17 UNL     1      24.274   8.892  33.009  0.00  0.00    +0.024 C 
ENDROOT
BRANCH   1   6
ATOM      6  N3  UNL     1      22.002   8.090  33.400  0.00  0.00    -0.304 NA
ATOM      7  H8  UNL     1      21.097   8.389  32.963  0.00  0.00    +0.123 HD
BRANCH   6   8
ATOM      8  C5  UNL     1      22.218   8.898  34.607  0.00  0.00    +0.136 C 
BRANCH   8  14
ATOM      9  C1  UNL     1      20.193   8.802  36.965  0.00  0.00    +0.150 C 
ATOM     10  N1  UNL     1      21.384   7.973  36.809  0.00  0.00    -0.336 N 
ATOM     11  C2  UNL     1      21.868   7.082  37.697  0.00  0.00    +0.199 A 
ATOM     12  N2  UNL     1      23.033   6.529  37.295  0.00  0.00    -0.244 NA
ATOM     13  C3  UNL     1      23.288   7.108  36.102  0.00  0.00    +0.135 A 
ATOM     14  C4  UNL     1      22.276   7.994  35.801  0.00  0.00    +0.052 A 
ENDBRANCH   8  14
ENDBRANCH   6   8
ENDBRANCH   1   6
BRANCH   1  15
ATOM     15  C7  UNL     1      23.563   6.728  31.935  0.00  0.00    +0.126 C 
BRANCH  15  16
ATOM     16  N4  UNL     1      22.768   5.618  32.469  0.00  0.00    -0.308 N 
ATOM     17  C8  UNL     1      21.803   4.939  31.651  0.00  0.00    +0.262 C 
ATOM     18  O1  UNL     1      21.520   5.398  30.512  0.00  0.00    -0.269 OA
ATOM     19  H11 UNL     1      22.863   5.322  33.462  0.00  0.00    +0.149 HD
BRANCH  17  20
ATOM     20  C9  UNL     1      21.144   3.701  32.130  0.00  0.00    +0.124 A 
ATOM     21  C10 UNL     1      20.136   3.636  33.082  0.00  0.00    +0.121 A 
ATOM     22  N5  UNL     1      19.817   2.342  33.274  0.00  0.00    -0.301 N 
ATOM     23  C11 UNL     1      18.759   1.821  34.134  0.00  0.00    +0.153 C 
ATOM     24  C12 UNL     1      20.607   1.646  32.434  0.00  0.00    +0.329 A 
ATOM     25  O2  UNL     1      20.570   0.391  32.321  0.00  0.00    -0.246 OA
ATOM     26  N6  UNL     1      21.436   2.441  31.725  0.00  0.00    -0.291 N 
ATOM     27  C13 UNL     1      22.424   2.016  30.735  0.00  0.00    +0.154 C 
ENDBRANCH  17  20
ENDBRANCH  15  16
ENDBRANCH   1  15
TORSDOF 6
ENDMDL
MODEL 4
REMARK VINA RESULT:    -5.552     16.105     18.474
REMARK INTER + INTRA:          -8.283
REMARK INTER:                  -7.672
REMARK INTRA:                  -0.611
REMARK UNBOUND:                -0.783
REMARK  Name = /home/qwerty/github/datacon2025hack/step_04_hit_selection/docking/ligands/lig_386.pdb
REMARK  9 active torsions:
REMARK  status: ('A' for Active; 'I' for Inactive)
REMARK    1  A    between atoms: C1_1  and  N1_2
REMARK    2  A    between atoms: C4_6  and  C5_7
REMARK    3  A    between atoms: C5_7  and  N3_8
REMARK    4  A    between atoms: N3_8  and  C6_9
REMARK    5  A    between atoms: C6_9  and  C7_10
REMARK    6  A    between atoms: C7_10  and  N4_11
REMARK    7  A    between atoms: C8_12  and  C9_14
REMARK    8  A    between atoms: N5_16  and  C11_17
REMARK    9  A    between atoms: N6_20  and  C13_21
REMARK                            x       y       z     vdW  Elec       q    Type
REMARK                         _______ _______ _______ _____ _____    ______ ____
ROOT
ATOM      1  C6  UNL     1      11.397  14.006  33.682  0.00  0.00    +0.035 C 
ATOM      2  C14 UNL     1      10.345  14.342  34.758  0.00  0.00    +0.024 C 
ATOM      3  C15 UNL     1      10.634  13.432  35.944  0.00  0.00    +0.002 C 
ATOM      4  C16 UNL     1      11.414  12.242  35.400  0.00  0.00    +0.002 C 
ATOM      5  C17 UNL     1      11.614  12.498  33.911  0.00  0.00    +0.024 C 
ENDROOT
BRANCH   1   6
ATOM      6  N3  UNL     1      10.873  14.181  32.305  0.00  0.00    -0.304 NA
ATOM      7  H8  UNL     1       9.825  14.160  32.331  0.00  0.00    +0.123 HD
BRANCH   6   8
ATOM      8  C5  UNL     1      11.328  13.194  31.318  0.00  0.00    +0.136 C 
BRANCH   8  14
ATOM      9  C1  UNL     1       9.056  12.675  29.260  0.00  0.00    +0.150 C 
ATOM     10  N1  UNL     1      10.216  13.541  29.072  0.00  0.00    -0.336 N 
ATOM     11  C2  UNL     1      10.556  14.199  27.948  0.00  0.00    +0.199 A 
ATOM     12  N2  UNL     1      11.731  14.856  28.066  0.00  0.00    -0.244 NA
ATOM     13  C3  UNL     1      12.142  14.589  29.324  0.00  0.00    +0.135 A 
ATOM     14  C4  UNL     1      11.213  13.783  29.944  0.00  0.00    +0.052 A 
ENDBRANCH   8  14
ENDBRANCH   6   8
ENDBRANCH   1   6
BRANCH   1  15
ATOM     15  C7  UNL     1      12.765  14.738  33.902  0.00  0.00    +0.126 C 
BRANCH  15  16
ATOM     16  N4  UNL     1      13.868  13.861  34.308  0.00  0.00    -0.308 N 
ATOM     17  C8  UNL     1      14.651  14.150  35.475  0.00  0.00    +0.262 C 
ATOM     18  O1  UNL     1      14.495  15.250  36.072  0.00  0.00    -0.269 OA
ATOM     19  H11 UNL     1      14.126  13.030  33.738  0.00  0.00    +0.149 HD
BRANCH  17  20
ATOM     20  C9  UNL     1      15.632  13.167  35.990  0.00  0.00    +0.124 A 
ATOM     21  C10 UNL     1      15.379  12.193  36.946  0.00  0.00    +0.121 A 
ATOM     22  N5  UNL     1      16.520  11.515  37.174  0.00  0.00    -0.301 N 
ATOM     23  C11 UNL     1      16.690  10.362  38.052  0.00  0.00    +0.153 C 
ATOM     24  C12 UNL     1      17.435  12.062  36.352  0.00  0.00    +0.329 A 
ATOM     25  O2  UNL     1      18.629  11.661  36.273  0.00  0.00    -0.246 OA
ATOM     26  N6  UNL     1      16.933  13.077  35.618  0.00  0.00    -0.291 N 
ATOM     27  C13 UNL     1      17.651  13.889  34.637  0.00  0.00    +0.154 C 
ENDBRANCH  17  20
ENDBRANCH  15  16
ENDBRANCH   1  15
TORSDOF 6
ENDMDL
MODEL 5
REMARK VINA RESULT:    -5.510     10.200     12.909
REMARK INTER + INTRA:          -8.225
REMARK INTER:                  -6.979
REMARK INTRA:                  -1.247
REMARK UNBOUND:                -0.783
REMARK  Name = /home/qwerty/github/datacon2025hack/step_04_hit_selection/docking/ligands/lig_386.pdb
REMARK  9 active torsions:
REMARK  status: ('A' for Active; 'I' for Inactive)
REMARK    1  A    between atoms: C1_1  and  N1_2
REMARK    2  A    between atoms: C4_6  and  C5_7
REMARK    3  A    between atoms: C5_7  and  N3_8
REMARK    4  A    between atoms: N3_8  and  C6_9
REMARK    5  A    between atoms: C6_9  and  C7_10
REMARK    6  A    between atoms: C7_10  and  N4_11
REMARK    7  A    between atoms: C8_12  and  C9_14
REMARK    8  A    between atoms: N5_16  and  C11_17
REMARK    9  A    between atoms: N6_20  and  C13_21
REMARK                            x       y       z     vdW  Elec       q    Type
REMARK                         _______ _______ _______ _____ _____    ______ ____
ROOT
ATOM      1  C6  UNL     1      10.813   8.858  21.960  0.00  0.00    +0.035 C 
ATOM      2  C14 UNL     1      11.377   8.465  20.580  0.00  0.00    +0.024 C 
ATOM      3  C15 UNL     1      11.165   9.666  19.669  0.00  0.00    +0.002 C 
ATOM      4  C16 UNL     1      10.037  10.485  20.283  0.00  0.00    +0.002 C 
ATOM      5  C17 UNL     1       9.638   9.776  21.573  0.00  0.00    +0.024 C 
ENDROOT
BRANCH   1   6
ATOM      6  N3  UNL     1      10.251   7.695  22.692  0.00  0.00    -0.304 NA
ATOM      7  H8  UNL     1      10.546   6.811  22.211  0.00  0.00    +0.123 HD
BRANCH   6   8
ATOM      8  C5  UNL     1       8.790   7.675  22.836  0.00  0.00    +0.136 C 
BRANCH   8  14
ATOM      9  C1  UNL     1       8.143   5.062  24.392  0.00  0.00    +0.150 C 
ATOM     10  N1  UNL     1       7.983   5.281  22.957  0.00  0.00    -0.336 N 
ATOM     11  C2  UNL     1       7.612   4.368  22.040  0.00  0.00    +0.199 A 
ATOM     12  N2  UNL     1       7.633   4.859  20.781  0.00  0.00    -0.244 NA
ATOM     13  C3  UNL     1       8.041   6.137  20.924  0.00  0.00    +0.135 A 
ATOM     14  C4  UNL     1       8.256   6.400  22.259  0.00  0.00    +0.052 A 
ENDBRANCH   8  14
ENDBRANCH   6   8
ENDBRANCH   1   6
BRANCH   1  15
ATOM     15  C7  UNL     1      11.819   9.686  22.830  0.00  0.00    +0.126 C 
BRANCH  15  16
ATOM     16  N4  UNL     1      11.190  10.529  23.852  0.00  0.00    -0.308 N 
ATOM     17  C8  UNL     1      10.973  10.038  25.184  0.00  0.00    +0.262 C 
ATOM     18  O1  UNL     1      11.180   8.821  25.439  0.00  0.00    -0.269 OA
ATOM     19  H11 UNL     1      10.857  11.487  23.623  0.00  0.00    +0.149 HD
BRANCH  17  20
ATOM     20  C9  UNL     1      10.518  10.948  26.260  0.00  0.00    +0.124 A 
ATOM     21  C10 UNL     1      11.311  11.869  26.932  0.00  0.00    +0.121 A 
ATOM     22  N5  UNL     1      10.552  12.487  27.857  0.00  0.00    -0.301 N 
ATOM     23  C11 UNL     1      10.963  13.575  28.738  0.00  0.00    +0.153 C 
ATOM     24  C12 UNL     1       9.321  11.958  27.726  0.00  0.00    +0.329 A 
ATOM     25  O2  UNL     1       8.331  12.316  28.421  0.00  0.00    -0.246 OA
ATOM     26  N6  UNL     1       9.262  11.011  26.767  0.00  0.00    -0.291 N 
ATOM     27  C13 UNL     1       8.088  10.234  26.371  0.00  0.00    +0.154 C 
ENDBRANCH  17  20
ENDBRANCH  15  16
ENDBRANCH   1  15
TORSDOF 6
ENDMDL
MODEL 6
REMARK VINA RESULT:    -5.463      9.166     12.415
REMARK INTER + INTRA:          -8.163
REMARK INTER:                  -7.242
REMARK INTRA:                  -0.921
REMARK UNBOUND:                -0.783
REMARK  Name = /home/qwerty/github/datacon2025hack/step_04_hit_selection/docking/ligands/lig_386.pdb
REMARK  9 active torsions:
REMARK  status: ('A' for Active; 'I' for Inactive)
REMARK    1  A    between atoms: C1_1  and  N1_2
REMARK    2  A    between atoms: C4_6  and  C5_7
REMARK    3  A    between atoms: C5_7  and  N3_8
REMARK    4  A    between atoms: N3_8  and  C6_9
REMARK    5  A    between atoms: C6_9  and  C7_10
REMARK    6  A    between atoms: C7_10  and  N4_11
REMARK    7  A    between atoms: C8_12  and  C9_14
REMARK    8  A    between atoms: N5_16  and  C11_17
REMARK    9  A    between atoms: N6_20  and  C13_21
REMARK                            x       y       z     vdW  Elec       q    Type
REMARK                         _______ _______ _______ _____ _____    ______ ____
ROOT
ATOM      1  C6  UNL     1      10.399   8.975  20.644  0.00  0.00    +0.035 C 
ATOM      2  C14 UNL     1      11.649   8.604  21.468  0.00  0.00    +0.024 C 
ATOM      3  C15 UNL     1      12.519   9.852  21.519  0.00  0.00    +0.002 C 
ATOM      4  C16 UNL     1      12.113  10.714  20.331  0.00  0.00    +0.002 C 
ATOM      5  C17 UNL     1      10.976   9.981  19.630  0.00  0.00    +0.024 C 
ENDROOT
BRANCH   1   6
ATOM      6  N3  UNL     1       9.865   7.822  19.878  0.00  0.00    -0.304 NA
ATOM      7  H8  UNL     1       8.817   7.856  19.892  0.00  0.00    +0.123 HD
BRANCH   6   8
ATOM      8  C5  UNL     1      10.288   6.494  20.342  0.00  0.00    +0.136 C 
BRANCH   8  14
ATOM      9  C1  UNL     1      10.235   3.584  21.435  0.00  0.00    +0.150 C 
ATOM     10  N1  UNL     1       9.119   4.525  21.416  0.00  0.00    -0.336 N 
ATOM     11  C2  UNL     1       7.849   4.275  21.786  0.00  0.00    +0.199 A 
ATOM     12  N2  UNL     1       7.030   5.329  21.578  0.00  0.00    -0.244 NA
ATOM     13  C3  UNL     1       7.831   6.278  21.048  0.00  0.00    +0.135 A 
ATOM     14  C4  UNL     1       9.114   5.788  20.949  0.00  0.00    +0.052 A 
ENDBRANCH   8  14
ENDBRANCH   6   8
ENDBRANCH   1   6
BRANCH   1  15
ATOM     15  C7  UNL     1       9.294   9.702  21.484  0.00  0.00    +0.126 C 
BRANCH  15  16
ATOM     16  N4  UNL     1       9.293   9.366  22.911  0.00  0.00    -0.308 N 
ATOM     17  C8  UNL     1       8.202   9.753  23.760  0.00  0.00    +0.262 C 
ATOM     18  O1  UNL     1       7.310  10.524  23.315  0.00  0.00    -0.269 OA
ATOM     19  H11 UNL     1      10.098   8.869  23.343  0.00  0.00    +0.149 HD
BRANCH  17  20
ATOM     20  C9  UNL     1       8.111   9.247  25.150  0.00  0.00    +0.124 A 
ATOM     21  C10 UNL     1       7.835  10.013  26.274  0.00  0.00    +0.121 A 
ATOM     22  N5  UNL     1       7.866   9.208  27.354  0.00  0.00    -0.301 N 
ATOM     23  C11 UNL     1       7.564   9.582  28.731  0.00  0.00    +0.153 C 
ATOM     24  C12 UNL     1       8.137   7.977  26.879  0.00  0.00    +0.329 A 
ATOM     25  O2  UNL     1       8.222   6.952  27.608  0.00  0.00    -0.246 OA
ATOM     26  N6  UNL     1       8.300   7.962  25.539  0.00  0.00    -0.291 N 
ATOM     27  C13 UNL     1       8.609   6.801  24.706  0.00  0.00    +0.154 C 
ENDBRANCH  17  20
ENDBRANCH  15  16
ENDBRANCH   1  15
TORSDOF 6
ENDMDL
MODEL 7
REMARK VINA RESULT:    -5.423     10.302     12.837
REMARK INTER + INTRA:          -8.108
REMARK INTER:                  -7.111
REMARK INTRA:                  -0.997
REMARK UNBOUND:                -0.783
REMARK  Name = /home/qwerty/github/datacon2025hack/step_04_hit_selection/docking/ligands/lig_386.pdb
REMARK  9 active torsions:
REMARK  status: ('A' for Active; 'I' for Inactive)
REMARK    1  A    between atoms: C1_1  and  N1_2
REMARK    2  A    between atoms: C4_6  and  C5_7
REMARK    3  A    between atoms: C5_7  and  N3_8
REMARK    4  A    between atoms: N3_8  and  C6_9
REMARK    5  A    between atoms: C6_9  and  C7_10
REMARK    6  A    between atoms: C7_10  and  N4_11
REMARK    7  A    between atoms: C8_12  and  C9_14
REMARK    8  A    between atoms: N5_16  and  C11_17
REMARK    9  A    between atoms: N6_20  and  C13_21
REMARK                            x       y       z     vdW  Elec       q    Type
REMARK                         _______ _______ _______ _____ _____    ______ ____
ROOT
ATOM      1  C6  UNL     1      10.607   9.128  21.967  0.00  0.00    +0.035 C 
ATOM      2  C14 UNL     1      12.042   9.684  21.872  0.00  0.00    +0.024 C 
ATOM      3  C15 UNL     1      12.080  10.569  20.634  0.00  0.00    +0.002 C 
ATOM      4  C16 UNL     1      10.940  10.110  19.734  0.00  0.00    +0.002 C 
ATOM      5  C17 UNL     1      10.219   8.994  20.482  0.00  0.00    +0.024 C 
ENDROOT
BRANCH   1   6
ATOM      6  N3  UNL     1      10.566   7.770  22.565  0.00  0.00    -0.304 NA
ATOM      7  H8  UNL     1      11.540   7.477  22.819  0.00  0.00    +0.123 HD
BRANCH   6   8
ATOM      8  C5  UNL     1       9.972   6.720  21.729  0.00  0.00    +0.136 C 
BRANCH   8  14
ATOM      9  C1  UNL     1       7.789   4.759  20.699  0.00  0.00    +0.150 C 
ATOM     10  N1  UNL     1       8.117   5.040  22.094  0.00  0.00    -0.336 N 
ATOM     11  C2  UNL     1       7.476   4.570  23.181  0.00  0.00    +0.199 A 
ATOM     12  N2  UNL     1       7.970   5.076  24.333  0.00  0.00    -0.244 NA
ATOM     13  C3  UNL     1       8.961   5.904  23.941  0.00  0.00    +0.135 A 
ATOM     14  C4  UNL     1       9.054   5.883  22.566  0.00  0.00    +0.052 A 
ENDBRANCH   8  14
ENDBRANCH   6   8
ENDBRANCH   1   6
BRANCH   1  15
ATOM     15  C7  UNL     1       9.601  10.116  22.651  0.00  0.00    +0.126 C 
BRANCH  15  16
ATOM     16  N4  UNL     1       9.434   9.914  24.093  0.00  0.00    -0.308 N 
ATOM     17  C8  UNL     1       8.133   9.961  24.700  0.00  0.00    +0.262 C 
ATOM     18  O1  UNL     1       7.141  10.333  24.017  0.00  0.00    -0.269 OA
ATOM     19  H11 UNL     1      10.258   9.767  24.711  0.00  0.00    +0.149 HD
BRANCH  17  20
ATOM     20  C9  UNL     1       7.946   9.568  26.116  0.00  0.00    +0.124 A 
ATOM     21  C10 UNL     1       7.616   8.297  26.568  0.00  0.00    +0.121 A 
ATOM     22  N5  UNL     1       7.505   8.340  27.909  0.00  0.00    -0.301 N 
ATOM     23  C11 UNL     1       7.242   7.214  28.800  0.00  0.00    +0.153 C 
ATOM     24  C12 UNL     1       7.783   9.611  28.255  0.00  0.00    +0.329 A 
ATOM     25  O2  UNL     1       7.799  10.022  29.448  0.00  0.00    -0.246 OA
ATOM     26  N6  UNL     1       8.050  10.392  27.188  0.00  0.00    -0.291 N 
ATOM     27  C13 UNL     1       8.383  11.816  27.204  0.00  0.00    +0.154 C 
ENDBRANCH  17  20
ENDBRANCH  15  16
ENDBRANCH   1  15
TORSDOF 6
ENDMDL
MODEL 8
REMARK VINA RESULT:    -5.405      2.680      6.579
REMARK INTER + INTRA:          -8.085
REMARK INTER:                  -7.156
REMARK INTRA:                  -0.928
REMARK UNBOUND:                -0.783
REMARK  Name = /home/qwerty/github/datacon2025hack/step_04_hit_selection/docking/ligands/lig_386.pdb
REMARK  9 active torsions:
REMARK  status: ('A' for Active; 'I' for Inactive)
REMARK    1  A    between atoms: C1_1  and  N1_2
REMARK    2  A    between atoms: C4_6  and  C5_7
REMARK    3  A    between atoms: C5_7  and  N3_8
REMARK    4  A    between atoms: N3_8  and  C6_9
REMARK    5  A    between atoms: C6_9  and  C7_10
REMARK    6  A    between atoms: C7_10  and  N4_11
REMARK    7  A    between atoms: C8_12  and  C9_14
REMARK    8  A    between atoms: N5_16  and  C11_17
REMARK    9  A    between atoms: N6_20  and  C13_21
REMARK                            x       y       z     vdW  Elec       q    Type
REMARK                         _______ _______ _______ _____ _____    ______ ____
ROOT
ATOM      1  C6  UNL     1      15.388  -0.874  25.253  0.00  0.00    +0.035 C 
ATOM      2  C14 UNL     1      13.984  -0.681  25.862  0.00  0.00    +0.024 C 
ATOM      3  C15 UNL     1      13.556  -2.040  26.399  0.00  0.00    +0.002 C 
ATOM      4  C16 UNL     1      14.373  -3.083  25.647  0.00  0.00    +0.002 C 
ATOM      5  C17 UNL     1      15.305  -2.316  24.715  0.00  0.00    +0.024 C 
ENDROOT
BRANCH   1   6
ATOM      6  N3  UNL     1      15.629   0.023  24.096  0.00  0.00    -0.304 NA
ATOM      7  H8  UNL     1      14.874   0.749  24.060  0.00  0.00    +0.123 HD
BRANCH   6   8
ATOM      8  C5  UNL     1      15.701  -0.631  22.783  0.00  0.00    +0.136 C 
BRANCH   8  14
ATOM      9  C1  UNL     1      16.595  -0.666  19.805  0.00  0.00    +0.150 C 
ATOM     10  N1  UNL     1      15.716   0.313  20.437  0.00  0.00    -0.336 N 
ATOM     11  C2  UNL     1      15.206   1.423  19.868  0.00  0.00    +0.199 A 
ATOM     12  N2  UNL     1      14.490   2.169  20.737  0.00  0.00    -0.244 NA
ATOM     13  C3  UNL     1      14.563   1.493  21.903  0.00  0.00    +0.135 A 
ATOM     14  C4  UNL     1      15.314   0.352  21.721  0.00  0.00    +0.052 A 
ENDBRANCH   8  14
ENDBRANCH   6   8
ENDBRANCH   1   6
BRANCH   1  15
ATOM     15  C7  UNL     1      16.540  -0.811  26.313  0.00  0.00    +0.126 C 
BRANCH  15  16
ATOM     16  N4  UNL     1      17.482   0.297  26.124  0.00  0.00    -0.308 N 
ATOM     17  C8  UNL     1      18.732   0.096  25.448  0.00  0.00    +0.262 C 
ATOM     18  O1  UNL     1      19.098  -1.073  25.150  0.00  0.00    -0.269 OA
ATOM     19  H11 UNL     1      17.278   1.242  26.507  0.00  0.00    +0.149 HD
BRANCH  17  20
ATOM     20  C9  UNL     1      19.590   1.249  25.089  0.00  0.00    +0.124 A 
ATOM     21  C10 UNL     1      19.439   2.056  23.969  0.00  0.00    +0.121 A 
ATOM     22  N5  UNL     1      20.423   2.974  23.972  0.00  0.00    -0.301 N 
ATOM     23  C11 UNL     1      20.603   4.064  23.019  0.00  0.00    +0.153 C 
ATOM     24  C12 UNL     1      21.140   2.733  25.086  0.00  0.00    +0.329 A 
ATOM     25  O2  UNL     1      22.140   3.419  25.434  0.00  0.00    -0.246 OA
ATOM     26  N6  UNL     1      20.667   1.683  25.790  0.00  0.00    -0.291 N 
ATOM     27  C13 UNL     1      21.208   1.149  27.038  0.00  0.00    +0.154 C 
ENDBRANCH  17  20
ENDBRANCH  15  16
ENDBRANCH   1  15
TORSDOF 6
ENDMDL
MODEL 9
REMARK VINA RESULT:    -5.389      5.428     10.049
REMARK INTER + INTRA:          -8.062
REMARK INTER:                  -7.135
REMARK INTRA:                  -0.927
REMARK UNBOUND:                -0.783
REMARK  Name = /home/qwerty/github/datacon2025hack/step_04_hit_selection/docking/ligands/lig_386.pdb
REMARK  9 active torsions:
REMARK  status: ('A' for Active; 'I' for Inactive)
REMARK    1  A    between atoms: C1_1  and  N1_2
REMARK    2  A    between atoms: C4_6  and  C5_7
REMARK    3  A    between atoms: C5_7  and  N3_8
REMARK    4  A    between atoms: N3_8  and  C6_9
REMARK    5  A    between atoms: C6_9  and  C7_10
REMARK    6  A    between atoms: C7_10  and  N4_11
REMARK    7  A    between atoms: C8_12  and  C9_14
REMARK    8  A    between atoms: N5_16  and  C11_17
REMARK    9  A    between atoms: N6_20  and  C13_21
REMARK                            x       y       z     vdW  Elec       q    Type
REMARK                         _______ _______ _______ _____ _____    ______ ____
ROOT
ATOM      1  C6  UNL     1       9.040   5.234  21.649  0.00  0.00    +0.035 C 
ATOM      2  C14 UNL     1       9.275   5.438  23.160  0.00  0.00    +0.024 C 
ATOM      3  C15 UNL     1       8.242   4.581  23.877  0.00  0.00    +0.002 C 
ATOM      4  C16 UNL     1       7.105   4.351  22.889  0.00  0.00    +0.002 C 
ATOM      5  C17 UNL     1       7.513   5.036  21.590  0.00  0.00    +0.024 C 
ENDROOT
BRANCH   1   6
ATOM      6  N3  UNL     1       9.365   6.447  20.859  0.00  0.00    -0.304 NA
ATOM      7  H8  UNL     1       9.926   6.169  20.018  0.00  0.00    +0.123 HD
BRANCH   6   8
ATOM      8  C5  UNL     1      10.099   7.499  21.574  0.00  0.00    +0.136 C 
BRANCH   8  14
ATOM      9  C1  UNL     1      10.970   9.752  19.615  0.00  0.00    +0.150 C 
ATOM     10  N1  UNL     1       9.810   9.772  20.502  0.00  0.00    -0.336 N 
ATOM     11  C2  UNL     1       8.963  10.800  20.696  0.00  0.00    +0.199 A 
ATOM     12  N2  UNL     1       8.034  10.536  21.641  0.00  0.00    -0.244 NA
ATOM     13  C3  UNL     1       8.322   9.285  22.057  0.00  0.00    +0.135 A 
ATOM     14  C4  UNL     1       9.412   8.813  21.359  0.00  0.00    +0.052 A 
ENDBRANCH   8  14
ENDBRANCH   6   8
ENDBRANCH   1   6
BRANCH   1  15
ATOM     15  C7  UNL     1       9.725   3.945  21.082  0.00  0.00    +0.126 C 
BRANCH  15  16
ATOM     16  N4  UNL     1      11.074   4.157  20.547  0.00  0.00    -0.308 N 
ATOM     17  C8  UNL     1      12.236   3.910  21.354  0.00  0.00    +0.262 C 
ATOM     18  O1  UNL     1      12.099   3.659  22.582  0.00  0.00    -0.269 OA
ATOM     19  H11 UNL     1      11.216   4.523  19.584  0.00  0.00    +0.149 HD
BRANCH  17  20
ATOM     20  C9  UNL     1      13.591   3.938  20.756  0.00  0.00    +0.124 A 
ATOM     21  C10 UNL     1      14.306   5.080  20.421  0.00  0.00    +0.121 A 
ATOM     22  N5  UNL     1      15.478   4.702  19.876  0.00  0.00    -0.301 N 
ATOM     23  C11 UNL     1      16.564   5.577  19.449  0.00  0.00    +0.153 C 
ATOM     24  C12 UNL     1      15.472   3.356  19.903  0.00  0.00    +0.329 A 
ATOM     25  O2  UNL     1      16.429   2.645  19.491  0.00  0.00    -0.246 OA
ATOM     26  N6  UNL     1      14.334   2.853  20.426  0.00  0.00    -0.291 N 
ATOM     27  C13 UNL     1      13.996   1.440  20.597  0.00  0.00    +0.154 C 
ENDBRANCH  17  20
ENDBRANCH  15  16
ENDBRANCH   1  15
TORSDOF 6
ENDMDL
