REMARK  Name = /home/qwerty/github/datacon2025hack/step_04_hit_selection/docking/ligands/lig_85.pdb
REMARK  7 active torsions:
REMARK  status: ('A' for Active; 'I' for Inactive)
REMARK    1  A    between atoms: C1_1  and  C2_2
REMARK    2  A    between atoms: C4_4  and  C5_5
REMARK    3  A    between atoms: N1_7  and  C6_8
REMARK    4  A    between atoms: C9_11  and  O2_12
REMARK    5  A    between atoms: C12_15  and  C13_16
REMARK    6  A    between atoms: N2_17  and  C14_18
REMARK    7  A    between atoms: C14_18  and  C15_19
REMARK                            x       y       z     vdW  Elec       q    Type
REMARK                         _______ _______ _______ _____ _____    ______ ____
ROOT
ATOM      1  C1  UNL     1       1.670  -2.553  -2.316  0.00  0.00    +0.063 C 
ATOM      2  C2  UNL     1       1.116  -1.395  -1.542  0.00  0.00    +0.017 A 
ATOM      3  C3  UNL     1      -0.200  -1.282  -1.144  0.00  0.00    +0.035 A 
ATOM      4  C4  UNL     1      -0.312  -0.070  -0.485  0.00  0.00    +0.058 A 
ATOM      5  C12 UNL     1       0.951   0.518  -0.523  0.00  0.00    +0.028 A 
ATOM      6  C13 UNL     1       1.306   1.852   0.074  0.00  0.00    +0.064 C 
ATOM      7  N2  UNL     1       1.821  -0.302  -1.164  0.00  0.00    -0.343 N 
ENDROOT
BRANCH   4   8
ATOM      8  C5  UNL     1      -1.551   0.474   0.118  0.00  0.00    +0.250 C 
ATOM      9  O1  UNL     1      -1.551   1.634   0.610  0.00  0.00    -0.270 OA
ATOM     10  N1  UNL     1      -2.743  -0.327   0.180  0.00  0.00    -0.281 N 
ATOM     11  H5  UNL     1      -2.639  -1.366   0.185  0.00  0.00    +0.155 HD
BRANCH  10  12
ATOM     12  C6  UNL     1      -4.061   0.214   0.377  0.00  0.00    +0.034 A 
ATOM     13  C7  UNL     1      -4.415   1.485  -0.114  0.00  0.00    +0.027 A 
ATOM     14  C8  UNL     1      -5.711   1.977   0.070  0.00  0.00    +0.047 A 
ATOM     15  C9  UNL     1      -6.670   1.205   0.733  0.00  0.00    +0.117 A 
ATOM     16  C10 UNL     1      -6.330  -0.068   1.208  0.00  0.00    +0.047 A 
ATOM     17  C11 UNL     1      -5.035  -0.563   1.024  0.00  0.00    +0.027 A 
BRANCH  15  18
ATOM     18  O2  UNL     1      -7.957   1.710   0.910  0.00  0.00    -0.507 OA
ATOM     19  H8  UNL     1      -8.673   1.177   1.389  0.00  0.00    +0.292 HD
ENDBRANCH  15  18
ENDBRANCH  10  12
ENDBRANCH   4   8
BRANCH   7  20
ATOM     20  C14 UNL     1       3.257  -0.071  -1.381  0.00  0.00    +0.156 C 
BRANCH  20  21
ATOM     21  C15 UNL     1       4.020  -0.172  -0.084  0.00  0.00    -0.028 A 
ATOM     22  C16 UNL     1       3.904  -1.318   0.722  0.00  0.00    +0.005 A 
ATOM     23  C17 UNL     1       4.623  -1.415   1.917  0.00  0.00    +0.000 A 
ATOM     24  C18 UNL     1       5.468  -0.375   2.313  0.00  0.00    +0.000 A 
ATOM     25  C19 UNL     1       5.600   0.762   1.512  0.00  0.00    +0.000 A 
ATOM     26  C20 UNL     1       4.884   0.863   0.315  0.00  0.00    +0.005 A 
ENDBRANCH  20  21
ENDBRANCH   7  20
TORSDOF 5
