MODEL 1
REMARK VINA RESULT:    -5.825      0.000      0.000
REMARK INTER + INTRA:          -7.609
REMARK INTER:                  -7.187
REMARK INTRA:                  -0.422
REMARK UNBOUND:                -0.422
REMARK  Name = /home/qwerty/github/datacon2025hack/step_04_hit_selection/docking/ligands/lig_419.pdb
REMARK  5 active torsions:
REMARK  status: ('A' for Active; 'I' for Inactive)
REMARK    1  A    between atoms: C1_1  and  C2_2
REMARK    2  A    between atoms: C2_2  and  C3_3
REMARK    3  A    between atoms: C2_2  and  C4_5
REMARK    4  A    between atoms: C7_10  and  N3_11
REMARK    5  A    between atoms: C8_12  and  C9_14
REMARK                            x       y       z     vdW  Elec       q    Type
REMARK                         _______ _______ _______ _____ _____    ______ ____
ROOT
ATOM      1  N3  UNL     1      21.505   3.747  24.366  0.00  0.00    -0.307 N 
ATOM      2  C8  UNL     1      20.824   4.670  23.500  0.00  0.00    +0.244 C 
ATOM      3  O2  UNL     1      19.621   4.972  23.733  0.00  0.00    -0.270 OA
ATOM      4  H10 UNL     1      22.550   3.728  24.352  0.00  0.00    +0.149 HD
ENDROOT
BRANCH   2   5
ATOM      5  C9  UNL     1      21.517   5.288  22.345  0.00  0.00    +0.040 A 
ATOM      6  C10 UNL     1      21.132   4.981  21.013  0.00  0.00    +0.031 A 
ATOM      7  C11 UNL     1      21.801   5.585  19.936  0.00  0.00    +0.093 A 
ATOM      8  N4  UNL     1      22.800   6.458  20.211  0.00  0.00    -0.306 N 
ATOM      9  C12 UNL     1      23.589   7.167  19.386  0.00  0.00    +0.204 A 
ATOM     10  N5  UNL     1      24.470   7.935  20.072  0.00  0.00    -0.243 NA
ATOM     11  C13 UNL     1      24.209   7.686  21.377  0.00  0.00    +0.138 A 
ATOM     12  C14 UNL     1      23.180   6.776  21.452  0.00  0.00    +0.066 A 
ATOM     13  C15 UNL     1      22.560   6.216  22.566  0.00  0.00    +0.040 A 
ENDBRANCH   2   5
BRANCH   1  19
ATOM     14  C4  UNL     1      22.007   0.862  28.285  0.00  0.00    +0.232 C 
ATOM     15  O1  UNL     1      21.642  -0.301  28.614  0.00  0.00    -0.274 OA
ATOM     16  N2  UNL     1      21.425   1.477  27.120  0.00  0.00    -0.299 N 
ATOM     17  C5  UNL     1      20.482   0.783  26.258  0.00  0.00    +0.109 C 
ATOM     18  C6  UNL     1      20.317   1.669  25.029  0.00  0.00    +0.043 C 
ATOM     19  C7  UNL     1      20.812   3.055  25.456  0.00  0.00    +0.092 C 
ATOM     20  C16 UNL     1      21.745   2.812  26.641  0.00  0.00    +0.130 C 
BRANCH  14  22
ATOM     21  C1  UNL     1      24.290   0.591  29.249  0.00  0.00    +0.033 C 
ATOM     22  C2  UNL     1      23.105   1.540  29.073  0.00  0.00    +0.174 C 
BRANCH  22  23
ATOM     23  C3  UNL     1      22.605   1.974  30.388  0.00  0.00    +0.075 C 
ATOM     24  N1  UNL     1      22.212   2.316  31.421  0.00  0.00    -0.196 NA
ENDBRANCH  22  23
ENDBRANCH  14  22
ENDBRANCH   1  19
TORSDOF 4
ENDMDL
MODEL 2
REMARK VINA RESULT:    -5.578     13.395     14.972
REMARK INTER + INTRA:          -7.304
REMARK INTER:                  -6.877
REMARK INTRA:                  -0.427
REMARK UNBOUND:                -0.422
REMARK  Name = /home/qwerty/github/datacon2025hack/step_04_hit_selection/docking/ligands/lig_419.pdb
REMARK  5 active torsions:
REMARK  status: ('A' for Active; 'I' for Inactive)
REMARK    1  A    between atoms: C1_1  and  C2_2
REMARK    2  A    between atoms: C2_2  and  C3_3
REMARK    3  A    between atoms: C2_2  and  C4_5
REMARK    4  A    between atoms: C7_10  and  N3_11
REMARK    5  A    between atoms: C8_12  and  C9_14
REMARK                            x       y       z     vdW  Elec       q    Type
REMARK                         _______ _______ _______ _____ _____    ______ ____
ROOT
ATOM      1  N3  UNL     1       8.660   8.362  24.880  0.00  0.00    -0.307 N 
ATOM      2  C8  UNL     1       8.557   8.487  23.451  0.00  0.00    +0.244 C 
ATOM      3  O2  UNL     1       7.687   9.254  22.954  0.00  0.00    -0.270 OA
ATOM      4  H10 UNL     1       9.543   7.976  25.284  0.00  0.00    +0.149 HD
ENDROOT
BRANCH   2   5
ATOM      5  C9  UNL     1       9.469   7.743  22.551  0.00  0.00    +0.040 A 
ATOM      6  C10 UNL     1      10.240   8.421  21.570  0.00  0.00    +0.031 A 
ATOM      7  C11 UNL     1      11.101   7.694  20.732  0.00  0.00    +0.093 A 
ATOM      8  N4  UNL     1      11.171   6.351  20.897  0.00  0.00    -0.306 N 
ATOM      9  C12 UNL     1      11.901   5.430  20.245  0.00  0.00    +0.204 A 
ATOM     10  N5  UNL     1      11.681   4.182  20.727  0.00  0.00    -0.243 NA
ATOM     11  C13 UNL     1      10.774   4.346  21.719  0.00  0.00    +0.138 A 
ATOM     12  C14 UNL     1      10.468   5.683  21.816  0.00  0.00    +0.066 A 
ATOM     13  C15 UNL     1       9.595   6.341  22.680  0.00  0.00    +0.040 A 
ENDBRANCH   2   5
BRANCH   1  19
ATOM     14  C4  UNL     1       8.119  11.527  28.570  0.00  0.00    +0.232 C 
ATOM     15  O1  UNL     1       7.731  11.472  29.770  0.00  0.00    -0.274 OA
ATOM     16  N2  UNL     1       7.879  10.403  27.701  0.00  0.00    -0.299 N 
ATOM     17  C5  UNL     1       7.270   9.169  28.169  0.00  0.00    +0.109 C 
ATOM     18  C6  UNL     1       7.433   8.171  27.030  0.00  0.00    +0.043 C 
ATOM     19  C7  UNL     1       7.710   9.016  25.783  0.00  0.00    +0.092 C 
ATOM     20  C16 UNL     1       8.260  10.344  26.299  0.00  0.00    +0.130 C 
BRANCH  14  22
ATOM     21  C1  UNL     1       9.736  13.298  29.252  0.00  0.00    +0.033 C 
ATOM     22  C2  UNL     1       8.898  12.736  28.104  0.00  0.00    +0.174 C 
BRANCH  22  23
ATOM     23  C3  UNL     1       7.988  13.771  27.588  0.00  0.00    +0.075 C 
ATOM     24  N1  UNL     1       7.273  14.585  27.182  0.00  0.00    -0.196 NA
ENDBRANCH  22  23
ENDBRANCH  14  22
ENDBRANCH   1  19
TORSDOF 4
ENDMDL
MODEL 3
REMARK VINA RESULT:    -5.548     14.986     17.363
REMARK INTER + INTRA:          -7.267
REMARK INTER:                  -6.849
REMARK INTRA:                  -0.418
REMARK UNBOUND:                -0.422
REMARK  Name = /home/qwerty/github/datacon2025hack/step_04_hit_selection/docking/ligands/lig_419.pdb
REMARK  5 active torsions:
REMARK  status: ('A' for Active; 'I' for Inactive)
REMARK    1  A    between atoms: C1_1  and  C2_2
REMARK    2  A    between atoms: C2_2  and  C3_3
REMARK    3  A    between atoms: C2_2  and  C4_5
REMARK    4  A    between atoms: C7_10  and  N3_11
REMARK    5  A    between atoms: C8_12  and  C9_14
REMARK                            x       y       z     vdW  Elec       q    Type
REMARK                         _______ _______ _______ _____ _____    ______ ____
ROOT
ATOM      1  N3  UNL     1      13.368  13.828  32.420  0.00  0.00    -0.307 N 
ATOM      2  C8  UNL     1      13.093  13.893  33.830  0.00  0.00    +0.244 C 
ATOM      3  O2  UNL     1      12.108  14.565  34.243  0.00  0.00    -0.270 OA
ATOM      4  H10 UNL     1      13.978  13.058  32.066  0.00  0.00    +0.149 HD
ENDROOT
BRANCH   2   5
ATOM      5  C9  UNL     1      13.939  13.168  34.807  0.00  0.00    +0.040 A 
ATOM      6  C10 UNL     1      13.364  12.528  35.937  0.00  0.00    +0.031 A 
ATOM      7  C11 UNL     1      14.185  11.842  36.845  0.00  0.00    +0.093 A 
ATOM      8  N4  UNL     1      15.518  11.810  36.605  0.00  0.00    -0.306 N 
ATOM      9  C12 UNL     1      16.515  11.233  37.297  0.00  0.00    +0.204 A 
ATOM     10  N5  UNL     1      17.719  11.434  36.706  0.00  0.00    -0.243 NA
ATOM     11  C13 UNL     1      17.447  12.168  35.601  0.00  0.00    +0.138 A 
ATOM     12  C14 UNL     1      16.091  12.393  35.547  0.00  0.00    +0.066 A 
ATOM     13  C15 UNL     1      15.335  13.089  34.606  0.00  0.00    +0.040 A 
ENDBRANCH   2   5
BRANCH   1  19
ATOM     14  C4  UNL     1      10.198  13.659  28.698  0.00  0.00    +0.232 C 
ATOM     15  O1  UNL     1      10.213  13.961  27.472  0.00  0.00    -0.274 OA
ATOM     16  N2  UNL     1      11.270  14.113  29.547  0.00  0.00    -0.299 N 
ATOM     17  C5  UNL     1      12.415  14.848  29.035  0.00  0.00    +0.109 C 
ATOM     18  C6  UNL     1      13.414  14.907  30.184  0.00  0.00    +0.043 C 
ATOM     19  C7  UNL     1      12.600  14.612  31.448  0.00  0.00    +0.092 C 
ATOM     20  C16 UNL     1      11.365  13.849  30.973  0.00  0.00    +0.130 C 
BRANCH  14  22
ATOM     21  C1  UNL     1       8.718  11.726  28.162  0.00  0.00    +0.033 C 
ATOM     22  C2  UNL     1       9.101  12.760  29.221  0.00  0.00    +0.174 C 
BRANCH  22  23
ATOM     23  C3  UNL     1       7.921  13.552  29.603  0.00  0.00    +0.075 C 
ATOM     24  N1  UNL     1       6.994  14.175  29.904  0.00  0.00    -0.196 NA
ENDBRANCH  22  23
ENDBRANCH  14  22
ENDBRANCH   1  19
TORSDOF 4
ENDMDL
MODEL 4
REMARK VINA RESULT:    -5.470      9.880     12.949
REMARK INTER + INTRA:          -7.171
REMARK INTER:                  -6.753
REMARK INTRA:                  -0.418
REMARK UNBOUND:                -0.422
REMARK  Name = /home/qwerty/github/datacon2025hack/step_04_hit_selection/docking/ligands/lig_419.pdb
REMARK  5 active torsions:
REMARK  status: ('A' for Active; 'I' for Inactive)
REMARK    1  A    between atoms: C1_1  and  C2_2
REMARK    2  A    between atoms: C2_2  and  C3_3
REMARK    3  A    between atoms: C2_2  and  C4_5
REMARK    4  A    between atoms: C7_10  and  N3_11
REMARK    5  A    between atoms: C8_12  and  C9_14
REMARK                            x       y       z     vdW  Elec       q    Type
REMARK                         _______ _______ _______ _____ _____    ______ ____
ROOT
ATOM      1  N3  UNL     1      11.626   3.993  20.688  0.00  0.00    -0.307 N 
ATOM      2  C8  UNL     1      12.824   3.734  19.937  0.00  0.00    +0.244 C 
ATOM      3  O2  UNL     1      13.032   4.356  18.859  0.00  0.00    -0.270 OA
ATOM      4  H10 UNL     1      11.597   3.713  21.694  0.00  0.00    +0.149 HD
ENDROOT
BRANCH   2   5
ATOM      5  C9  UNL     1      13.832   2.760  20.418  0.00  0.00    +0.040 A 
ATOM      6  C10 UNL     1      15.176   2.813  19.962  0.00  0.00    +0.031 A 
ATOM      7  C11 UNL     1      16.113   1.883  20.438  0.00  0.00    +0.093 A 
ATOM      8  N4  UNL     1      15.697   0.956  21.334  0.00  0.00    -0.306 N 
ATOM      9  C12 UNL     1      16.373  -0.033  21.943  0.00  0.00    +0.204 A 
ATOM     10  N5  UNL     1      15.579  -0.741  22.783  0.00  0.00    -0.243 NA
ATOM     11  C13 UNL     1      14.360  -0.159  22.685  0.00  0.00    +0.138 A 
ATOM     12  C14 UNL     1      14.444   0.884  21.792  0.00  0.00    +0.066 A 
ATOM     13  C15 UNL     1      13.463   1.775  21.363  0.00  0.00    +0.040 A 
ENDBRANCH   2   5
BRANCH   1  19
ATOM     14  C4  UNL     1       9.275   8.235  21.325  0.00  0.00    +0.232 C 
ATOM     15  O1  UNL     1       8.095   8.592  21.600  0.00  0.00    -0.274 OA
ATOM     16  N2  UNL     1       9.525   6.866  20.952  0.00  0.00    -0.299 N 
ATOM     17  C5  UNL     1       8.483   5.853  20.949  0.00  0.00    +0.109 C 
ATOM     18  C6  UNL     1       9.201   4.524  20.754  0.00  0.00    +0.043 C 
ATOM     19  C7  UNL     1      10.576   4.882  20.183  0.00  0.00    +0.092 C 
ATOM     20  C16 UNL     1      10.829   6.330  20.598  0.00  0.00    +0.130 C 
BRANCH  14  22
ATOM     21  C1  UNL     1      10.151  10.126  22.693  0.00  0.00    +0.033 C 
ATOM     22  C2  UNL     1      10.400   9.233  21.477  0.00  0.00    +0.174 C 
BRANCH  22  23
ATOM     23  C3  UNL     1      10.530  10.056  20.264  0.00  0.00    +0.075 C 
ATOM     24  N1  UNL     1      10.633  10.702  19.310  0.00  0.00    -0.196 NA
ENDBRANCH  22  23
ENDBRANCH  14  22
ENDBRANCH   1  19
TORSDOF 4
ENDMDL
MODEL 5
REMARK VINA RESULT:    -5.439     12.803     15.904
REMARK INTER + INTRA:          -7.132
REMARK INTER:                  -6.704
REMARK INTRA:                  -0.428
REMARK UNBOUND:                -0.422
REMARK  Name = /home/qwerty/github/datacon2025hack/step_04_hit_selection/docking/ligands/lig_419.pdb
REMARK  5 active torsions:
REMARK  status: ('A' for Active; 'I' for Inactive)
REMARK    1  A    between atoms: C1_1  and  C2_2
REMARK    2  A    between atoms: C2_2  and  C3_3
REMARK    3  A    between atoms: C2_2  and  C4_5
REMARK    4  A    between atoms: C7_10  and  N3_11
REMARK    5  A    between atoms: C8_12  and  C9_14
REMARK                            x       y       z     vdW  Elec       q    Type
REMARK                         _______ _______ _______ _____ _____    ______ ____
ROOT
ATOM      1  N3  UNL     1      17.345  10.781  36.652  0.00  0.00    -0.307 N 
ATOM      2  C8  UNL     1      18.231   9.959  37.430  0.00  0.00    +0.244 C 
ATOM      3  O2  UNL     1      17.932   9.674  38.622  0.00  0.00    -0.270 OA
ATOM      4  H10 UNL     1      17.439  10.769  35.611  0.00  0.00    +0.149 HD
ENDROOT
BRANCH   2   5
ATOM      5  C9  UNL     1      19.485   9.423  36.849  0.00  0.00    +0.040 A 
ATOM      6  C10 UNL     1      20.017   9.955  35.645  0.00  0.00    +0.031 A 
ATOM      7  C11 UNL     1      21.209   9.434  35.117  0.00  0.00    +0.093 A 
ATOM      8  N4  UNL     1      21.822   8.431  35.790  0.00  0.00    -0.306 N 
ATOM      9  C12 UNL     1      22.955   7.762  35.515  0.00  0.00    +0.204 A 
ATOM     10  N5  UNL     1      23.225   6.824  36.456  0.00  0.00    -0.243 NA
ATOM     11  C13 UNL     1      22.211   6.923  37.349  0.00  0.00    +0.138 A 
ATOM     12  C14 UNL     1      21.354   7.914  36.930  0.00  0.00    +0.066 A 
ATOM     13  C15 UNL     1      20.178   8.383  37.510  0.00  0.00    +0.040 A 
ENDBRANCH   2   5
BRANCH   1  19
ATOM     14  C4  UNL     1      12.708  12.133  35.875  0.00  0.00    +0.232 C 
ATOM     15  O1  UNL     1      12.068  13.220  35.845  0.00  0.00    -0.274 OA
ATOM     16  N2  UNL     1      14.045  12.119  36.412  0.00  0.00    -0.299 N 
ATOM     17  C5  UNL     1      14.721  13.326  36.859  0.00  0.00    +0.109 C 
ATOM     18  C6  UNL     1      16.169  12.921  37.103  0.00  0.00    +0.043 C 
ATOM     19  C7  UNL     1      16.150  11.396  37.236  0.00  0.00    +0.092 C 
ATOM     20  C16 UNL     1      14.883  10.936  36.518  0.00  0.00    +0.130 C 
BRANCH  14  22
ATOM     21  C1  UNL     1      11.224  11.276  34.064  0.00  0.00    +0.033 C 
ATOM     22  C2  UNL     1      12.086  10.896  35.267  0.00  0.00    +0.174 C 
BRANCH  22  23
ATOM     23  C3  UNL     1      11.275  10.182  36.266  0.00  0.00    +0.075 C 
ATOM     24  N1  UNL     1      10.637   9.620  37.050  0.00  0.00    -0.196 NA
ENDBRANCH  22  23
ENDBRANCH  14  22
ENDBRANCH   1  19
TORSDOF 4
ENDMDL
MODEL 6
REMARK VINA RESULT:    -5.398     11.099     14.399
REMARK INTER + INTRA:          -7.082
REMARK INTER:                  -6.649
REMARK INTRA:                  -0.433
REMARK UNBOUND:                -0.422
REMARK  Name = /home/qwerty/github/datacon2025hack/step_04_hit_selection/docking/ligands/lig_419.pdb
REMARK  5 active torsions:
REMARK  status: ('A' for Active; 'I' for Inactive)
REMARK    1  A    between atoms: C1_1  and  C2_2
REMARK    2  A    between atoms: C2_2  and  C3_3
REMARK    3  A    between atoms: C2_2  and  C4_5
REMARK    4  A    between atoms: C7_10  and  N3_11
REMARK    5  A    between atoms: C8_12  and  C9_14
REMARK                            x       y       z     vdW  Elec       q    Type
REMARK                         _______ _______ _______ _____ _____    ______ ____
ROOT
ATOM      1  N3  UNL     1      19.610   9.619  36.484  0.00  0.00    -0.307 N 
ATOM      2  C8  UNL     1      19.183  10.991  36.544  0.00  0.00    +0.244 C 
ATOM      3  O2  UNL     1      20.044  11.914  36.518  0.00  0.00    -0.270 OA
ATOM      4  H10 UNL     1      18.912   8.892  36.211  0.00  0.00    +0.149 HD
ENDROOT
BRANCH   2   5
ATOM      5  C9  UNL     1      17.745  11.342  36.618  0.00  0.00    +0.040 A 
ATOM      6  C10 UNL     1      16.757  10.337  36.789  0.00  0.00    +0.031 A 
ATOM      7  C11 UNL     1      15.401  10.695  36.862  0.00  0.00    +0.093 A 
ATOM      8  N4  UNL     1      15.080  12.009  36.771  0.00  0.00    -0.306 N 
ATOM      9  C12 UNL     1      13.884  12.618  36.812  0.00  0.00    +0.204 A 
ATOM     10  N5  UNL     1      14.001  13.963  36.690  0.00  0.00    -0.243 NA
ATOM     11  C13 UNL     1      15.331  14.188  36.568  0.00  0.00    +0.138 A 
ATOM     12  C14 UNL     1      15.986  12.980  36.620  0.00  0.00    +0.066 A 
ATOM     13  C15 UNL     1      17.347  12.696  36.542  0.00  0.00    +0.040 A 
ENDBRANCH   2   5
BRANCH   1  19
ATOM     14  C4  UNL     1      23.272   7.520  34.012  0.00  0.00    +0.232 C 
ATOM     15  O1  UNL     1      24.004   6.502  34.156  0.00  0.00    -0.274 OA
ATOM     16  N2  UNL     1      22.461   7.964  35.117  0.00  0.00    -0.299 N 
ATOM     17  C5  UNL     1      22.393   7.242  36.377  0.00  0.00    +0.109 C 
ATOM     18  C6  UNL     1      21.253   7.884  37.158  0.00  0.00    +0.043 C 
ATOM     19  C7  UNL     1      21.028   9.251  36.504  0.00  0.00    +0.092 C 
ATOM     20  C16 UNL     1      21.589   9.127  35.088  0.00  0.00    +0.130 C 
BRANCH  14  22
ATOM     21  C1  UNL     1      23.076   7.143  31.556  0.00  0.00    +0.033 C 
ATOM     22  C2  UNL     1      23.205   8.192  32.660  0.00  0.00    +0.174 C 
BRANCH  22  23
ATOM     23  C3  UNL     1      24.400   9.020  32.433  0.00  0.00    +0.075 C 
ATOM     24  N1  UNL     1      25.339   9.671  32.254  0.00  0.00    -0.196 NA
ENDBRANCH  22  23
ENDBRANCH  14  22
ENDBRANCH   1  19
TORSDOF 4
ENDMDL
MODEL 7
REMARK VINA RESULT:    -5.393      8.558     12.670
REMARK INTER + INTRA:          -7.076
REMARK INTER:                  -6.658
REMARK INTRA:                  -0.418
REMARK UNBOUND:                -0.422
REMARK  Name = /home/qwerty/github/datacon2025hack/step_04_hit_selection/docking/ligands/lig_419.pdb
REMARK  5 active torsions:
REMARK  status: ('A' for Active; 'I' for Inactive)
REMARK    1  A    between atoms: C1_1  and  C2_2
REMARK    2  A    between atoms: C2_2  and  C3_3
REMARK    3  A    between atoms: C2_2  and  C4_5
REMARK    4  A    between atoms: C7_10  and  N3_11
REMARK    5  A    between atoms: C8_12  and  C9_14
REMARK                            x       y       z     vdW  Elec       q    Type
REMARK                         _______ _______ _______ _____ _____    ______ ____
ROOT
ATOM      1  N3  UNL     1      22.709  11.938  29.989  0.00  0.00    -0.307 N 
ATOM      2  C8  UNL     1      22.200  10.661  30.411  0.00  0.00    +0.244 C 
ATOM      3  O2  UNL     1      21.009  10.344  30.142  0.00  0.00    -0.270 OA
ATOM      4  H10 UNL     1      23.744  12.074  29.947  0.00  0.00    +0.149 HD
ENDROOT
BRANCH   2   5
ATOM      5  C9  UNL     1      23.059   9.700  31.142  0.00  0.00    +0.040 A 
ATOM      6  C10 UNL     1      24.302  10.106  31.696  0.00  0.00    +0.031 A 
ATOM      7  C11 UNL     1      25.095   9.178  32.390  0.00  0.00    +0.093 A 
ATOM      8  N4  UNL     1      24.637   7.909  32.511  0.00  0.00    -0.306 N 
ATOM      9  C12 UNL     1      25.182   6.840  33.115  0.00  0.00    +0.204 A 
ATOM     10  N5  UNL     1      24.388   5.746  33.012  0.00  0.00    -0.243 NA
ATOM     11  C13 UNL     1      23.306   6.164  32.313  0.00  0.00    +0.138 A 
ATOM     12  C14 UNL     1      23.469   7.496  32.010  0.00  0.00    +0.066 A 
ATOM     13  C15 UNL     1      22.631   8.364  31.313  0.00  0.00    +0.040 A 
ENDBRANCH   2   5
BRANCH   1  19
ATOM     14  C4  UNL     1      22.482  15.568  26.717  0.00  0.00    +0.232 C 
ATOM     15  O1  UNL     1      22.256  16.809  26.747  0.00  0.00    -0.274 OA
ATOM     16  N2  UNL     1      22.192  14.773  27.884  0.00  0.00    -0.299 N 
ATOM     17  C5  UNL     1      21.714  15.355  29.127  0.00  0.00    +0.109 C 
ATOM     18  C6  UNL     1      21.782  14.236  30.158  0.00  0.00    +0.043 C 
ATOM     19  C7  UNL     1      21.849  12.937  29.348  0.00  0.00    +0.092 C 
ATOM     20  C16 UNL     1      22.391  13.336  27.977  0.00  0.00    +0.130 C 
BRANCH  14  22
ATOM     21  C1  UNL     1      24.057  15.987  24.831  0.00  0.00    +0.033 C 
ATOM     22  C2  UNL     1      23.130  14.966  25.491  0.00  0.00    +0.174 C 
BRANCH  22  23
ATOM     23  C3  UNL     1      22.107  14.519  24.533  0.00  0.00    +0.075 C 
ATOM     24  N1  UNL     1      21.303  14.166  23.779  0.00  0.00    -0.196 NA
ENDBRANCH  22  23
ENDBRANCH  14  22
ENDBRANCH   1  19
TORSDOF 4
ENDMDL
MODEL 8
REMARK VINA RESULT:    -5.388      6.582     10.640
REMARK INTER + INTRA:          -7.070
REMARK INTER:                  -6.646
REMARK INTRA:                  -0.424
REMARK UNBOUND:                -0.422
REMARK  Name = /home/qwerty/github/datacon2025hack/step_04_hit_selection/docking/ligands/lig_419.pdb
REMARK  5 active torsions:
REMARK  status: ('A' for Active; 'I' for Inactive)
REMARK    1  A    between atoms: C1_1  and  C2_2
REMARK    2  A    between atoms: C2_2  and  C3_3
REMARK    3  A    between atoms: C2_2  and  C4_5
REMARK    4  A    between atoms: C7_10  and  N3_11
REMARK    5  A    between atoms: C8_12  and  C9_14
REMARK                            x       y       z     vdW  Elec       q    Type
REMARK                         _______ _______ _______ _____ _____    ______ ____
ROOT
ATOM      1  N3  UNL     1      21.566   5.394  33.384  0.00  0.00    -0.307 N 
ATOM      2  C8  UNL     1      21.987   6.237  34.469  0.00  0.00    +0.244 C 
ATOM      3  O2  UNL     1      22.717   5.761  35.382  0.00  0.00    -0.270 OA
ATOM      4  H10 UNL     1      21.226   5.845  32.505  0.00  0.00    +0.149 HD
ENDROOT
BRANCH   2   5
ATOM      5  C9  UNL     1      21.593   7.665  34.526  0.00  0.00    +0.040 A 
ATOM      6  C10 UNL     1      21.968   8.567  33.495  0.00  0.00    +0.031 A 
ATOM      7  C11 UNL     1      21.577   9.913  33.569  0.00  0.00    +0.093 A 
ATOM      8  N4  UNL     1      20.839  10.308  34.634  0.00  0.00    -0.306 N 
ATOM      9  C12 UNL     1      20.338  11.515  34.947  0.00  0.00    +0.204 A 
ATOM     10  N5  UNL     1      19.644  11.484  36.112  0.00  0.00    -0.243 NA
ATOM     11  C13 UNL     1      19.724  10.199  36.531  0.00  0.00    +0.138 A 
ATOM     12  C14 UNL     1      20.460   9.484  35.615  0.00  0.00    +0.066 A 
ATOM     13  C15 UNL     1      20.812   8.136  35.606  0.00  0.00    +0.040 A 
ENDBRANCH   2   5
BRANCH   1  19
ATOM     14  C4  UNL     1      21.583   1.317  30.680  0.00  0.00    +0.232 C 
ATOM     15  O1  UNL     1      20.989   0.204  30.705  0.00  0.00    -0.274 OA
ATOM     16  N2  UNL     1      21.504   2.181  31.830  0.00  0.00    -0.299 N 
ATOM     17  C5  UNL     1      20.704   1.856  32.999  0.00  0.00    +0.109 C 
ATOM     18  C6  UNL     1      20.686   3.119  33.851  0.00  0.00    +0.043 C 
ATOM     19  C7  UNL     1      21.868   3.960  33.359  0.00  0.00    +0.092 C 
ATOM     20  C16 UNL     1      22.152   3.478  31.937  0.00  0.00    +0.130 C 
BRANCH  14  22
ATOM     21  C1  UNL     1      21.385   1.515  28.203  0.00  0.00    +0.033 C 
ATOM     22  C2  UNL     1      22.289   1.747  29.414  0.00  0.00    +0.174 C 
BRANCH  22  23
ATOM     23  C3  UNL     1      23.552   1.011  29.250  0.00  0.00    +0.075 C 
ATOM     24  N1  UNL     1      24.546   0.431  29.121  0.00  0.00    -0.196 NA
ENDBRANCH  22  23
ENDBRANCH  14  22
ENDBRANCH   1  19
TORSDOF 4
ENDMDL
MODEL 9
REMARK VINA RESULT:    -5.277      6.150     10.249
REMARK INTER + INTRA:          -6.933
REMARK INTER:                  -6.457
REMARK INTRA:                  -0.476
REMARK UNBOUND:                -0.422
REMARK  Name = /home/qwerty/github/datacon2025hack/step_04_hit_selection/docking/ligands/lig_419.pdb
REMARK  5 active torsions:
REMARK  status: ('A' for Active; 'I' for Inactive)
REMARK    1  A    between atoms: C1_1  and  C2_2
REMARK    2  A    between atoms: C2_2  and  C3_3
REMARK    3  A    between atoms: C2_2  and  C4_5
REMARK    4  A    between atoms: C7_10  and  N3_11
REMARK    5  A    between atoms: C8_12  and  C9_14
REMARK                            x       y       z     vdW  Elec       q    Type
REMARK                         _______ _______ _______ _____ _____    ______ ____
ROOT
ATOM      1  N3  UNL     1      22.048   4.526  33.016  0.00  0.00    -0.307 N 
ATOM      2  C8  UNL     1      21.611   3.157  32.958  0.00  0.00    +0.244 C 
ATOM      3  O2  UNL     1      21.320   2.549  34.025  0.00  0.00    -0.270 OA
ATOM      4  H10 UNL     1      22.000   5.102  32.146  0.00  0.00    +0.149 HD
ENDROOT
BRANCH   2   5
ATOM      5  C9  UNL     1      21.477   2.452  31.661  0.00  0.00    +0.040 A 
ATOM      6  C10 UNL     1      20.977   1.124  31.600  0.00  0.00    +0.031 A 
ATOM      7  C11 UNL     1      20.854   0.480  30.359  0.00  0.00    +0.093 A 
ATOM      8  N4  UNL     1      21.216   1.161  29.245  0.00  0.00    -0.306 N 
ATOM      9  C12 UNL     1      21.199   0.792  27.953  0.00  0.00    +0.204 A 
ATOM     10  N5  UNL     1      21.643   1.783  27.142  0.00  0.00    -0.243 NA
ATOM     11  C13 UNL     1      21.947   2.807  27.975  0.00  0.00    +0.138 A 
ATOM     12  C14 UNL     1      21.680   2.414  29.266  0.00  0.00    +0.066 A 
ATOM     13  C15 UNL     1      21.827   3.114  30.462  0.00  0.00    +0.040 A 
ENDBRANCH   2   5
BRANCH   1  19
ATOM     14  C4  UNL     1      20.874   8.372  35.802  0.00  0.00    +0.232 C 
ATOM     15  O1  UNL     1      21.476   9.381  36.264  0.00  0.00    -0.274 OA
ATOM     16  N2  UNL     1      21.643   7.297  35.228  0.00  0.00    -0.299 N 
ATOM     17  C5  UNL     1      23.089   7.356  35.091  0.00  0.00    +0.109 C 
ATOM     18  C6  UNL     1      23.471   6.165  34.222  0.00  0.00    +0.043 C 
ATOM     19  C7  UNL     1      22.275   5.210  34.292  0.00  0.00    +0.092 C 
ATOM     20  C16 UNL     1      21.078   6.076  34.677  0.00  0.00    +0.130 C 
BRANCH  14  22
ATOM     21  C1  UNL     1      18.841   9.102  34.557  0.00  0.00    +0.033 C 
ATOM     22  C2  UNL     1      19.362   8.359  35.787  0.00  0.00    +0.174 C 
BRANCH  22  23
ATOM     23  C3  UNL     1      18.828   8.973  37.013  0.00  0.00    +0.075 C 
ATOM     24  N1  UNL     1      18.407   9.455  37.977  0.00  0.00    -0.196 NA
ENDBRANCH  22  23
ENDBRANCH  14  22
ENDBRANCH   1  19
TORSDOF 4
ENDMDL
