REMARK  Name = /home/qwerty/github/datacon2025hack/step_04_hit_selection/docking/ligands/lig_160.pdb
REMARK  6 active torsions:
REMARK  status: ('A' for Active; 'I' for Inactive)
REMARK    1  A    between atoms: C1_1  and  C2_2
REMARK    2  A    between atoms: C5_5  and  C6_6
REMARK    3  A    between atoms: C10_13  and  C11_14
REMARK    4  A    between atoms: C11_14  and  O2_16
REMARK    5  A    between atoms: N4_18  and  C13_19
REMARK    6  A    between atoms: C13_19  and  C14_20
REMARK                            x       y       z     vdW  Elec       q    Type
REMARK                         _______ _______ _______ _____ _____    ______ ____
ROOT
ATOM      1  C6  UNL     1      -0.253   1.720  -0.935  0.00  0.00    +0.167 A 
ATOM      2  N1  UNL     1       0.558   2.090  -1.946  0.00  0.00    -0.127 NA
ATOM      3  N2  UNL     1       1.613   1.290  -1.915  0.00  0.00    -0.113 NA
ATOM      4  C7  UNL     1       1.419   0.432  -0.896  0.00  0.00    +0.220 A 
ATOM      5  N3  UNL     1       2.373  -0.573  -0.530  0.00  0.00    -0.299 N 
ATOM      6  C8  UNL     1       2.135  -1.993  -0.730  0.00  0.00    +0.109 C 
ATOM      7  C9  UNL     1       3.464  -2.672  -0.430  0.00  0.00    +0.035 C 
ATOM      8  C10 UNL     1       4.523  -1.580  -0.619  0.00  0.00    +0.116 C 
ATOM      9  C12 UNL     1       3.783  -0.266  -0.355  0.00  0.00    +0.122 C 
ATOM     10  N4  UNL     1       0.254   0.665  -0.253  0.00  0.00    -0.295 N 
ENDROOT
BRANCH   1  15
ATOM     11  C1  UNL     1      -5.217   4.403   0.187  0.00  0.00    +0.065 C 
ATOM     12  C2  UNL     1      -3.935   3.698  -0.119  0.00  0.00    +0.038 A 
ATOM     13  C3  UNL     1      -3.672   3.234  -1.413  0.00  0.00    +0.024 A 
ATOM     14  C4  UNL     1      -2.463   2.589  -1.678  0.00  0.00    +0.015 A 
ATOM     15  C5  UNL     1      -1.529   2.400  -0.651  0.00  0.00    +0.037 A 
ATOM     16  C18 UNL     1      -1.818   2.905   0.624  0.00  0.00    +0.122 A 
ATOM     17  N5  UNL     1      -3.001   3.534   0.858  0.00  0.00    -0.259 NA
ENDBRANCH   1  15
BRANCH   8  18
ATOM     18  C11 UNL     1       5.733  -1.768   0.259  0.00  0.00    +0.309 C 
ATOM     19  O1  UNL     1       6.470  -0.784   0.538  0.00  0.00    -0.251 OA
BRANCH  18  20
ATOM     20  O2  UNL     1       6.095  -3.040   0.694  0.00  0.00    -0.480 OA
ATOM     21  H11 UNL     1       6.923  -3.181   1.260  0.00  0.00    +0.295 HD
ENDBRANCH  18  20
ENDBRANCH   8  18
BRANCH  10  22
ATOM     22  C13 UNL     1      -0.300  -0.048   0.906  0.00  0.00    +0.132 C 
BRANCH  22  23
ATOM     23  C14 UNL     1      -1.648  -0.733   0.573  0.00  0.00    +0.037 C 
ATOM     24  C15 UNL     1      -2.141  -1.560   1.731  0.00  0.00    +0.035 C 
ATOM     25  C16 UNL     1      -1.608  -2.946   1.421  0.00  0.00    +0.160 C 
ATOM     26  O3  UNL     1      -1.301  -3.040   0.049  0.00  0.00    -0.379 OA
ATOM     27  C17 UNL     1      -1.533  -1.777  -0.529  0.00  0.00    +0.165 C 
ENDBRANCH  22  23
ENDBRANCH  10  22
TORSDOF 5
