REMARK  Name = /home/qwerty/github/datacon2025hack/step_04_hit_selection/docking/ligands/lig_280.pdb
REMARK  5 active torsions:
REMARK  status: ('A' for Active; 'I' for Inactive)
REMARK    1  A    between atoms: C1_1  and  C2_2
REMARK    2  A    between atoms: N1_4  and  C3_5
REMARK    3  A    between atoms: C6_8  and  C7_9
REMARK    4  A    between atoms: C11_15  and  C12_16
REMARK    5  A    between atoms: N3_18  and  C13_19
REMARK                            x       y       z     vdW  Elec       q    Type
REMARK                         _______ _______ _______ _____ _____    ______ ____
ROOT
ATOM      1  C7  UNL     1      -0.541   0.075  -0.619  0.00  0.00    +0.247 C 
ATOM      2  O2  UNL     1       0.217  -0.677  -1.292  0.00  0.00    -0.270 OA
ATOM      3  N2  UNL     1      -0.006   1.285  -0.049  0.00  0.00    -0.297 N 
ATOM      4  C8  UNL     1      -0.360   1.717   1.309  0.00  0.00    +0.108 C 
ATOM      5  C9  UNL     1       0.898   1.797   2.179  0.00  0.00    +0.020 C 
ATOM      6  C10 UNL     1       2.008   2.618   1.499  0.00  0.00    +0.016 C 
ATOM      7  C11 UNL     1       2.300   2.163   0.051  0.00  0.00    +0.093 C 
ATOM      8  C19 UNL     1       1.002   2.068  -0.771  0.00  0.00    +0.120 C 
ENDROOT
BRANCH   1  12
ATOM      9  C3  UNL     1      -4.679  -1.022  -0.162  0.00  0.00    +0.033 A 
ATOM     10  C4  UNL     1      -4.296   0.331  -0.136  0.00  0.00    +0.024 A 
ATOM     11  C5  UNL     1      -2.952   0.688  -0.281  0.00  0.00    +0.015 A 
ATOM     12  C6  UNL     1      -1.966  -0.298  -0.458  0.00  0.00    +0.037 A 
ATOM     13  C20 UNL     1      -2.357  -1.646  -0.524  0.00  0.00    +0.015 A 
ATOM     14  C21 UNL     1      -3.701  -2.002  -0.382  0.00  0.00    +0.024 A 
BRANCH   9  18
ATOM     15  C1  UNL     1      -8.461  -1.109   0.709  0.00  0.00    +0.109 C 
ATOM     16  C2  UNL     1      -7.018  -0.733   0.785  0.00  0.00    +0.214 C 
ATOM     17  O1  UNL     1      -6.649   0.128   1.629  0.00  0.00    -0.276 OA
ATOM     18  N1  UNL     1      -6.057  -1.416  -0.035  0.00  0.00    -0.286 N 
ATOM     19  H4  UNL     1      -6.360  -2.298  -0.507  0.00  0.00    +0.155 HD
ENDBRANCH   9  18
ENDBRANCH   1  12
BRANCH   7  20
ATOM     20  C12 UNL     1       3.077   0.866   0.002  0.00  0.00    +0.222 C 
ATOM     21  O3  UNL     1       2.591  -0.178   0.516  0.00  0.00    -0.275 OA
ATOM     22  N3  UNL     1       4.376   0.828  -0.613  0.00  0.00    -0.285 N 
ATOM     23  H14 UNL     1       4.884   1.733  -0.745  0.00  0.00    +0.155 HD
BRANCH  22  24
ATOM     24  C13 UNL     1       5.053  -0.384  -0.987  0.00  0.00    +0.034 A 
ATOM     25  C14 UNL     1       4.342  -1.520  -1.422  0.00  0.00    +0.026 A 
ATOM     26  C15 UNL     1       5.027  -2.681  -1.792  0.00  0.00    +0.040 A 
ATOM     27  C16 UNL     1       6.423  -2.717  -1.744  0.00  0.00    +0.124 A 
ATOM     28  F1  UNL     1       7.086  -3.848  -2.095  0.00  0.00    -0.205 F 
ATOM     29  C17 UNL     1       7.138  -1.587  -1.337  0.00  0.00    +0.040 A 
ATOM     30  C18 UNL     1       6.457  -0.422  -0.969  0.00  0.00    +0.026 A 
ENDBRANCH  22  24
ENDBRANCH   7  20
TORSDOF 4
