MODEL 1
REMARK VINA RESULT:    -6.019      0.000      0.000
REMARK INTER + INTRA:         -11.519
REMARK INTER:                  -9.186
REMARK INTRA:                  -2.333
REMARK UNBOUND:                -2.333
REMARK  Name = /home/qwerty/github/datacon2025hack/step_04_hit_selection/docking/ligands/lig_468.pdb
REMARK  12 active torsions:
REMARK  status: ('A' for Active; 'I' for Inactive)
REMARK    1  A    between atoms: C1_1  and  C2_2
REMARK    2  A    between atoms: C2_2  and  C3_3
REMARK    3  A    between atoms: C3_3  and  C4_4
REMARK    4  A    between atoms: C3_3  and  C5_5
REMARK    5  A    between atoms: N4_12  and  C9_13
REMARK    6  A    between atoms: C9_13  and  C10_14
REMARK    7  A    between atoms: N5_20  and  C13_21
REMARK    8  A    between atoms: C13_21  and  C14_22
REMARK    9  A    between atoms: C14_22  and  C15_23
REMARK   10  A    between atoms: C14_22  and  N6_31
REMARK   11  A    between atoms: C18_26  and  O1_27
REMARK   12  A    between atoms: O1_27  and  C19_28
REMARK                            x       y       z     vdW  Elec       q    Type
REMARK                         _______ _______ _______ _____ _____    ______ ____
ROOT
ATOM      1  C5  UNL     1       9.480   3.352  23.452  0.00  0.00    +0.138 A 
ATOM      2  N1  UNL     1       9.300   2.023  23.307  0.00  0.00    -0.132 NA
ATOM      3  N2  UNL     1      10.456   1.506  22.927  0.00  0.00    -0.113 NA
ATOM      4  C6  UNL     1      11.336   2.522  22.860  0.00  0.00    +0.220 A 
ATOM      5  N3  UNL     1      12.704   2.331  22.462  0.00  0.00    -0.297 N 
ATOM      6  C7  UNL     1      12.984   1.459  21.318  0.00  0.00    +0.123 C 
ATOM      7  C8  UNL     1      14.489   1.308  21.108  0.00  0.00    +0.103 C 
ATOM      8  N4  UNL     1      15.115   0.859  22.365  0.00  0.00    -0.291 NA
ATOM      9  C11 UNL     1      14.890   1.791  23.506  0.00  0.00    +0.103 C 
ATOM     10  C12 UNL     1      13.814   2.867  23.255  0.00  0.00    +0.123 C 
ATOM     11  N5  UNL     1      10.761   3.707  23.182  0.00  0.00    -0.297 N 
ENDROOT
BRANCH   1  12
ATOM     12  C3  UNL     1       8.374   4.289  23.892  0.00  0.00    +0.054 C 
ATOM     13  C4  UNL     1       7.922   3.954  25.319  0.00  0.00    +0.015 C 
BRANCH  12  15
ATOM     14  C1  UNL     1       7.563   4.786  21.469  0.00  0.00    +0.004 C 
ATOM     15  C2  UNL     1       7.198   4.332  22.886  0.00  0.00    +0.007 C 
ENDBRANCH  12  15
ENDBRANCH   1  12
BRANCH   8  16
ATOM     16  C9  UNL     1      16.550   0.559  22.159  0.00  0.00    +0.198 C 
BRANCH  16  17
ATOM     17  C10 UNL     1      16.792  -0.950  22.043  0.00  0.00    +0.402 C 
ATOM     18  F1  UNL     1      15.597  -1.622  22.224  0.00  0.00    -0.169 F 
ATOM     19  F2  UNL     1      17.688  -1.362  23.014  0.00  0.00    -0.169 F 
ATOM     20  F3  UNL     1      17.294  -1.272  20.794  0.00  0.00    -0.169 F 
ENDBRANCH  16  17
ENDBRANCH   8  16
BRANCH  11  21
ATOM     21  C13 UNL     1      11.330   5.064  23.139  0.00  0.00    +0.150 C 
BRANCH  21  22
ATOM     22  C14 UNL     1      11.302   5.647  21.704  0.00  0.00    +0.107 C 
BRANCH  22  23
ATOM     23  C15 UNL     1      12.697   5.561  21.105  0.00  0.00    -0.028 A 
ATOM     24  C16 UNL     1      12.920   4.857  19.908  0.00  0.00    +0.009 A 
ATOM     25  C17 UNL     1      14.207   4.761  19.373  0.00  0.00    +0.046 A 
ATOM     26  C18 UNL     1      15.290   5.372  20.012  0.00  0.00    +0.120 A 
ATOM     27  C20 UNL     1      15.069   6.089  21.204  0.00  0.00    +0.046 A 
ATOM     28  C21 UNL     1      13.783   6.185  21.741  0.00  0.00    +0.009 A 
BRANCH  26  29
ATOM     29  O1  UNL     1      16.561   5.255  19.429  0.00  0.00    -0.495 OA
ATOM     30  C19 UNL     1      17.233   6.309  18.748  0.00  0.00    +0.277 C 
ENDBRANCH  26  29
ENDBRANCH  22  23
BRANCH  22  31
ATOM     31  N6  UNL     1      10.824   7.055  21.705  0.00  0.00    -0.294 NA
ATOM     32  C22 UNL     1       9.941   7.363  22.840  0.00  0.00    +0.085 C 
ATOM     33  C23 UNL     1       8.997   8.471  22.398  0.00  0.00    +0.017 C 
ATOM     34  C24 UNL     1       9.115   8.530  20.887  0.00  0.00    +0.017 C 
ATOM     35  C25 UNL     1      10.019   7.369  20.516  0.00  0.00    +0.085 C 
ENDBRANCH  22  31
ENDBRANCH  21  22
ENDBRANCH  11  21
TORSDOF 9
ENDMDL
MODEL 2
REMARK VINA RESULT:    -5.702     13.278     15.595
REMARK INTER + INTRA:         -11.036
REMARK INTER:                  -8.710
REMARK INTRA:                  -2.326
REMARK UNBOUND:                -2.333
REMARK  Name = /home/qwerty/github/datacon2025hack/step_04_hit_selection/docking/ligands/lig_468.pdb
REMARK  12 active torsions:
REMARK  status: ('A' for Active; 'I' for Inactive)
REMARK    1  A    between atoms: C1_1  and  C2_2
REMARK    2  A    between atoms: C2_2  and  C3_3
REMARK    3  A    between atoms: C3_3  and  C4_4
REMARK    4  A    between atoms: C3_3  and  C5_5
REMARK    5  A    between atoms: N4_12  and  C9_13
REMARK    6  A    between atoms: C9_13  and  C10_14
REMARK    7  A    between atoms: N5_20  and  C13_21
REMARK    8  A    between atoms: C13_21  and  C14_22
REMARK    9  A    between atoms: C14_22  and  C15_23
REMARK   10  A    between atoms: C14_22  and  N6_31
REMARK   11  A    between atoms: C18_26  and  O1_27
REMARK   12  A    between atoms: O1_27  and  C19_28
REMARK                            x       y       z     vdW  Elec       q    Type
REMARK                         _______ _______ _______ _____ _____    ______ ____
ROOT
ATOM      1  C5  UNL     1      18.599   3.616  33.775  0.00  0.00    +0.138 A 
ATOM      2  N1  UNL     1      18.269   3.894  35.053  0.00  0.00    -0.132 NA
ATOM      3  N2  UNL     1      18.741   5.097  35.330  0.00  0.00    -0.113 NA
ATOM      4  C6  UNL     1      19.341   5.550  34.214  0.00  0.00    +0.220 A 
ATOM      5  N3  UNL     1      19.985   6.834  34.151  0.00  0.00    -0.297 N 
ATOM      6  C7  UNL     1      20.828   7.248  35.276  0.00  0.00    +0.123 C 
ATOM      7  C8  UNL     1      21.347   8.669  35.069  0.00  0.00    +0.103 C 
ATOM      8  N4  UNL     1      20.210   9.572  34.815  0.00  0.00    -0.291 NA
ATOM      9  C11 UNL     1      19.400   9.187  33.624  0.00  0.00    +0.103 C 
ATOM     10  C12 UNL     1      19.702   7.780  33.069  0.00  0.00    +0.123 C 
ATOM     11  N5  UNL     1      19.275   4.645  33.207  0.00  0.00    -0.297 N 
ENDROOT
BRANCH   1  12
ATOM     12  C3  UNL     1      18.215   2.320  33.090  0.00  0.00    +0.054 C 
ATOM     13  C4  UNL     1      16.919   1.759  33.689  0.00  0.00    +0.015 C 
BRANCH  12  15
ATOM     14  C1  UNL     1      19.091  -0.003  32.310  0.00  0.00    +0.004 C 
ATOM     15  C2  UNL     1      19.369   1.288  33.086  0.00  0.00    +0.007 C 
ENDBRANCH  12  15
ENDBRANCH   1  12
BRANCH   8  16
ATOM     16  C9  UNL     1      20.660  10.981  34.758  0.00  0.00    +0.198 C 
BRANCH  16  17
ATOM     17  C10 UNL     1      19.900  11.850  35.765  0.00  0.00    +0.402 C 
ATOM     18  F1  UNL     1      19.362  11.044  36.752  0.00  0.00    -0.169 F 
ATOM     19  F2  UNL     1      18.871  12.523  35.129  0.00  0.00    -0.169 F 
ATOM     20  F3  UNL     1      20.746  12.769  36.359  0.00  0.00    -0.169 F 
ENDBRANCH  16  17
ENDBRANCH   8  16
BRANCH  11  21
ATOM     21  C13 UNL     1      19.882   4.693  31.866  0.00  0.00    +0.150 C 
BRANCH  21  22
ATOM     22  C14 UNL     1      21.312   4.096  31.868  0.00  0.00    +0.107 C 
BRANCH  22  23
ATOM     23  C15 UNL     1      22.319   5.215  32.080  0.00  0.00    -0.028 A 
ATOM     24  C16 UNL     1      22.374   6.306  31.195  0.00  0.00    +0.009 A 
ATOM     25  C17 UNL     1      23.317   7.321  31.380  0.00  0.00    +0.046 A 
ATOM     26  C18 UNL     1      24.211   7.273  32.454  0.00  0.00    +0.120 A 
ATOM     27  C20 UNL     1      24.150   6.188  33.350  0.00  0.00    +0.046 A 
ATOM     28  C21 UNL     1      23.209   5.173  33.165  0.00  0.00    +0.009 A 
BRANCH  26  29
ATOM     29  O1  UNL     1      25.131   8.321  32.602  0.00  0.00    -0.495 OA
ATOM     30  C19 UNL     1      24.984   9.610  32.016  0.00  0.00    +0.277 C 
ENDBRANCH  26  29
ENDBRANCH  22  23
BRANCH  22  31
ATOM     31  N6  UNL     1      21.595   3.377  30.597  0.00  0.00    -0.294 NA
ATOM     32  C22 UNL     1      20.378   3.023  29.851  0.00  0.00    +0.085 C 
ATOM     33  C23 UNL     1      20.684   1.769  29.045  0.00  0.00    +0.017 C 
ATOM     34  C24 UNL     1      21.969   1.213  29.628  0.00  0.00    +0.017 C 
ATOM     35  C25 UNL     1      22.275   2.094  30.824  0.00  0.00    +0.085 C 
ENDBRANCH  22  31
ENDBRANCH  21  22
ENDBRANCH  11  21
TORSDOF 9
ENDMDL
MODEL 3
REMARK VINA RESULT:    -5.578      4.507      8.099
REMARK INTER + INTRA:         -10.846
REMARK INTER:                  -8.676
REMARK INTRA:                  -2.169
REMARK UNBOUND:                -2.333
REMARK  Name = /home/qwerty/github/datacon2025hack/step_04_hit_selection/docking/ligands/lig_468.pdb
REMARK  12 active torsions:
REMARK  status: ('A' for Active; 'I' for Inactive)
REMARK    1  A    between atoms: C1_1  and  C2_2
REMARK    2  A    between atoms: C2_2  and  C3_3
REMARK    3  A    between atoms: C3_3  and  C4_4
REMARK    4  A    between atoms: C3_3  and  C5_5
REMARK    5  A    between atoms: N4_12  and  C9_13
REMARK    6  A    between atoms: C9_13  and  C10_14
REMARK    7  A    between atoms: N5_20  and  C13_21
REMARK    8  A    between atoms: C13_21  and  C14_22
REMARK    9  A    between atoms: C14_22  and  C15_23
REMARK   10  A    between atoms: C14_22  and  N6_31
REMARK   11  A    between atoms: C18_26  and  O1_27
REMARK   12  A    between atoms: O1_27  and  C19_28
REMARK                            x       y       z     vdW  Elec       q    Type
REMARK                         _______ _______ _______ _____ _____    ______ ____
ROOT
ATOM      1  C5  UNL     1      15.055   3.207  21.243  0.00  0.00    +0.138 A 
ATOM      2  N1  UNL     1      15.344   4.471  20.874  0.00  0.00    -0.132 NA
ATOM      3  N2  UNL     1      14.214   5.157  20.894  0.00  0.00    -0.113 NA
ATOM      4  C6  UNL     1      13.248   4.309  21.292  0.00  0.00    +0.220 A 
ATOM      5  N3  UNL     1      11.873   4.711  21.418  0.00  0.00    -0.297 N 
ATOM      6  C7  UNL     1      11.289   5.543  20.362  0.00  0.00    +0.123 C 
ATOM      7  C8  UNL     1       9.858   5.942  20.715  0.00  0.00    +0.103 C 
ATOM      8  N4  UNL     1       9.842   6.572  22.048  0.00  0.00    -0.291 NA
ATOM      9  C11 UNL     1      10.367   5.691  23.129  0.00  0.00    +0.103 C 
ATOM     10  C12 UNL     1      11.100   4.429  22.630  0.00  0.00    +0.123 C 
ATOM     11  N5  UNL     1      13.735   3.065  21.522  0.00  0.00    -0.297 N 
ENDROOT
BRANCH   1  12
ATOM     12  C3  UNL     1      16.106   2.121  21.350  0.00  0.00    +0.054 C 
ATOM     13  C4  UNL     1      17.383   2.671  21.998  0.00  0.00    +0.015 C 
BRANCH  12  15
ATOM     14  C1  UNL     1      16.450  -0.108  20.050  0.00  0.00    +0.004 C 
ATOM     15  C2  UNL     1      16.376   1.421  19.996  0.00  0.00    +0.007 C 
ENDBRANCH  12  15
ENDBRANCH   1  12
BRANCH   8  16
ATOM     16  C9  UNL     1       8.497   7.105  22.360  0.00  0.00    +0.198 C 
BRANCH  16  17
ATOM     17  C10 UNL     1       8.494   8.638  22.370  0.00  0.00    +0.402 C 
ATOM     18  F1  UNL     1       8.245   9.104  21.092  0.00  0.00    -0.169 F 
ATOM     19  F2  UNL     1       9.726   9.111  22.786  0.00  0.00    -0.169 F 
ATOM     20  F3  UNL     1       7.511   9.122  23.215  0.00  0.00    -0.169 F 
ENDBRANCH  16  17
ENDBRANCH   8  16
BRANCH  11  21
ATOM     21  C13 UNL     1      13.016   1.829  21.869  0.00  0.00    +0.150 C 
BRANCH  21  22
ATOM     22  C14 UNL     1      13.028   1.572  23.396  0.00  0.00    +0.107 C 
BRANCH  22  23
ATOM     23  C15 UNL     1      14.240   0.724  23.749  0.00  0.00    -0.028 A 
ATOM     24  C16 UNL     1      14.459  -0.511  23.114  0.00  0.00    +0.009 A 
ATOM     25  C17 UNL     1      15.561  -1.298  23.458  0.00  0.00    +0.046 A 
ATOM     26  C18 UNL     1      16.468  -0.865  24.431  0.00  0.00    +0.120 A 
ATOM     27  C20 UNL     1      16.259   0.377  25.060  0.00  0.00    +0.046 A 
ATOM     28  C21 UNL     1      15.157   1.164  24.717  0.00  0.00    +0.009 A 
BRANCH  26  29
ATOM     29  O1  UNL     1      17.564  -1.686  24.734  0.00  0.00    -0.495 OA
ATOM     30  C19 UNL     1      17.619  -3.084  24.466  0.00  0.00    +0.277 C 
ENDBRANCH  26  29
ENDBRANCH  22  23
BRANCH  22  31
ATOM     31  N6  UNL     1      11.777   0.899  23.838  0.00  0.00    -0.294 NA
ATOM     32  C22 UNL     1      10.824   0.676  22.740  0.00  0.00    +0.085 C 
ATOM     33  C23 UNL     1       9.426   0.679  23.341  0.00  0.00    +0.017 C 
ATOM     34  C24 UNL     1       9.580   1.270  24.730  0.00  0.00    +0.017 C 
ATOM     35  C25 UNL     1      11.031   1.701  24.818  0.00  0.00    +0.085 C 
ENDBRANCH  22  31
ENDBRANCH  21  22
ENDBRANCH  11  21
TORSDOF 9
ENDMDL
MODEL 4
REMARK VINA RESULT:    -5.516     12.541     14.638
REMARK INTER + INTRA:         -10.751
REMARK INTER:                  -8.575
REMARK INTRA:                  -2.175
REMARK UNBOUND:                -2.333
REMARK  Name = /home/qwerty/github/datacon2025hack/step_04_hit_selection/docking/ligands/lig_468.pdb
REMARK  12 active torsions:
REMARK  status: ('A' for Active; 'I' for Inactive)
REMARK    1  A    between atoms: C1_1  and  C2_2
REMARK    2  A    between atoms: C2_2  and  C3_3
REMARK    3  A    between atoms: C3_3  and  C4_4
REMARK    4  A    between atoms: C3_3  and  C5_5
REMARK    5  A    between atoms: N4_12  and  C9_13
REMARK    6  A    between atoms: C9_13  and  C10_14
REMARK    7  A    between atoms: N5_20  and  C13_21
REMARK    8  A    between atoms: C13_21  and  C14_22
REMARK    9  A    between atoms: C14_22  and  C15_23
REMARK   10  A    between atoms: C14_22  and  N6_31
REMARK   11  A    between atoms: C18_26  and  O1_27
REMARK   12  A    between atoms: O1_27  and  C19_28
REMARK                            x       y       z     vdW  Elec       q    Type
REMARK                         _______ _______ _______ _____ _____    ______ ____
ROOT
ATOM      1  C5  UNL     1      14.262  12.883  29.559  0.00  0.00    +0.138 A 
ATOM      2  N1  UNL     1      15.513  12.472  29.274  0.00  0.00    -0.132 NA
ATOM      3  N2  UNL     1      16.204  12.492  30.401  0.00  0.00    -0.113 NA
ATOM      4  C6  UNL     1      15.361  12.900  31.368  0.00  0.00    +0.220 A 
ATOM      5  N3  UNL     1      15.776  13.054  32.736  0.00  0.00    -0.297 N 
ATOM      6  C7  UNL     1      17.066  13.695  33.008  0.00  0.00    +0.123 C 
ATOM      7  C8  UNL     1      17.372  13.684  34.504  0.00  0.00    +0.103 C 
ATOM      8  N4  UNL     1      17.275  12.304  35.012  0.00  0.00    -0.291 NA
ATOM      9  C11 UNL     1      15.935  11.685  34.800  0.00  0.00    +0.103 C 
ATOM     10  C12 UNL     1      15.013  12.462  33.839  0.00  0.00    +0.123 C 
ATOM     11  N5  UNL     1      14.124  13.159  30.880  0.00  0.00    -0.297 N 
ENDROOT
BRANCH   1  12
ATOM     12  C3  UNL     1      13.169  12.980  28.514  0.00  0.00    +0.054 C 
ATOM     13  C4  UNL     1      13.139  11.714  27.649  0.00  0.00    +0.015 C 
BRANCH  12  15
ATOM     14  C1  UNL     1      12.064  15.221  27.784  0.00  0.00    +0.004 C 
ATOM     15  C2  UNL     1      13.265  14.277  27.674  0.00  0.00    +0.007 C 
ENDBRANCH  12  15
ENDBRANCH   1  12
BRANCH   8  16
ATOM     16  C9  UNL     1      17.710  12.233  36.426  0.00  0.00    +0.198 C 
BRANCH  16  17
ATOM     17  C10 UNL     1      19.112  11.626  36.547  0.00  0.00    +0.402 C 
ATOM     18  F1  UNL     1      19.440  10.989  35.364  0.00  0.00    -0.169 F 
ATOM     19  F2  UNL     1      19.140  10.701  37.576  0.00  0.00    -0.169 F 
ATOM     20  F3  UNL     1      20.053  12.610  36.793  0.00  0.00    -0.169 F 
ENDBRANCH  16  17
ENDBRANCH   8  16
BRANCH  11  21
ATOM     21  C13 UNL     1      12.946  13.716  31.566  0.00  0.00    +0.150 C 
BRANCH  21  22
ATOM     22  C14 UNL     1      11.986  12.600  32.046  0.00  0.00    +0.107 C 
BRANCH  22  23
ATOM     23  C15 UNL     1      10.960  12.322  30.959  0.00  0.00    -0.028 A 
ATOM     24  C16 UNL     1      10.228  13.374  30.380  0.00  0.00    +0.009 A 
ATOM     25  C17 UNL     1       9.270  13.112  29.398  0.00  0.00    +0.046 A 
ATOM     26  C18 UNL     1       9.032  11.803  28.968  0.00  0.00    +0.120 A 
ATOM     27  C20 UNL     1       9.772  10.748  29.536  0.00  0.00    +0.046 A 
ATOM     28  C21 UNL     1      10.730  11.009  30.519  0.00  0.00    +0.009 A 
BRANCH  26  29
ATOM     29  O1  UNL     1       8.066  11.593  27.972  0.00  0.00    -0.495 OA
ATOM     30  C19 UNL     1       8.291  10.852  26.778  0.00  0.00    +0.277 C 
ENDBRANCH  26  29
ENDBRANCH  22  23
BRANCH  22  31
ATOM     31  N6  UNL     1      11.308  12.983  33.314  0.00  0.00    -0.294 NA
ATOM     32  C22 UNL     1      11.927  14.144  33.970  0.00  0.00    +0.085 C 
ATOM     33  C23 UNL     1      11.679  14.010  35.466  0.00  0.00    +0.017 C 
ATOM     34  C24 UNL     1      11.232  12.577  35.679  0.00  0.00    +0.017 C 
ATOM     35  C25 UNL     1      11.369  11.914  34.321  0.00  0.00    +0.085 C 
ENDBRANCH  22  31
ENDBRANCH  21  22
ENDBRANCH  11  21
TORSDOF 9
ENDMDL
MODEL 5
REMARK VINA RESULT:    -5.449      6.854     10.177
REMARK INTER + INTRA:         -10.648
REMARK INTER:                  -8.756
REMARK INTRA:                  -1.892
REMARK UNBOUND:                -2.333
REMARK  Name = /home/qwerty/github/datacon2025hack/step_04_hit_selection/docking/ligands/lig_468.pdb
REMARK  12 active torsions:
REMARK  status: ('A' for Active; 'I' for Inactive)
REMARK    1  A    between atoms: C1_1  and  C2_2
REMARK    2  A    between atoms: C2_2  and  C3_3
REMARK    3  A    between atoms: C3_3  and  C4_4
REMARK    4  A    between atoms: C3_3  and  C5_5
REMARK    5  A    between atoms: N4_12  and  C9_13
REMARK    6  A    between atoms: C9_13  and  C10_14
REMARK    7  A    between atoms: N5_20  and  C13_21
REMARK    8  A    between atoms: C13_21  and  C14_22
REMARK    9  A    between atoms: C14_22  and  C15_23
REMARK   10  A    between atoms: C14_22  and  N6_31
REMARK   11  A    between atoms: C18_26  and  O1_27
REMARK   12  A    between atoms: O1_27  and  C19_28
REMARK                            x       y       z     vdW  Elec       q    Type
REMARK                         _______ _______ _______ _____ _____    ______ ____
ROOT
ATOM      1  C5  UNL     1       8.484   8.275  22.109  0.00  0.00    +0.138 A 
ATOM      2  N1  UNL     1       7.865   9.465  21.972  0.00  0.00    -0.132 NA
ATOM      3  N2  UNL     1       8.060  10.144  23.089  0.00  0.00    -0.113 NA
ATOM      4  C6  UNL     1       8.813   9.369  23.892  0.00  0.00    +0.220 A 
ATOM      5  N3  UNL     1       9.214   9.783  25.209  0.00  0.00    -0.297 N 
ATOM      6  C7  UNL     1       8.223  10.436  26.068  0.00  0.00    +0.123 C 
ATOM      7  C8  UNL     1       8.857  10.884  27.383  0.00  0.00    +0.103 C 
ATOM      8  N4  UNL     1      10.037  11.719  27.097  0.00  0.00    -0.291 NA
ATOM      9  C11 UNL     1      11.076  11.022  26.285  0.00  0.00    +0.103 C 
ATOM     10  C12 UNL     1      10.610   9.698  25.647  0.00  0.00    +0.123 C 
ATOM     11  N5  UNL     1       9.103   8.178  23.312  0.00  0.00    -0.297 N 
ENDROOT
BRANCH   1  12
ATOM     12  C3  UNL     1       8.491   7.221  21.020  0.00  0.00    +0.054 C 
ATOM     13  C4  UNL     1       7.421   6.158  21.295  0.00  0.00    +0.015 C 
BRANCH  12  15
ATOM     14  C1  UNL     1      10.971   7.600  20.327  0.00  0.00    +0.004 C 
ATOM     15  C2  UNL     1       9.896   6.613  20.793  0.00  0.00    +0.007 C 
ENDBRANCH  12  15
ENDBRANCH   1  12
BRANCH   8  16
ATOM     16  C9  UNL     1      10.590  12.294  28.344  0.00  0.00    +0.198 C 
BRANCH  16  17
ATOM     17  C10 UNL     1      10.021  13.691  28.614  0.00  0.00    +0.402 C 
ATOM     18  F1  UNL     1       9.013  13.601  29.557  0.00  0.00    -0.169 F 
ATOM     19  F2  UNL     1       9.497  14.221  27.448  0.00  0.00    -0.169 F 
ATOM     20  F3  UNL     1      11.003  14.537  29.097  0.00  0.00    -0.169 F 
ENDBRANCH  16  17
ENDBRANCH   8  16
BRANCH  11  21
ATOM     21  C13 UNL     1       9.804   7.012  23.873  0.00  0.00    +0.150 C 
BRANCH  21  22
ATOM     22  C14 UNL     1       8.827   6.057  24.602  0.00  0.00    +0.107 C 
BRANCH  22  23
ATOM     23  C15 UNL     1       8.707   6.482  26.057  0.00  0.00    -0.028 A 
ATOM     24  C16 UNL     1       7.467   6.882  26.586  0.00  0.00    +0.009 A 
ATOM     25  C17 UNL     1       7.365   7.295  27.917  0.00  0.00    +0.046 A 
ATOM     26  C18 UNL     1       8.491   7.305  28.746  0.00  0.00    +0.120 A 
ATOM     27  C20 UNL     1       9.733   6.893  28.223  0.00  0.00    +0.046 A 
ATOM     28  C21 UNL     1       9.836   6.481  26.892  0.00  0.00    +0.009 A 
BRANCH  26  29
ATOM     29  O1  UNL     1       8.336   7.718  30.077  0.00  0.00    -0.495 OA
ATOM     30  C19 UNL     1       7.093   8.094  30.662  0.00  0.00    +0.277 C 
ENDBRANCH  26  29
ENDBRANCH  22  23
BRANCH  22  31
ATOM     31  N6  UNL     1       9.287   4.645  24.511  0.00  0.00    -0.294 NA
ATOM     32  C22 UNL     1      10.525   4.491  23.732  0.00  0.00    +0.085 C 
ATOM     33  C23 UNL     1      10.508   3.100  23.115  0.00  0.00    +0.017 C 
ATOM     34  C24 UNL     1       9.080   2.609  23.256  0.00  0.00    +0.017 C 
ATOM     35  C25 UNL     1       8.311   3.786  23.825  0.00  0.00    +0.085 C 
ENDBRANCH  22  31
ENDBRANCH  21  22
ENDBRANCH  11  21
TORSDOF 9
ENDMDL
MODEL 6
REMARK VINA RESULT:    -5.433      2.250      3.958
REMARK INTER + INTRA:         -10.624
REMARK INTER:                  -8.912
REMARK INTRA:                  -1.713
REMARK UNBOUND:                -2.333
REMARK  Name = /home/qwerty/github/datacon2025hack/step_04_hit_selection/docking/ligands/lig_468.pdb
REMARK  12 active torsions:
REMARK  status: ('A' for Active; 'I' for Inactive)
REMARK    1  A    between atoms: C1_1  and  C2_2
REMARK    2  A    between atoms: C2_2  and  C3_3
REMARK    3  A    between atoms: C3_3  and  C4_4
REMARK    4  A    between atoms: C3_3  and  C5_5
REMARK    5  A    between atoms: N4_12  and  C9_13
REMARK    6  A    between atoms: C9_13  and  C10_14
REMARK    7  A    between atoms: N5_20  and  C13_21
REMARK    8  A    between atoms: C13_21  and  C14_22
REMARK    9  A    between atoms: C14_22  and  C15_23
REMARK   10  A    between atoms: C14_22  and  N6_31
REMARK   11  A    between atoms: C18_26  and  O1_27
REMARK   12  A    between atoms: O1_27  and  C19_28
REMARK                            x       y       z     vdW  Elec       q    Type
REMARK                         _______ _______ _______ _____ _____    ______ ____
ROOT
ATOM      1  C5  UNL     1       9.546   3.537  22.237  0.00  0.00    +0.138 A 
ATOM      2  N1  UNL     1       9.381   2.237  22.552  0.00  0.00    -0.132 NA
ATOM      3  N2  UNL     1      10.562   1.652  22.449  0.00  0.00    -0.113 NA
ATOM      4  C6  UNL     1      11.441   2.605  22.087  0.00  0.00    +0.220 A 
ATOM      5  N3  UNL     1      12.834   2.326  21.867  0.00  0.00    -0.297 N 
ATOM      6  C7  UNL     1      13.195   1.120  21.118  0.00  0.00    +0.123 C 
ATOM      7  C8  UNL     1      14.711   0.946  21.067  0.00  0.00    +0.103 C 
ATOM      8  N4  UNL     1      15.252   0.979  22.438  0.00  0.00    -0.291 NA
ATOM      9  C11 UNL     1      14.946   2.242  23.168  0.00  0.00    +0.103 C 
ATOM     10  C12 UNL     1      13.885   3.134  22.491  0.00  0.00    +0.123 C 
ATOM     11  N5  UNL     1      10.841   3.812  21.941  0.00  0.00    -0.297 N 
ENDROOT
BRANCH   1  12
ATOM     12  C3  UNL     1       8.408   4.538  22.254  0.00  0.00    +0.054 C 
ATOM     13  C4  UNL     1       7.290   4.065  23.192  0.00  0.00    +0.015 C 
BRANCH  12  15
ATOM     14  C1  UNL     1       7.298   6.276  20.667  0.00  0.00    +0.004 C 
ATOM     15  C2  UNL     1       7.894   4.875  20.833  0.00  0.00    +0.007 C 
ENDBRANCH  12  15
ENDBRANCH   1  12
BRANCH   8  16
ATOM     16  C9  UNL     1      16.699   0.666  22.439  0.00  0.00    +0.198 C 
BRANCH  16  17
ATOM     17  C10 UNL     1      16.944  -0.836  22.623  0.00  0.00    +0.402 C 
ATOM     18  F1  UNL     1      15.750  -1.460  22.939  0.00  0.00    -0.169 F 
ATOM     19  F2  UNL     1      17.844  -1.046  23.653  0.00  0.00    -0.169 F 
ATOM     20  F3  UNL     1      17.441  -1.399  21.461  0.00  0.00    -0.169 F 
ENDBRANCH  16  17
ENDBRANCH   8  16
BRANCH  11  21
ATOM     21  C13 UNL     1      11.405   5.085  21.464  0.00  0.00    +0.150 C 
BRANCH  21  22
ATOM     22  C14 UNL     1      11.421   6.155  22.584  0.00  0.00    +0.107 C 
BRANCH  22  23
ATOM     23  C15 UNL     1      10.622   7.366  22.127  0.00  0.00    -0.028 A 
ATOM     24  C16 UNL     1       9.800   8.064  23.030  0.00  0.00    +0.009 A 
ATOM     25  C17 UNL     1       9.050   9.161  22.600  0.00  0.00    +0.046 A 
ATOM     26  C18 UNL     1       9.113   9.589  21.271  0.00  0.00    +0.120 A 
ATOM     27  C20 UNL     1       9.945   8.901  20.367  0.00  0.00    +0.046 A 
ATOM     28  C21 UNL     1      10.694   7.803  20.794  0.00  0.00    +0.009 A 
BRANCH  26  29
ATOM     29  O1  UNL     1       8.348  10.702  20.892  0.00  0.00    -0.495 OA
ATOM     30  C19 UNL     1       7.524  11.452  21.778  0.00  0.00    +0.277 C 
ENDBRANCH  26  29
ENDBRANCH  22  23
BRANCH  22  31
ATOM     31  N6  UNL     1      12.812   6.552  22.929  0.00  0.00    -0.294 NA
ATOM     32  C22 UNL     1      12.873   7.698  23.849  0.00  0.00    +0.085 C 
ATOM     33  C23 UNL     1      14.177   8.434  23.576  0.00  0.00    +0.017 C 
ATOM     34  C24 UNL     1      14.675   7.903  22.246  0.00  0.00    +0.017 C 
ATOM     35  C25 UNL     1      13.575   6.985  21.749  0.00  0.00    +0.085 C 
ENDBRANCH  22  31
ENDBRANCH  21  22
ENDBRANCH  11  21
TORSDOF 9
ENDMDL
MODEL 7
REMARK VINA RESULT:    -5.420      4.669      8.789
REMARK INTER + INTRA:         -10.605
REMARK INTER:                  -8.482
REMARK INTRA:                  -2.123
REMARK UNBOUND:                -2.333
REMARK  Name = /home/qwerty/github/datacon2025hack/step_04_hit_selection/docking/ligands/lig_468.pdb
REMARK  12 active torsions:
REMARK  status: ('A' for Active; 'I' for Inactive)
REMARK    1  A    between atoms: C1_1  and  C2_2
REMARK    2  A    between atoms: C2_2  and  C3_3
REMARK    3  A    between atoms: C3_3  and  C4_4
REMARK    4  A    between atoms: C3_3  and  C5_5
REMARK    5  A    between atoms: N4_12  and  C9_13
REMARK    6  A    between atoms: C9_13  and  C10_14
REMARK    7  A    between atoms: N5_20  and  C13_21
REMARK    8  A    between atoms: C13_21  and  C14_22
REMARK    9  A    between atoms: C14_22  and  C15_23
REMARK   10  A    between atoms: C14_22  and  N6_31
REMARK   11  A    between atoms: C18_26  and  O1_27
REMARK   12  A    between atoms: O1_27  and  C19_28
REMARK                            x       y       z     vdW  Elec       q    Type
REMARK                         _______ _______ _______ _____ _____    ______ ____
ROOT
ATOM      1  C5  UNL     1      14.628   2.226  21.417  0.00  0.00    +0.138 A 
ATOM      2  N1  UNL     1      14.243   2.574  20.173  0.00  0.00    -0.132 NA
ATOM      3  N2  UNL     1      13.064   3.163  20.273  0.00  0.00    -0.113 NA
ATOM      4  C6  UNL     1      12.747   3.185  21.580  0.00  0.00    +0.220 A 
ATOM      5  N3  UNL     1      11.515   3.745  22.065  0.00  0.00    -0.297 N 
ATOM      6  C7  UNL     1      10.277   3.444  21.340  0.00  0.00    +0.123 C 
ATOM      7  C8  UNL     1       9.097   4.197  21.948  0.00  0.00    +0.103 C 
ATOM      8  N4  UNL     1       9.415   5.636  22.009  0.00  0.00    -0.291 NA
ATOM      9  C11 UNL     1      10.633   5.941  22.812  0.00  0.00    +0.103 C 
ATOM     10  C12 UNL     1      11.494   4.711  23.167  0.00  0.00    +0.123 C 
ATOM     11  N5  UNL     1      13.707   2.602  22.340  0.00  0.00    -0.297 N 
ENDROOT
BRANCH   1  12
ATOM     12  C3  UNL     1      15.944   1.533  21.708  0.00  0.00    +0.054 C 
ATOM     13  C4  UNL     1      17.092   2.227  20.966  0.00  0.00    +0.015 C 
BRANCH  12  15
ATOM     14  C1  UNL     1      16.486  -0.439  20.098  0.00  0.00    +0.004 C 
ATOM     15  C2  UNL     1      15.885   0.011  21.434  0.00  0.00    +0.007 C 
ENDBRANCH  12  15
ENDBRANCH   1  12
BRANCH   8  16
ATOM     16  C9  UNL     1       8.238   6.416  22.454  0.00  0.00    +0.198 C 
BRANCH  16  17
ATOM     17  C10 UNL     1       7.734   7.345  21.344  0.00  0.00    +0.402 C 
ATOM     18  F1  UNL     1       6.447   6.982  20.992  0.00  0.00    -0.169 F 
ATOM     19  F2  UNL     1       8.549   7.237  20.231  0.00  0.00    -0.169 F 
ATOM     20  F3  UNL     1       7.720   8.660  21.772  0.00  0.00    -0.169 F 
ENDBRANCH  16  17
ENDBRANCH   8  16
BRANCH  11  21
ATOM     21  C13 UNL     1      13.715   2.325  23.785  0.00  0.00    +0.150 C 
BRANCH  21  22
ATOM     22  C14 UNL     1      13.161   0.913  24.098  0.00  0.00    +0.107 C 
BRANCH  22  23
ATOM     23  C15 UNL     1      11.736   1.039  24.612  0.00  0.00    -0.028 A 
ATOM     24  C16 UNL     1      11.486   1.357  25.959  0.00  0.00    +0.009 A 
ATOM     25  C17 UNL     1      10.175   1.449  26.433  0.00  0.00    +0.046 A 
ATOM     26  C18 UNL     1       9.092   1.238  25.574  0.00  0.00    +0.120 A 
ATOM     27  C20 UNL     1       9.338   0.932  24.221  0.00  0.00    +0.046 A 
ATOM     28  C21 UNL     1      10.648   0.839  23.746  0.00  0.00    +0.009 A 
BRANCH  26  29
ATOM     29  O1  UNL     1       7.795   1.352  26.095  0.00  0.00    -0.495 OA
ATOM     30  C19 UNL     1       7.368   0.770  27.322  0.00  0.00    +0.277 C 
ENDBRANCH  26  29
ENDBRANCH  22  23
BRANCH  22  31
ATOM     31  N6  UNL     1      14.012   0.210  25.095  0.00  0.00    -0.294 NA
ATOM     32  C22 UNL     1      15.327   0.842  25.278  0.00  0.00    +0.085 C 
ATOM     33  C23 UNL     1      16.304  -0.248  25.693  0.00  0.00    +0.017 C 
ATOM     34  C24 UNL     1      15.607  -1.560  25.387  0.00  0.00    +0.017 C 
ATOM     35  C25 UNL     1      14.318  -1.170  24.689  0.00  0.00    +0.085 C 
ENDBRANCH  22  31
ENDBRANCH  21  22
ENDBRANCH  11  21
TORSDOF 9
ENDMDL
MODEL 8
REMARK VINA RESULT:    -5.419      5.447      7.758
REMARK INTER + INTRA:         -10.604
REMARK INTER:                  -8.288
REMARK INTRA:                  -2.316
REMARK UNBOUND:                -2.333
REMARK  Name = /home/qwerty/github/datacon2025hack/step_04_hit_selection/docking/ligands/lig_468.pdb
REMARK  12 active torsions:
REMARK  status: ('A' for Active; 'I' for Inactive)
REMARK    1  A    between atoms: C1_1  and  C2_2
REMARK    2  A    between atoms: C2_2  and  C3_3
REMARK    3  A    between atoms: C3_3  and  C4_4
REMARK    4  A    between atoms: C3_3  and  C5_5
REMARK    5  A    between atoms: N4_12  and  C9_13
REMARK    6  A    between atoms: C9_13  and  C10_14
REMARK    7  A    between atoms: N5_20  and  C13_21
REMARK    8  A    between atoms: C13_21  and  C14_22
REMARK    9  A    between atoms: C14_22  and  C15_23
REMARK   10  A    between atoms: C14_22  and  N6_31
REMARK   11  A    between atoms: C18_26  and  O1_27
REMARK   12  A    between atoms: O1_27  and  C19_28
REMARK                            x       y       z     vdW  Elec       q    Type
REMARK                         _______ _______ _______ _____ _____    ______ ____
ROOT
ATOM      1  C5  UNL     1      15.577   0.361  24.741  0.00  0.00    +0.138 A 
ATOM      2  N1  UNL     1      15.997  -0.792  25.299  0.00  0.00    -0.132 NA
ATOM      3  N2  UNL     1      17.164  -0.553  25.872  0.00  0.00    -0.113 NA
ATOM      4  C6  UNL     1      17.437   0.750  25.673  0.00  0.00    +0.220 A 
ATOM      5  N3  UNL     1      18.644   1.366  26.153  0.00  0.00    -0.297 N 
ATOM      6  C7  UNL     1      19.909   0.644  25.990  0.00  0.00    +0.123 C 
ATOM      7  C8  UNL     1      21.059   1.411  26.639  0.00  0.00    +0.103 C 
ATOM      8  N4  UNL     1      20.718   1.705  28.043  0.00  0.00    -0.291 NA
ATOM      9  C11 UNL     1      19.470   2.505  28.197  0.00  0.00    +0.103 C 
ATOM     10  C12 UNL     1      18.616   2.615  26.918  0.00  0.00    +0.123 C 
ATOM     11  N5  UNL     1      16.461   1.365  24.962  0.00  0.00    -0.297 N 
ENDROOT
BRANCH   1  12
ATOM     12  C3  UNL     1      14.262   0.484  23.998  0.00  0.00    +0.054 C 
ATOM     13  C4  UNL     1      13.096   0.040  24.890  0.00  0.00    +0.015 C 
BRANCH  12  15
ATOM     14  C1  UNL     1      15.621  -0.207  21.888  0.00  0.00    +0.004 C 
ATOM     15  C2  UNL     1      14.282  -0.245  22.632  0.00  0.00    +0.007 C 
ENDBRANCH  12  15
ENDBRANCH   1  12
BRANCH   8  16
ATOM     16  C9  UNL     1      21.869   2.316  28.746  0.00  0.00    +0.198 C 
BRANCH  16  17
ATOM     17  C10 UNL     1      22.607   1.285  29.608  0.00  0.00    +0.402 C 
ATOM     18  F1  UNL     1      23.826   0.991  29.026  0.00  0.00    -0.169 F 
ATOM     19  F2  UNL     1      21.861   0.123  29.696  0.00  0.00    -0.169 F 
ATOM     20  F3  UNL     1      22.832   1.779  30.880  0.00  0.00    -0.169 F 
ENDBRANCH  16  17
ENDBRANCH   8  16
BRANCH  11  21
ATOM     21  C13 UNL     1      16.409   2.742  24.443  0.00  0.00    +0.150 C 
BRANCH  21  22
ATOM     22  C14 UNL     1      17.249   2.895  23.151  0.00  0.00    +0.107 C 
BRANCH  22  23
ATOM     23  C15 UNL     1      18.538   3.632  23.478  0.00  0.00    -0.028 A 
ATOM     24  C16 UNL     1      19.786   3.028  23.246  0.00  0.00    +0.009 A 
ATOM     25  C17 UNL     1      20.968   3.699  23.570  0.00  0.00    +0.046 A 
ATOM     26  C18 UNL     1      20.928   4.985  24.119  0.00  0.00    +0.120 A 
ATOM     27  C20 UNL     1      19.680   5.598  24.342  0.00  0.00    +0.046 A 
ATOM     28  C21 UNL     1      18.497   4.927  24.019  0.00  0.00    +0.009 A 
BRANCH  26  29
ATOM     29  O1  UNL     1      22.142   5.621  24.418  0.00  0.00    -0.495 OA
ATOM     30  C19 UNL     1      23.042   5.197  25.436  0.00  0.00    +0.277 C 
ENDBRANCH  26  29
ENDBRANCH  22  23
BRANCH  22  31
ATOM     31  N6  UNL     1      16.488   3.622  22.099  0.00  0.00    -0.294 NA
ATOM     32  C22 UNL     1      15.031   3.474  22.235  0.00  0.00    +0.085 C 
ATOM     33  C23 UNL     1      14.428   3.598  20.843  0.00  0.00    +0.017 C 
ATOM     34  C24 UNL     1      15.590   3.451  19.880  0.00  0.00    +0.017 C 
ATOM     35  C25 UNL     1      16.786   3.119  20.750  0.00  0.00    +0.085 C 
ENDBRANCH  22  31
ENDBRANCH  21  22
ENDBRANCH  11  21
TORSDOF 9
ENDMDL
MODEL 9
REMARK VINA RESULT:    -5.417     12.525     14.741
REMARK INTER + INTRA:         -10.601
REMARK INTER:                  -8.470
REMARK INTRA:                  -2.130
REMARK UNBOUND:                -2.333
REMARK  Name = /home/qwerty/github/datacon2025hack/step_04_hit_selection/docking/ligands/lig_468.pdb
REMARK  12 active torsions:
REMARK  status: ('A' for Active; 'I' for Inactive)
REMARK    1  A    between atoms: C1_1  and  C2_2
REMARK    2  A    between atoms: C2_2  and  C3_3
REMARK    3  A    between atoms: C3_3  and  C4_4
REMARK    4  A    between atoms: C3_3  and  C5_5
REMARK    5  A    between atoms: N4_12  and  C9_13
REMARK    6  A    between atoms: C9_13  and  C10_14
REMARK    7  A    between atoms: N5_20  and  C13_21
REMARK    8  A    between atoms: C13_21  and  C14_22
REMARK    9  A    between atoms: C14_22  and  C15_23
REMARK   10  A    between atoms: C14_22  and  N6_31
REMARK   11  A    between atoms: C18_26  and  O1_27
REMARK   12  A    between atoms: O1_27  and  C19_28
REMARK                            x       y       z     vdW  Elec       q    Type
REMARK                         _______ _______ _______ _____ _____    ______ ____
ROOT
ATOM      1  C5  UNL     1      21.041   6.543  34.884  0.00  0.00    +0.138 A 
ATOM      2  N1  UNL     1      22.277   6.008  34.951  0.00  0.00    -0.132 NA
ATOM      3  N2  UNL     1      22.258   4.880  34.263  0.00  0.00    -0.113 NA
ATOM      4  C6  UNL     1      21.014   4.745  33.768  0.00  0.00    +0.220 A 
ATOM      5  N3  UNL     1      20.620   3.615  32.970  0.00  0.00    -0.297 N 
ATOM      6  C7  UNL     1      21.049   2.278  33.392  0.00  0.00    +0.123 C 
ATOM      7  C8  UNL     1      20.615   1.224  32.376  0.00  0.00    +0.103 C 
ATOM      8  N4  UNL     1      21.098   1.609  31.037  0.00  0.00    -0.291 NA
ATOM      9  C11 UNL     1      20.595   2.937  30.583  0.00  0.00    +0.103 C 
ATOM     10  C12 UNL     1      19.931   3.785  31.688  0.00  0.00    +0.123 C 
ATOM     11  N5  UNL     1      20.212   5.773  34.137  0.00  0.00    -0.297 N 
ENDROOT
BRANCH   1  12
ATOM     12  C3  UNL     1      20.676   7.855  35.548  0.00  0.00    +0.054 C 
ATOM     13  C4  UNL     1      21.833   8.856  35.432  0.00  0.00    +0.015 C 
BRANCH  12  15
ATOM     14  C1  UNL     1      19.188   8.713  37.503  0.00  0.00    +0.004 C 
ATOM     15  C2  UNL     1      20.191   7.668  37.006  0.00  0.00    +0.007 C 
ENDBRANCH  12  15
ENDBRANCH   1  12
BRANCH   8  16
ATOM     16  C9  UNL     1      20.824   0.538  30.052  0.00  0.00    +0.198 C 
BRANCH  16  17
ATOM     17  C10 UNL     1      22.081   0.189  29.247  0.00  0.00    +0.402 C 
ATOM     18  F1  UNL     1      23.162   0.880  29.761  0.00  0.00    -0.169 F 
ATOM     19  F2  UNL     1      21.908   0.550  27.922  0.00  0.00    -0.169 F 
ATOM     20  F3  UNL     1      22.349  -1.167  29.318  0.00  0.00    -0.169 F 
ENDBRANCH  16  17
ENDBRANCH   8  16
BRANCH  11  21
ATOM     21  C13 UNL     1      18.771   5.966  33.903  0.00  0.00    +0.150 C 
BRANCH  21  22
ATOM     22  C14 UNL     1      17.935   5.581  35.149  0.00  0.00    +0.107 C 
BRANCH  22  23
ATOM     23  C15 UNL     1      17.684   4.081  35.136  0.00  0.00    -0.028 A 
ATOM     24  C16 UNL     1      17.104   3.462  34.015  0.00  0.00    +0.009 A 
ATOM     25  C17 UNL     1      16.852   2.087  34.017  0.00  0.00    +0.046 A 
ATOM     26  C18 UNL     1      17.185   1.305  35.127  0.00  0.00    +0.120 A 
ATOM     27  C20 UNL     1      17.779   1.920  36.247  0.00  0.00    +0.046 A 
ATOM     28  C21 UNL     1      18.029   3.294  36.247  0.00  0.00    +0.009 A 
BRANCH  26  29
ATOM     29  O1  UNL     1      16.923  -0.071  35.076  0.00  0.00    -0.495 OA
ATOM     30  C19 UNL     1      16.373  -0.826  36.151  0.00  0.00    +0.277 C 
ENDBRANCH  26  29
ENDBRANCH  22  23
BRANCH  22  31
ATOM     31  N6  UNL     1      16.646   6.322  35.181  0.00  0.00    -0.294 NA
ATOM     32  C22 UNL     1      16.700   7.603  34.460  0.00  0.00    +0.085 C 
ATOM     33  C23 UNL     1      15.694   8.539  35.113  0.00  0.00    +0.017 C 
ATOM     34  C24 UNL     1      15.338   7.893  36.439  0.00  0.00    +0.017 C 
ATOM     35  C25 UNL     1      16.249   6.686  36.549  0.00  0.00    +0.085 C 
ENDBRANCH  22  31
ENDBRANCH  21  22
ENDBRANCH  11  21
TORSDOF 9
ENDMDL
