REMARK  Name = /home/qwerty/github/datacon2025hack/step_04_hit_selection/docking/ligands/lig_633.pdb
REMARK  4 active torsions:
REMARK  status: ('A' for Active; 'I' for Inactive)
REMARK    1  A    between atoms: C1_2  and  O2_3
REMARK    2  A    between atoms: C1_2  and  C2_4
REMARK    3  A    between atoms: C5_7  and  N1_8
REMARK    4  A    between atoms: C6_9  and  C7_11
REMARK                            x       y       z     vdW  Elec       q    Type
REMARK                         _______ _______ _______ _____ _____    ______ ____
ROOT
ATOM      1  N1  UNL     1       0.068   0.136  -0.729  0.00  0.00    -0.281 N 
ATOM      2  C6  UNL     1      -0.776  -1.024  -0.659  0.00  0.00    +0.252 C 
ATOM      3  O3  UNL     1      -0.266  -2.175  -0.741  0.00  0.00    -0.270 OA
ATOM      4  H4  UNL     1      -0.333   1.007  -1.146  0.00  0.00    +0.155 HD
ENDROOT
BRANCH   2   5
ATOM      5  C7  UNL     1      -2.247  -0.888  -0.552  0.00  0.00    +0.082 A 
ATOM      6  C8  UNL     1      -3.106  -1.940  -0.947  0.00  0.00    +0.017 A 
ATOM      7  C9  UNL     1      -4.507  -1.805  -0.838  0.00  0.00    +0.005 A 
ATOM      8  C10 UNL     1      -5.069  -0.625  -0.324  0.00  0.00    +0.049 A 
ATOM      9  C11 UNL     1      -4.202   0.389   0.070  0.00  0.00    +0.167 A 
ATOM     10  C12 UNL     1      -2.852   0.267  -0.036  0.00  0.00    +0.178 A 
ATOM     11  O4  UNL     1      -2.258   1.416   0.455  0.00  0.00    -0.452 OA
ATOM     12  C13 UNL     1      -3.293   2.313   0.880  0.00  0.00    +0.466 C 
ATOM     13  O5  UNL     1      -4.518   1.617   0.617  0.00  0.00    -0.453 OA
ENDBRANCH   2   5
BRANCH   1  17
ATOM     14  C2  UNL     1       4.217   0.183   0.241  0.00  0.00    +0.059 A 
ATOM     15  C3  UNL     1       3.689   1.068  -0.715  0.00  0.00    +0.017 A 
ATOM     16  C4  UNL     1       2.327   1.043  -1.028  0.00  0.00    +0.024 A 
ATOM     17  C5  UNL     1       1.469   0.127  -0.405  0.00  0.00    +0.034 A 
ATOM     18  C14 UNL     1       1.991  -0.745   0.567  0.00  0.00    +0.024 A 
ATOM     19  C15 UNL     1       3.352  -0.721   0.882  0.00  0.00    +0.017 A 
BRANCH  14  21
ATOM     20  O1  UNL     1       6.434   1.019   0.007  0.00  0.00    -0.245 OA
ATOM     21  C1  UNL     1       5.657   0.206   0.578  0.00  0.00    +0.337 C 
BRANCH  21  22
ATOM     22  O2  UNL     1       6.170  -0.673   1.528  0.00  0.00    -0.477 OA
ATOM     23  H1  UNL     1       7.155  -0.666   1.766  0.00  0.00    +0.295 HD
ENDBRANCH  21  22
ENDBRANCH  14  21
ENDBRANCH   1  17
TORSDOF 4
