MODEL 1
REMARK VINA RESULT:    -5.515      0.000      0.000
REMARK INTER + INTRA:          -6.884
REMARK INTER:                  -6.482
REMARK INTRA:                  -0.401
REMARK UNBOUND:                -0.401
REMARK  Name = /home/qwerty/github/datacon2025hack/step_04_hit_selection/docking/ligands/lig_479.pdb
REMARK  5 active torsions:
REMARK  status: ('A' for Active; 'I' for Inactive)
REMARK    1  A    between atoms: C1_1  and  C2_2
REMARK    2  A    between atoms: C5_5  and  N1_6
REMARK    3  A    between atoms: C9_12  and  C10_13
REMARK    4  A    between atoms: C10_13  and  O2_14
REMARK    5  A    between atoms: C11_15  and  O3_16
REMARK                            x       y       z     vdW  Elec       q    Type
REMARK                         _______ _______ _______ _____ _____    ______ ____
ROOT
ATOM      1  N1  UNL     1      12.202   4.242  20.580  0.00  0.00    -0.269 N 
ATOM      2  C6  UNL     1      12.891   3.608  21.672  0.00  0.00    +0.307 C 
ATOM      3  O1  UNL     1      12.544   3.852  22.859  0.00  0.00    -0.252 OA
ATOM      4  N2  UNL     1      14.011   2.735  21.422  0.00  0.00    -0.283 N 
ATOM      5  C7  UNL     1      14.951   2.427  22.509  0.00  0.00    +0.110 C 
ATOM      6  C8  UNL     1      16.321   2.039  21.944  0.00  0.00    +0.027 C 
ATOM      7  C9  UNL     1      16.242   0.839  20.963  0.00  0.00    +0.046 C 
ATOM      8  C11 UNL     1      14.872   0.751  20.226  0.00  0.00    +0.137 C 
ATOM      9  C12 UNL     1      14.199   2.124  20.096  0.00  0.00    +0.141 C 
ATOM     10  H6  UNL     1      12.723   4.376  19.685  0.00  0.00    +0.156 HD
ENDROOT
BRANCH   1  15
ATOM     11  C1  UNL     1       6.981   6.634  20.948  0.00  0.00    +0.044 C 
ATOM     12  C2  UNL     1       8.335   5.999  20.825  0.00  0.00    -0.050 A 
ATOM     13  C3  UNL     1       9.458   6.781  20.520  0.00  0.00    +0.005 A 
ATOM     14  C4  UNL     1      10.724   6.194  20.440  0.00  0.00    +0.023 A 
ATOM     15  C5  UNL     1      10.892   4.824  20.691  0.00  0.00    +0.035 A 
ATOM     16  C13 UNL     1       9.763   4.041  20.994  0.00  0.00    +0.023 A 
ATOM     17  C14 UNL     1       8.496   4.628  21.072  0.00  0.00    +0.005 A 
ENDBRANCH   1  15
BRANCH   8  18
ATOM     18  O3  UNL     1      15.046   0.209  18.943  0.00  0.00    -0.390 OA
ATOM     19  H16 UNL     1      14.546   0.789  18.311  0.00  0.00    +0.210 HD
ENDBRANCH   8  18
BRANCH   7  20
ATOM     20  C10 UNL     1      16.552  -0.490  21.682  0.00  0.00    +0.162 C 
BRANCH  20  21
ATOM     21  O2  UNL     1      15.448  -1.356  21.633  0.00  0.00    -0.395 OA
ATOM     22  H14 UNL     1      14.645  -0.787  21.497  0.00  0.00    +0.209 HD
ENDBRANCH  20  21
ENDBRANCH   7  20
TORSDOF 4
ENDMDL
MODEL 2
REMARK VINA RESULT:    -5.336     16.508     19.117
REMARK INTER + INTRA:          -6.673
REMARK INTER:                  -6.198
REMARK INTRA:                  -0.475
REMARK UNBOUND:                -0.401
REMARK  Name = /home/qwerty/github/datacon2025hack/step_04_hit_selection/docking/ligands/lig_479.pdb
REMARK  5 active torsions:
REMARK  status: ('A' for Active; 'I' for Inactive)
REMARK    1  A    between atoms: C1_1  and  C2_2
REMARK    2  A    between atoms: C5_5  and  N1_6
REMARK    3  A    between atoms: C9_12  and  C10_13
REMARK    4  A    between atoms: C10_13  and  O2_14
REMARK    5  A    between atoms: C11_15  and  O3_16
REMARK                            x       y       z     vdW  Elec       q    Type
REMARK                         _______ _______ _______ _____ _____    ______ ____
ROOT
ATOM      1  N1  UNL     1      19.724  10.642  35.437  0.00  0.00    -0.269 N 
ATOM      2  C6  UNL     1      18.364  10.479  35.000  0.00  0.00    +0.307 C 
ATOM      3  O1  UNL     1      18.018   9.420  34.409  0.00  0.00    -0.252 OA
ATOM      4  N2  UNL     1      17.404  11.538  35.185  0.00  0.00    -0.283 N 
ATOM      5  C7  UNL     1      16.166  11.545  34.393  0.00  0.00    +0.110 C 
ATOM      6  C8  UNL     1      15.615  12.969  34.265  0.00  0.00    +0.027 C 
ATOM      7  C9  UNL     1      15.360  13.634  35.644  0.00  0.00    +0.046 C 
ATOM      8  C11 UNL     1      16.310  13.100  36.757  0.00  0.00    +0.137 C 
ATOM      9  C12 UNL     1      17.640  12.593  36.183  0.00  0.00    +0.141 C 
ATOM     10  H6  UNL     1      20.096  11.614  35.528  0.00  0.00    +0.156 HD
ENDROOT
BRANCH   1  15
ATOM     11  C1  UNL     1      23.468   6.328  36.137  0.00  0.00    +0.044 C 
ATOM     12  C2  UNL     1      22.508   7.469  35.975  0.00  0.00    -0.050 A 
ATOM     13  C3  UNL     1      22.549   8.270  34.825  0.00  0.00    +0.005 A 
ATOM     14  C4  UNL     1      21.632   9.311  34.658  0.00  0.00    +0.023 A 
ATOM     15  C5  UNL     1      20.642   9.550  35.623  0.00  0.00    +0.035 A 
ATOM     16  C13 UNL     1      20.605   8.747  36.778  0.00  0.00    +0.023 A 
ATOM     17  C14 UNL     1      21.523   7.707  36.945  0.00  0.00    +0.005 A 
ENDBRANCH   1  15
BRANCH   8  18
ATOM     18  O3  UNL     1      16.576  14.111  37.693  0.00  0.00    -0.390 OA
ATOM     19  H16 UNL     1      17.303  13.779  38.283  0.00  0.00    +0.210 HD
ENDBRANCH   8  18
BRANCH   7  20
ATOM     20  C10 UNL     1      13.887  13.477  36.074  0.00  0.00    +0.162 C 
BRANCH  20  21
ATOM     21  O2  UNL     1      13.794  12.848  37.326  0.00  0.00    -0.395 OA
ATOM     22  H14 UNL     1      12.828  12.793  37.546  0.00  0.00    +0.209 HD
ENDBRANCH  20  21
ENDBRANCH   7  20
TORSDOF 4
ENDMDL
MODEL 3
REMARK VINA RESULT:    -5.325     16.688     17.648
REMARK INTER + INTRA:          -6.660
REMARK INTER:                  -6.228
REMARK INTRA:                  -0.431
REMARK UNBOUND:                -0.401
REMARK  Name = /home/qwerty/github/datacon2025hack/step_04_hit_selection/docking/ligands/lig_479.pdb
REMARK  5 active torsions:
REMARK  status: ('A' for Active; 'I' for Inactive)
REMARK    1  A    between atoms: C1_1  and  C2_2
REMARK    2  A    between atoms: C5_5  and  N1_6
REMARK    3  A    between atoms: C9_12  and  C10_13
REMARK    4  A    between atoms: C10_13  and  O2_14
REMARK    5  A    between atoms: C11_15  and  O3_16
REMARK                            x       y       z     vdW  Elec       q    Type
REMARK                         _______ _______ _______ _____ _____    ______ ____
ROOT
ATOM      1  N1  UNL     1      14.126  10.970  37.189  0.00  0.00    -0.269 N 
ATOM      2  C6  UNL     1      14.842  10.153  36.246  0.00  0.00    +0.307 C 
ATOM      3  O1  UNL     1      14.309   9.857  35.143  0.00  0.00    -0.252 OA
ATOM      4  N2  UNL     1      16.143   9.627  36.574  0.00  0.00    -0.283 N 
ATOM      5  C7  UNL     1      16.680   8.489  35.816  0.00  0.00    +0.110 C 
ATOM      6  C8  UNL     1      17.704   7.717  36.654  0.00  0.00    +0.027 C 
ATOM      7  C9  UNL     1      18.870   8.616  37.145  0.00  0.00    +0.046 C 
ATOM      8  C11 UNL     1      18.447  10.104  37.330  0.00  0.00    +0.137 C 
ATOM      9  C12 UNL     1      16.950  10.243  37.639  0.00  0.00    +0.141 C 
ATOM     10  H6  UNL     1      14.359  10.866  38.202  0.00  0.00    +0.156 HD
ENDROOT
BRANCH   1  15
ATOM     11  C1  UNL     1       9.737  14.377  35.691  0.00  0.00    +0.044 C 
ATOM     12  C2  UNL     1      10.873  13.470  36.059  0.00  0.00    -0.050 A 
ATOM     13  C3  UNL     1      12.192  13.821  35.737  0.00  0.00    +0.005 A 
ATOM     14  C4  UNL     1      13.254  12.993  36.110  0.00  0.00    +0.023 A 
ATOM     15  C5  UNL     1      13.018  11.816  36.836  0.00  0.00    +0.035 A 
ATOM     16  C13 UNL     1      11.694  11.463  37.155  0.00  0.00    +0.023 A 
ATOM     17  C14 UNL     1      10.631  12.291  36.779  0.00  0.00    +0.005 A 
ENDBRANCH   1  15
BRANCH   8  18
ATOM     18  O3  UNL     1      19.181  10.691  38.373  0.00  0.00    -0.390 OA
ATOM     19  H16 UNL     1      18.611  10.659  39.185  0.00  0.00    +0.210 HD
ENDBRANCH   8  18
BRANCH   7  20
ATOM     20  C10 UNL     1      20.087   8.517  36.203  0.00  0.00    +0.162 C 
BRANCH  20  21
ATOM     21  O2  UNL     1      21.175   9.243  36.711  0.00  0.00    -0.395 OA
ATOM     22  H14 UNL     1      21.995   8.749  36.449  0.00  0.00    +0.209 HD
ENDBRANCH  20  21
ENDBRANCH   7  20
TORSDOF 4
ENDMDL
MODEL 4
REMARK VINA RESULT:    -5.314      9.769     11.867
REMARK INTER + INTRA:          -6.648
REMARK INTER:                  -6.285
REMARK INTRA:                  -0.363
REMARK UNBOUND:                -0.401
REMARK  Name = /home/qwerty/github/datacon2025hack/step_04_hit_selection/docking/ligands/lig_479.pdb
REMARK  5 active torsions:
REMARK  status: ('A' for Active; 'I' for Inactive)
REMARK    1  A    between atoms: C1_1  and  C2_2
REMARK    2  A    between atoms: C5_5  and  N1_6
REMARK    3  A    between atoms: C9_12  and  C10_13
REMARK    4  A    between atoms: C10_13  and  O2_14
REMARK    5  A    between atoms: C11_15  and  O3_16
REMARK                            x       y       z     vdW  Elec       q    Type
REMARK                         _______ _______ _______ _____ _____    ______ ____
ROOT
ATOM      1  N1  UNL     1      22.099   3.460  26.600  0.00  0.00    -0.269 N 
ATOM      2  C6  UNL     1      21.422   3.898  27.790  0.00  0.00    +0.307 C 
ATOM      3  O1  UNL     1      20.806   4.998  27.792  0.00  0.00    -0.252 OA
ATOM      4  N2  UNL     1      21.484   3.114  28.998  0.00  0.00    -0.283 N 
ATOM      5  C7  UNL     1      21.160   3.738  30.289  0.00  0.00    +0.110 C 
ATOM      6  C8  UNL     1      21.850   2.993  31.436  0.00  0.00    +0.027 C 
ATOM      7  C9  UNL     1      21.480   1.487  31.474  0.00  0.00    +0.046 C 
ATOM      8  C11 UNL     1      21.135   0.914  30.068  0.00  0.00    +0.137 C 
ATOM      9  C12 UNL     1      21.837   1.687  28.943  0.00  0.00    +0.141 C 
ATOM     10  H6  UNL     1      22.913   2.814  26.709  0.00  0.00    +0.156 HD
ENDROOT
BRANCH   1  15
ATOM     11  C1  UNL     1      20.855   5.450  21.345  0.00  0.00    +0.044 C 
ATOM     12  C2  UNL     1      21.162   4.953  22.726  0.00  0.00    -0.050 A 
ATOM     13  C3  UNL     1      20.563   3.780  23.205  0.00  0.00    +0.005 A 
ATOM     14  C4  UNL     1      20.875   3.298  24.480  0.00  0.00    +0.023 A 
ATOM     15  C5  UNL     1      21.812   3.964  25.284  0.00  0.00    +0.035 A 
ATOM     16  C13 UNL     1      22.409   5.144  24.802  0.00  0.00    +0.023 A 
ATOM     17  C14 UNL     1      22.095   5.627  23.529  0.00  0.00    +0.005 A 
ENDBRANCH   1  15
BRANCH   8  18
ATOM     18  O3  UNL     1      21.507  -0.438  29.990  0.00  0.00    -0.390 OA
ATOM     19  H16 UNL     1      22.487  -0.462  29.839  0.00  0.00    +0.210 HD
ENDBRANCH   8  18
BRANCH   7  20
ATOM     20  C10 UNL     1      20.324   1.221  32.461  0.00  0.00    +0.162 C 
BRANCH  20  21
ATOM     21  O2  UNL     1      20.352  -0.105  32.921  0.00  0.00    -0.395 OA
ATOM     22  H14 UNL     1      20.804  -0.090  33.805  0.00  0.00    +0.209 HD
ENDBRANCH  20  21
ENDBRANCH   7  20
TORSDOF 4
ENDMDL
MODEL 5
REMARK VINA RESULT:    -5.278      5.745      7.187
REMARK INTER + INTRA:          -6.604
REMARK INTER:                  -6.209
REMARK INTRA:                  -0.396
REMARK UNBOUND:                -0.401
REMARK  Name = /home/qwerty/github/datacon2025hack/step_04_hit_selection/docking/ligands/lig_479.pdb
REMARK  5 active torsions:
REMARK  status: ('A' for Active; 'I' for Inactive)
REMARK    1  A    between atoms: C1_1  and  C2_2
REMARK    2  A    between atoms: C5_5  and  N1_6
REMARK    3  A    between atoms: C9_12  and  C10_13
REMARK    4  A    between atoms: C10_13  and  O2_14
REMARK    5  A    between atoms: C11_15  and  O3_16
REMARK                            x       y       z     vdW  Elec       q    Type
REMARK                         _______ _______ _______ _____ _____    ______ ____
ROOT
ATOM      1  N1  UNL     1      16.925   6.730  18.815  0.00  0.00    -0.269 N 
ATOM      2  C6  UNL     1      17.007   5.693  19.808  0.00  0.00    +0.307 C 
ATOM      3  O1  UNL     1      17.973   5.675  20.618  0.00  0.00    -0.252 OA
ATOM      4  N2  UNL     1      16.021   4.643  19.851  0.00  0.00    -0.283 N 
ATOM      5  C7  UNL     1      16.319   3.394  20.566  0.00  0.00    +0.110 C 
ATOM      6  C8  UNL     1      15.482   2.240  20.006  0.00  0.00    +0.027 C 
ATOM      7  C9  UNL     1      13.958   2.527  20.065  0.00  0.00    +0.046 C 
ATOM      8  C11 UNL     1      13.626   4.046  19.975  0.00  0.00    +0.137 C 
ATOM      9  C12 UNL     1      14.707   4.827  19.215  0.00  0.00    +0.141 C 
ATOM     10  H6  UNL     1      16.408   6.522  17.931  0.00  0.00    +0.156 HD
ENDROOT
BRANCH   1  15
ATOM     11  C1  UNL     1      19.688  11.759  19.265  0.00  0.00    +0.044 C 
ATOM     12  C2  UNL     1      18.984  10.437  19.171  0.00  0.00    -0.050 A 
ATOM     13  C3  UNL     1      17.660  10.309  19.613  0.00  0.00    +0.005 A 
ATOM     14  C4  UNL     1      16.992   9.086  19.494  0.00  0.00    +0.023 A 
ATOM     15  C5  UNL     1      17.627   7.983  18.906  0.00  0.00    +0.035 A 
ATOM     16  C13 UNL     1      18.957   8.113  18.466  0.00  0.00    +0.023 A 
ATOM     17  C14 UNL     1      19.625   9.335  18.588  0.00  0.00    +0.005 A 
ENDBRANCH   1  15
BRANCH   8  18
ATOM     18  O3  UNL     1      12.393   4.236  19.331  0.00  0.00    -0.390 OA
ATOM     19  H16 UNL     1      12.215   3.419  18.796  0.00  0.00    +0.210 HD
ENDBRANCH   8  18
BRANCH   7  20
ATOM     20  C10 UNL     1      13.323   1.912  21.329  0.00  0.00    +0.162 C 
BRANCH  20  21
ATOM     21  O2  UNL     1      11.925   1.855  21.211  0.00  0.00    -0.395 OA
ATOM     22  H14 UNL     1      11.554   2.407  21.948  0.00  0.00    +0.209 HD
ENDBRANCH  20  21
ENDBRANCH   7  20
TORSDOF 4
ENDMDL
MODEL 6
REMARK VINA RESULT:    -5.213      7.178      8.523
REMARK INTER + INTRA:          -6.528
REMARK INTER:                  -6.106
REMARK INTRA:                  -0.422
REMARK UNBOUND:                -0.401
REMARK  Name = /home/qwerty/github/datacon2025hack/step_04_hit_selection/docking/ligands/lig_479.pdb
REMARK  5 active torsions:
REMARK  status: ('A' for Active; 'I' for Inactive)
REMARK    1  A    between atoms: C1_1  and  C2_2
REMARK    2  A    between atoms: C5_5  and  N1_6
REMARK    3  A    between atoms: C9_12  and  C10_13
REMARK    4  A    between atoms: C10_13  and  O2_14
REMARK    5  A    between atoms: C11_15  and  O3_16
REMARK                            x       y       z     vdW  Elec       q    Type
REMARK                         _______ _______ _______ _____ _____    ______ ____
ROOT
ATOM      1  N1  UNL     1       8.628   0.296  26.897  0.00  0.00    -0.269 N 
ATOM      2  C6  UNL     1       9.546   1.318  26.476  0.00  0.00    +0.307 C 
ATOM      3  O1  UNL     1      10.205   1.963  27.337  0.00  0.00    -0.252 OA
ATOM      4  N2  UNL     1       9.683   1.649  25.080  0.00  0.00    -0.283 N 
ATOM      5  C7  UNL     1      10.285   2.932  24.691  0.00  0.00    +0.110 C 
ATOM      6  C8  UNL     1       9.798   3.357  23.302  0.00  0.00    +0.027 C 
ATOM      7  C9  UNL     1      10.093   2.289  22.215  0.00  0.00    +0.046 C 
ATOM      8  C11 UNL     1      10.126   0.841  22.787  0.00  0.00    +0.137 C 
ATOM      9  C12 UNL     1       9.256   0.697  24.042  0.00  0.00    +0.141 C 
ATOM     10  H6  UNL     1       7.820   0.075  26.272  0.00  0.00    +0.156 HD
ENDROOT
BRANCH   1  15
ATOM     11  C1  UNL     1       8.917  -2.245  32.053  0.00  0.00    +0.044 C 
ATOM     12  C2  UNL     1       8.851  -1.557  30.722  0.00  0.00    -0.050 A 
ATOM     13  C3  UNL     1       9.846  -1.778  29.760  0.00  0.00    +0.005 A 
ATOM     14  C4  UNL     1       9.766  -1.164  28.507  0.00  0.00    +0.023 A 
ATOM     15  C5  UNL     1       8.675  -0.342  28.186  0.00  0.00    +0.035 A 
ATOM     16  C13 UNL     1       7.679  -0.118  29.153  0.00  0.00    +0.023 A 
ATOM     17  C14 UNL     1       7.761  -0.732  30.407  0.00  0.00    +0.005 A 
ENDBRANCH   1  15
BRANCH   8  18
ATOM     18  O3  UNL     1       9.680  -0.073  21.819  0.00  0.00    -0.390 OA
ATOM     19  H16 UNL     1       8.719  -0.242  22.000  0.00  0.00    +0.210 HD
ENDBRANCH   8  18
BRANCH   7  20
ATOM     20  C10 UNL     1      11.405   2.602  21.467  0.00  0.00    +0.162 C 
BRANCH  20  21
ATOM     21  O2  UNL     1      12.142   1.430  21.236  0.00  0.00    -0.395 OA
ATOM     22  H14 UNL     1      12.210   1.327  20.251  0.00  0.00    +0.209 HD
ENDBRANCH  20  21
ENDBRANCH   7  20
TORSDOF 4
ENDMDL
MODEL 7
REMARK VINA RESULT:    -5.182     16.659     17.805
REMARK INTER + INTRA:          -6.492
REMARK INTER:                  -6.048
REMARK INTRA:                  -0.444
REMARK UNBOUND:                -0.401
REMARK  Name = /home/qwerty/github/datacon2025hack/step_04_hit_selection/docking/ligands/lig_479.pdb
REMARK  5 active torsions:
REMARK  status: ('A' for Active; 'I' for Inactive)
REMARK    1  A    between atoms: C1_1  and  C2_2
REMARK    2  A    between atoms: C5_5  and  N1_6
REMARK    3  A    between atoms: C9_12  and  C10_13
REMARK    4  A    between atoms: C10_13  and  O2_14
REMARK    5  A    between atoms: C11_15  and  O3_16
REMARK                            x       y       z     vdW  Elec       q    Type
REMARK                         _______ _______ _______ _____ _____    ______ ____
ROOT
ATOM      1  N1  UNL     1      17.219  10.170  36.816  0.00  0.00    -0.269 N 
ATOM      2  C6  UNL     1      17.902   9.541  35.717  0.00  0.00    +0.307 C 
ATOM      3  O1  UNL     1      17.528   9.768  34.534  0.00  0.00    -0.252 OA
ATOM      4  N2  UNL     1      18.978   8.613  35.959  0.00  0.00    -0.283 N 
ATOM      5  C7  UNL     1      19.387   7.680  34.900  0.00  0.00    +0.110 C 
ATOM      6  C8  UNL     1      20.051   6.438  35.501  0.00  0.00    +0.027 C 
ATOM      7  C9  UNL     1      21.273   6.789  36.392  0.00  0.00    +0.046 C 
ATOM      8  C11 UNL     1      21.153   8.194  37.054  0.00  0.00    +0.137 C 
ATOM      9  C12 UNL     1      19.691   8.617  37.247  0.00  0.00    +0.141 C 
ATOM     10  H6  UNL     1      17.236   9.687  37.743  0.00  0.00    +0.156 HD
ENDROOT
BRANCH   1  15
ATOM     11  C1  UNL     1      13.889  14.841  36.358  0.00  0.00    +0.044 C 
ATOM     12  C2  UNL     1      14.766  13.633  36.505  0.00  0.00    -0.050 A 
ATOM     13  C3  UNL     1      14.202  12.379  36.780  0.00  0.00    +0.005 A 
ATOM     14  C4  UNL     1      15.016  11.247  36.883  0.00  0.00    +0.023 A 
ATOM     15  C5  UNL     1      16.401  11.345  36.683  0.00  0.00    +0.035 A 
ATOM     16  C13 UNL     1      16.965  12.605  36.410  0.00  0.00    +0.023 A 
ATOM     17  C14 UNL     1      16.151  13.737  36.310  0.00  0.00    +0.005 A 
ENDBRANCH   1  15
BRANCH   8  18
ATOM     18  O3  UNL     1      21.794   8.197  38.303  0.00  0.00    -0.390 OA
ATOM     19  H16 UNL     1      21.129   7.889  38.973  0.00  0.00    +0.210 HD
ENDBRANCH   8  18
BRANCH   7  20
ATOM     20  C10 UNL     1      22.591   6.680  35.598  0.00  0.00    +0.162 C 
BRANCH  20  21
ATOM     21  O2  UNL     1      23.492   7.686  35.981  0.00  0.00    -0.395 OA
ATOM     22  H14 UNL     1      23.872   7.410  36.855  0.00  0.00    +0.209 HD
ENDBRANCH  20  21
ENDBRANCH   7  20
TORSDOF 4
ENDMDL
MODEL 8
REMARK VINA RESULT:    -5.126      4.984      9.125
REMARK INTER + INTRA:          -6.426
REMARK INTER:                  -5.994
REMARK INTRA:                  -0.432
REMARK UNBOUND:                -0.401
REMARK  Name = /home/qwerty/github/datacon2025hack/step_04_hit_selection/docking/ligands/lig_479.pdb
REMARK  5 active torsions:
REMARK  status: ('A' for Active; 'I' for Inactive)
REMARK    1  A    between atoms: C1_1  and  C2_2
REMARK    2  A    between atoms: C5_5  and  N1_6
REMARK    3  A    between atoms: C9_12  and  C10_13
REMARK    4  A    between atoms: C10_13  and  O2_14
REMARK    5  A    between atoms: C11_15  and  O3_16
REMARK                            x       y       z     vdW  Elec       q    Type
REMARK                         _______ _______ _______ _____ _____    ______ ____
ROOT
ATOM      1  N1  UNL     1      17.658   0.879  25.839  0.00  0.00    -0.269 N 
ATOM      2  C6  UNL     1      17.358   1.818  24.792  0.00  0.00    +0.307 C 
ATOM      3  O1  UNL     1      17.828   2.987  24.844  0.00  0.00    -0.252 OA
ATOM      4  N2  UNL     1      16.483   1.450  23.708  0.00  0.00    -0.283 N 
ATOM      5  C7  UNL     1      15.858   2.498  22.888  0.00  0.00    +0.110 C 
ATOM      6  C8  UNL     1      14.562   1.986  22.252  0.00  0.00    +0.027 C 
ATOM      7  C9  UNL     1      14.784   0.712  21.394  0.00  0.00    +0.046 C 
ATOM      8  C11 UNL     1      15.980  -0.151  21.893  0.00  0.00    +0.137 C 
ATOM      9  C12 UNL     1      16.236   0.033  23.395  0.00  0.00    +0.141 C 
ATOM     10  H6  UNL     1      16.974   0.109  26.016  0.00  0.00    +0.156 HD
ENDROOT
BRANCH   1  15
ATOM     11  C1  UNL     1      22.154   1.462  29.384  0.00  0.00    +0.044 C 
ATOM     12  C2  UNL     1      20.980   1.340  28.458  0.00  0.00    -0.050 A 
ATOM     13  C3  UNL     1      21.168   0.944  27.126  0.00  0.00    +0.005 A 
ATOM     14  C4  UNL     1      20.071   0.797  26.272  0.00  0.00    +0.023 A 
ATOM     15  C5  UNL     1      18.768   1.015  26.743  0.00  0.00    +0.035 A 
ATOM     16  C13 UNL     1      18.582   1.416  28.079  0.00  0.00    +0.023 A 
ATOM     17  C14 UNL     1      19.679   1.565  28.932  0.00  0.00    +0.005 A 
ENDBRANCH   1  15
BRANCH   8  18
ATOM     18  O3  UNL     1      15.737  -1.510  21.639  0.00  0.00    -0.390 OA
ATOM     19  H16 UNL     1      14.754  -1.642  21.673  0.00  0.00    +0.210 HD
ENDBRANCH   8  18
BRANCH   7  20
ATOM     20  C10 UNL     1      14.963   1.068  19.904  0.00  0.00    +0.162 C 
BRANCH  20  21
ATOM     21  O2  UNL     1      15.311  -0.067  19.155  0.00  0.00    -0.395 OA
ATOM     22  H14 UNL     1      15.636   0.260  18.276  0.00  0.00    +0.209 HD
ENDBRANCH  20  21
ENDBRANCH   7  20
TORSDOF 4
ENDMDL
MODEL 9
REMARK VINA RESULT:    -5.095     14.236     17.170
REMARK INTER + INTRA:          -6.389
REMARK INTER:                  -6.015
REMARK INTRA:                  -0.375
REMARK UNBOUND:                -0.401
REMARK  Name = /home/qwerty/github/datacon2025hack/step_04_hit_selection/docking/ligands/lig_479.pdb
REMARK  5 active torsions:
REMARK  status: ('A' for Active; 'I' for Inactive)
REMARK    1  A    between atoms: C1_1  and  C2_2
REMARK    2  A    between atoms: C5_5  and  N1_6
REMARK    3  A    between atoms: C9_12  and  C10_13
REMARK    4  A    between atoms: C10_13  and  O2_14
REMARK    5  A    between atoms: C11_15  and  O3_16
REMARK                            x       y       z     vdW  Elec       q    Type
REMARK                         _______ _______ _______ _____ _____    ______ ____
ROOT
ATOM      1  N1  UNL     1      21.584   4.876  33.894  0.00  0.00    -0.269 N 
ATOM      2  C6  UNL     1      21.045   6.173  33.586  0.00  0.00    +0.307 C 
ATOM      3  O1  UNL     1      20.710   6.448  32.401  0.00  0.00    -0.252 OA
ATOM      4  N2  UNL     1      20.933   7.181  34.610  0.00  0.00    -0.283 N 
ATOM      5  C7  UNL     1      20.782   8.593  34.229  0.00  0.00    +0.110 C 
ATOM      6  C8  UNL     1      21.287   9.510  35.347  0.00  0.00    +0.027 C 
ATOM      7  C9  UNL     1      20.568   9.252  36.698  0.00  0.00    +0.046 C 
ATOM      8  C11 UNL     1      20.080   7.781  36.850  0.00  0.00    +0.137 C 
ATOM      9  C12 UNL     1      20.933   6.803  36.032  0.00  0.00    +0.141 C 
ATOM     10  H6  UNL     1      22.221   4.794  34.718  0.00  0.00    +0.156 HD
ENDROOT
BRANCH   1  15
ATOM     11  C1  UNL     1      20.988   0.235  30.544  0.00  0.00    +0.044 C 
ATOM     12  C2  UNL     1      21.156   1.427  31.439  0.00  0.00    -0.050 A 
ATOM     13  C3  UNL     1      22.165   2.366  31.184  0.00  0.00    +0.005 A 
ATOM     14  C4  UNL     1      22.299   3.495  31.997  0.00  0.00    +0.023 A 
ATOM     15  C5  UNL     1      21.410   3.718  33.059  0.00  0.00    +0.035 A 
ATOM     16  C13 UNL     1      20.400   2.772  33.315  0.00  0.00    +0.023 A 
ATOM     17  C14 UNL     1      20.268   1.642  32.503  0.00  0.00    +0.005 A 
ENDBRANCH   1  15
BRANCH   8  18
ATOM     18  O3  UNL     1      20.117   7.395  38.200  0.00  0.00    -0.390 OA
ATOM     19  H16 UNL     1      19.798   8.169  38.733  0.00  0.00    +0.210 HD
ENDBRANCH   8  18
BRANCH   7  20
ATOM     20  C10 UNL     1      19.394  10.232  36.901  0.00  0.00    +0.162 C 
BRANCH  20  21
ATOM     21  O2  UNL     1      19.022  10.295  38.253  0.00  0.00    -0.395 OA
ATOM     22  H14 UNL     1      18.612  11.188  38.394  0.00  0.00    +0.209 HD
ENDBRANCH  20  21
ENDBRANCH   7  20
TORSDOF 4
ENDMDL
