REMARK  Name = /home/qwerty/github/datacon2025hack/step_04_hit_selection/docking/ligands/lig_205.pdb
REMARK  5 active torsions:
REMARK  status: ('A' for Active; 'I' for Inactive)
REMARK    1  A    between atoms: C1_1  and  O1_2
REMARK    2  A    between atoms: O1_2  and  C2_3
REMARK    3  A    between atoms: C2_3  and  C3_5
REMARK    4  A    between atoms: C8_10  and  C9_11
REMARK    5  A    between atoms: C12_14  and  N1_15
REMARK                            x       y       z     vdW  Elec       q    Type
REMARK                         _______ _______ _______ _____ _____    ______ ____
ROOT
ATOM      1  C3  UNL     1       3.279  -0.451  -0.094  0.00  0.00    +0.125 A 
ATOM      2  C4  UNL     1       2.725  -1.713  -0.306  0.00  0.00    +0.042 A 
ATOM      3  C5  UNL     1       1.363  -1.516  -0.238  0.00  0.00    +0.000 A 
ATOM      4  C6  UNL     1       0.311  -2.415  -0.379  0.00  0.00    +0.010 A 
ATOM      5  C7  UNL     1      -1.000  -1.918  -0.262  0.00  0.00    +0.009 A 
ATOM      6  C8  UNL     1      -1.235  -0.541  -0.004  0.00  0.00    -0.012 A 
ATOM      7  C14 UNL     1      -0.136   0.340   0.127  0.00  0.00    +0.035 A 
ATOM      8  C15 UNL     1       1.149  -0.186   0.006  0.00  0.00    +0.048 A 
ATOM      9  N3  UNL     1       2.313   0.479   0.095  0.00  0.00    -0.349 N 
ATOM     10  H12 UNL     1       2.442   1.500   0.273  0.00  0.00    +0.166 HD
ENDROOT
BRANCH   6  11
ATOM     11  C9  UNL     1      -2.623  -0.031   0.108  0.00  0.00    +0.037 A 
ATOM     12  C10 UNL     1      -3.596  -0.415  -0.828  0.00  0.00    +0.016 A 
ATOM     13  C11 UNL     1      -4.900   0.071  -0.727  0.00  0.00    +0.044 A 
ATOM     14  C12 UNL     1      -5.231   0.939   0.318  0.00  0.00    +0.119 A 
ATOM     15  N2  UNL     1      -4.281   1.297   1.223  0.00  0.00    -0.204 NA
ATOM     16  C13 UNL     1      -3.002   0.842   1.147  0.00  0.00    +0.223 A 
ATOM     17  F1  UNL     1      -2.114   1.211   2.104  0.00  0.00    -0.183 F 
BRANCH  14  18
ATOM     18  N1  UNL     1      -6.558   1.450   0.444  0.00  0.00    -0.343 N 
ATOM     19  H9  UNL     1      -6.800   2.097   1.227  0.00  0.00    +0.144 HD
ATOM     20  H10 UNL     1      -7.302   1.186  -0.240  0.00  0.00    +0.144 HD
ENDBRANCH  14  18
ENDBRANCH   6  11
BRANCH   1  21
ATOM     21  C2  UNL     1       4.716  -0.147  -0.076  0.00  0.00    +0.355 C 
ATOM     22  O2  UNL     1       5.557  -1.069  -0.261  0.00  0.00    -0.243 OA
BRANCH  21  24
ATOM     23  C1  UNL     1       6.514   1.533   0.179  0.00  0.00    +0.280 C 
ATOM     24  O1  UNL     1       5.140   1.166   0.148  0.00  0.00    -0.463 OA
ENDBRANCH  21  24
ENDBRANCH   1  21
TORSDOF 4
