MODEL 1
REMARK VINA RESULT:    -7.171      0.000      0.000
REMARK INTER + INTRA:         -10.401
REMARK INTER:                  -9.686
REMARK INTRA:                  -0.715
REMARK UNBOUND:                -0.715
REMARK  Name = /home/qwerty/github/datacon2025hack/step_04_hit_selection/docking/ligands/lig_808.pdb
REMARK  10 active torsions:
REMARK  status: ('A' for Active; 'I' for Inactive)
REMARK    1  A    between atoms: C1_1  and  N1_2
REMARK    2  A    between atoms: N2_5  and  C4_6
REMARK    3  A    between atoms: C4_6  and  C5_7
REMARK    4  A    between atoms: C11_13  and  C12_14
REMARK    5  A    between atoms: C12_14  and  N3_15
REMARK    6  A    between atoms: C13_16  and  C14_18
REMARK    7  A    between atoms: C20_25  and  C21_26
REMARK    8  A    between atoms: C21_26  and  C22_27
REMARK    9  A    between atoms: C21_26  and  C23_28
REMARK   10  A    between atoms: C21_26  and  C24_29
REMARK                            x       y       z     vdW  Elec       q    Type
REMARK                         _______ _______ _______ _____ _____    ______ ____
ROOT
ATOM      1  N3  UNL     1      20.420   5.561  22.045  0.00  0.00    -0.309 N 
ATOM      2  C13 UNL     1      21.382   5.430  23.103  0.00  0.00    +0.251 C 
ATOM      3  O1  UNL     1      22.409   6.161  23.115  0.00  0.00    -0.270 OA
ATOM      4  H18 UNL     1      19.642   4.868  21.966  0.00  0.00    +0.149 HD
ENDROOT
BRANCH   2   5
ATOM      5  C14 UNL     1      21.186   4.441  24.178  0.00  0.00    +0.074 A 
ATOM      6  C15 UNL     1      22.154   4.046  25.100  0.00  0.00    +0.024 A 
ATOM      7  C16 UNL     1      21.689   3.082  26.005  0.00  0.00    -0.036 A 
ATOM      8  C17 UNL     1      20.353   2.755  25.822  0.00  0.00    -0.006 A 
ATOM      9  S1  UNL     1      19.754   3.606  24.503  0.00  0.00    -0.088 S 
ATOM     10  C18 UNL     1      19.632   1.698  26.594  0.00  0.00    +0.043 C 
ATOM     11  C19 UNL     1      20.359   1.402  27.915  0.00  0.00    +0.009 C 
ATOM     12  C20 UNL     1      21.888   1.200  27.694  0.00  0.00    -0.001 C 
ATOM     13  C25 UNL     1      22.511   2.511  27.126  0.00  0.00    +0.040 C 
BRANCH  12  14
ATOM     14  C21 UNL     1      22.642   0.640  28.966  0.00  0.00    -0.035 C 
ATOM     15  C22 UNL     1      22.684  -0.907  28.920  0.00  0.00    +0.011 C 
ATOM     16  C23 UNL     1      24.108   1.136  28.986  0.00  0.00    +0.011 C 
ATOM     17  C24 UNL     1      21.963   1.069  30.287  0.00  0.00    +0.011 C 
ENDBRANCH  12  14
ENDBRANCH   2   5
BRANCH   1  18
ATOM     18  C12 UNL     1      20.515   6.599  21.018  0.00  0.00    +0.124 C 
BRANCH  18  24
ATOM     19  C1  UNL     1      17.729   4.695  21.052  0.00  0.00    +0.105 C 
ATOM     20  N1  UNL     1      17.247   6.087  21.050  0.00  0.00    -0.303 NA
ATOM     21  C2  UNL     1      16.934   6.589  19.700  0.00  0.00    +0.099 C 
ATOM     22  C3  UNL     1      18.181   7.072  18.952  0.00  0.00    +0.100 C 
ATOM     23  N2  UNL     1      18.887   8.091  19.750  0.00  0.00    -0.291 NA
ATOM     24  C11 UNL     1      19.306   7.579  21.078  0.00  0.00    +0.088 C 
ATOM     25  C26 UNL     1      18.075   7.022  21.839  0.00  0.00    +0.104 C 
BRANCH  23  26
ATOM     26  C4  UNL     1      19.989   8.723  18.995  0.00  0.00    +0.120 C 
BRANCH  26  27
ATOM     27  C5  UNL     1      19.860  10.223  19.040  0.00  0.00    -0.033 A 
ATOM     28  C6  UNL     1      20.971  11.031  18.747  0.00  0.00    +0.005 A 
ATOM     29  C7  UNL     1      20.864  12.424  18.810  0.00  0.00    +0.000 A 
ATOM     30  C8  UNL     1      19.651  13.018  19.168  0.00  0.00    +0.000 A 
ATOM     31  C9  UNL     1      18.543  12.220  19.465  0.00  0.00    +0.000 A 
ATOM     32  C10 UNL     1      18.645  10.827  19.403  0.00  0.00    +0.005 A 
ENDBRANCH  26  27
ENDBRANCH  23  26
ENDBRANCH  18  24
ENDBRANCH   1  18
TORSDOF 6
ENDMDL
MODEL 2
REMARK VINA RESULT:    -7.067      7.433      9.033
REMARK INTER + INTRA:         -10.260
REMARK INTER:                  -9.434
REMARK INTRA:                  -0.827
REMARK UNBOUND:                -0.715
REMARK  Name = /home/qwerty/github/datacon2025hack/step_04_hit_selection/docking/ligands/lig_808.pdb
REMARK  10 active torsions:
REMARK  status: ('A' for Active; 'I' for Inactive)
REMARK    1  A    between atoms: C1_1  and  N1_2
REMARK    2  A    between atoms: N2_5  and  C4_6
REMARK    3  A    between atoms: C4_6  and  C5_7
REMARK    4  A    between atoms: C11_13  and  C12_14
REMARK    5  A    between atoms: C12_14  and  N3_15
REMARK    6  A    between atoms: C13_16  and  C14_18
REMARK    7  A    between atoms: C20_25  and  C21_26
REMARK    8  A    between atoms: C21_26  and  C22_27
REMARK    9  A    between atoms: C21_26  and  C23_28
REMARK   10  A    between atoms: C21_26  and  C24_29
REMARK                            x       y       z     vdW  Elec       q    Type
REMARK                         _______ _______ _______ _____ _____    ______ ____
ROOT
ATOM      1  N3  UNL     1      11.570   3.657  21.199  0.00  0.00    -0.309 N 
ATOM      2  C13 UNL     1      12.737   3.291  20.446  0.00  0.00    +0.251 C 
ATOM      3  O1  UNL     1      13.006   3.889  19.369  0.00  0.00    -0.270 OA
ATOM      4  H18 UNL     1      11.281   3.074  22.016  0.00  0.00    +0.149 HD
ENDROOT
BRANCH   2   5
ATOM      5  C14 UNL     1      13.626   2.212  20.914  0.00  0.00    +0.074 A 
ATOM      6  C15 UNL     1      13.553   1.587  22.158  0.00  0.00    +0.024 A 
ATOM      7  C16 UNL     1      14.534   0.601  22.334  0.00  0.00    -0.036 A 
ATOM      8  C17 UNL     1      15.342   0.424  21.220  0.00  0.00    -0.006 A 
ATOM      9  S1  UNL     1      14.893   1.526  20.034  0.00  0.00    -0.088 S 
ATOM     10  C18 UNL     1      16.514  -0.502  21.171  0.00  0.00    +0.043 C 
ATOM     11  C19 UNL     1      16.401  -1.578  22.262  0.00  0.00    +0.009 C 
ATOM     12  C20 UNL     1      16.050  -0.954  23.646  0.00  0.00    -0.001 C 
ATOM     13  C25 UNL     1      14.659  -0.254  23.564  0.00  0.00    +0.040 C 
BRANCH  12  14
ATOM     14  C21 UNL     1      16.176  -1.972  24.849  0.00  0.00    -0.035 C 
ATOM     15  C22 UNL     1      17.340  -2.960  24.588  0.00  0.00    +0.011 C 
ATOM     16  C23 UNL     1      16.502  -1.219  26.161  0.00  0.00    +0.011 C 
ATOM     17  C24 UNL     1      14.882  -2.790  25.063  0.00  0.00    +0.011 C 
ENDBRANCH  12  14
ENDBRANCH   2   5
BRANCH   1  18
ATOM     18  C12 UNL     1      10.720   4.790  20.833  0.00  0.00    +0.124 C 
BRANCH  18  24
ATOM     19  C1  UNL     1       9.056   2.679  22.873  0.00  0.00    +0.105 C 
ATOM     20  N1  UNL     1       9.009   3.987  23.548  0.00  0.00    -0.303 NA
ATOM     21  C2  UNL     1       7.777   4.744  23.261  0.00  0.00    +0.099 C 
ATOM     22  C3  UNL     1       7.847   5.491  21.925  0.00  0.00    +0.100 C 
ATOM     23  N2  UNL     1       9.031   6.369  21.898  0.00  0.00    -0.291 NA
ATOM     24  C11 UNL     1      10.297   5.619  22.082  0.00  0.00    +0.088 C 
ATOM     25  C26 UNL     1      10.235   4.797  23.396  0.00  0.00    +0.104 C 
BRANCH  23  26
ATOM     26  C4  UNL     1       9.042   7.250  20.711  0.00  0.00    +0.120 C 
BRANCH  26  27
ATOM     27  C5  UNL     1       9.947   8.431  20.945  0.00  0.00    -0.033 A 
ATOM     28  C6  UNL     1      10.939   8.752  20.005  0.00  0.00    +0.005 A 
ATOM     29  C7  UNL     1      11.797   9.833  20.228  0.00  0.00    +0.000 A 
ATOM     30  C8  UNL     1      11.672  10.598  21.390  0.00  0.00    +0.000 A 
ATOM     31  C9  UNL     1      10.690  10.283  22.332  0.00  0.00    +0.000 A 
ATOM     32  C10 UNL     1       9.829   9.203  22.113  0.00  0.00    +0.005 A 
ENDBRANCH  26  27
ENDBRANCH  23  26
ENDBRANCH  18  24
ENDBRANCH   1  18
TORSDOF 6
ENDMDL
MODEL 3
REMARK VINA RESULT:    -7.062     13.222     17.068
REMARK INTER + INTRA:         -10.254
REMARK INTER:                  -9.450
REMARK INTRA:                  -0.804
REMARK UNBOUND:                -0.715
REMARK  Name = /home/qwerty/github/datacon2025hack/step_04_hit_selection/docking/ligands/lig_808.pdb
REMARK  10 active torsions:
REMARK  status: ('A' for Active; 'I' for Inactive)
REMARK    1  A    between atoms: C1_1  and  N1_2
REMARK    2  A    between atoms: N2_5  and  C4_6
REMARK    3  A    between atoms: C4_6  and  C5_7
REMARK    4  A    between atoms: C11_13  and  C12_14
REMARK    5  A    between atoms: C12_14  and  N3_15
REMARK    6  A    between atoms: C13_16  and  C14_18
REMARK    7  A    between atoms: C20_25  and  C21_26
REMARK    8  A    between atoms: C21_26  and  C22_27
REMARK    9  A    between atoms: C21_26  and  C23_28
REMARK   10  A    between atoms: C21_26  and  C24_29
REMARK                            x       y       z     vdW  Elec       q    Type
REMARK                         _______ _______ _______ _____ _____    ______ ____
ROOT
ATOM      1  N3  UNL     1       6.773   4.321  28.338  0.00  0.00    -0.309 N 
ATOM      2  C13 UNL     1       6.797   5.443  29.234  0.00  0.00    +0.251 C 
ATOM      3  O1  UNL     1       6.493   5.286  30.448  0.00  0.00    -0.270 OA
ATOM      4  H18 UNL     1       6.896   4.478  27.313  0.00  0.00    +0.149 HD
ENDROOT
BRANCH   2   5
ATOM      5  C14 UNL     1       7.169   6.785  28.750  0.00  0.00    +0.074 A 
ATOM      6  C15 UNL     1       7.507   7.871  29.555  0.00  0.00    +0.024 A 
ATOM      7  C16 UNL     1       7.807   9.026  28.820  0.00  0.00    -0.036 A 
ATOM      8  C17 UNL     1       7.748   8.835  27.447  0.00  0.00    -0.006 A 
ATOM      9  S1  UNL     1       7.263   7.258  27.132  0.00  0.00    -0.088 S 
ATOM     10  C18 UNL     1       7.941   9.921  26.438  0.00  0.00    +0.043 C 
ATOM     11  C19 UNL     1       8.707  11.102  27.054  0.00  0.00    +0.009 C 
ATOM     12  C20 UNL     1       8.109  11.515  28.433  0.00  0.00    -0.001 C 
ATOM     13  C25 UNL     1       8.240  10.327  29.434  0.00  0.00    +0.040 C 
BRANCH  12  14
ATOM     14  C21 UNL     1       8.684  12.878  28.989  0.00  0.00    -0.035 C 
ATOM     15  C22 UNL     1       7.561  13.680  29.693  0.00  0.00    +0.011 C 
ATOM     16  C23 UNL     1       9.783  12.611  30.045  0.00  0.00    +0.011 C 
ATOM     17  C24 UNL     1       9.284  13.762  27.871  0.00  0.00    +0.011 C 
ENDBRANCH  12  14
ENDBRANCH   2   5
BRANCH   1  18
ATOM     18  C12 UNL     1       6.518   2.955  28.793  0.00  0.00    +0.124 C 
BRANCH  18  24
ATOM     19  C1  UNL     1       7.676   2.973  25.624  0.00  0.00    +0.105 C 
ATOM     20  N1  UNL     1       8.605   2.109  26.371  0.00  0.00    -0.303 NA
ATOM     21  C2  UNL     1       8.265   0.677  26.280  0.00  0.00    +0.099 C 
ATOM     22  C3  UNL     1       7.170   0.272  27.271  0.00  0.00    +0.100 C 
ATOM     23  N2  UNL     1       7.567   0.640  28.643  0.00  0.00    -0.291 NA
ATOM     24  C11 UNL     1       7.816   2.094  28.788  0.00  0.00    +0.088 C 
ATOM     25  C26 UNL     1       8.876   2.554  27.753  0.00  0.00    +0.104 C 
BRANCH  23  26
ATOM     26  C4  UNL     1       6.633   0.104  29.654  0.00  0.00    +0.120 C 
BRANCH  26  27
ATOM     27  C5  UNL     1       7.373  -0.751  30.648  0.00  0.00    -0.033 A 
ATOM     28  C6  UNL     1       8.689  -1.161  30.378  0.00  0.00    +0.005 A 
ATOM     29  C7  UNL     1       9.374  -1.974  31.286  0.00  0.00    +0.000 A 
ATOM     30  C8  UNL     1       8.750  -2.385  32.467  0.00  0.00    +0.000 A 
ATOM     31  C9  UNL     1       7.440  -1.985  32.741  0.00  0.00    +0.000 A 
ATOM     32  C10 UNL     1       6.751  -1.171  31.836  0.00  0.00    +0.005 A 
ENDBRANCH  26  27
ENDBRANCH  23  26
ENDBRANCH  18  24
ENDBRANCH   1  18
TORSDOF 6
ENDMDL
MODEL 4
REMARK VINA RESULT:    -7.017     11.123     13.724
REMARK INTER + INTRA:         -10.194
REMARK INTER:                  -9.295
REMARK INTRA:                  -0.899
REMARK UNBOUND:                -0.715
REMARK  Name = /home/qwerty/github/datacon2025hack/step_04_hit_selection/docking/ligands/lig_808.pdb
REMARK  10 active torsions:
REMARK  status: ('A' for Active; 'I' for Inactive)
REMARK    1  A    between atoms: C1_1  and  N1_2
REMARK    2  A    between atoms: N2_5  and  C4_6
REMARK    3  A    between atoms: C4_6  and  C5_7
REMARK    4  A    between atoms: C11_13  and  C12_14
REMARK    5  A    between atoms: C12_14  and  N3_15
REMARK    6  A    between atoms: C13_16  and  C14_18
REMARK    7  A    between atoms: C20_25  and  C21_26
REMARK    8  A    between atoms: C21_26  and  C22_27
REMARK    9  A    between atoms: C21_26  and  C23_28
REMARK   10  A    between atoms: C21_26  and  C24_29
REMARK                            x       y       z     vdW  Elec       q    Type
REMARK                         _______ _______ _______ _____ _____    ______ ____
ROOT
ATOM      1  N3  UNL     1      16.796  15.525  28.866  0.00  0.00    -0.309 N 
ATOM      2  C13 UNL     1      15.594  15.449  28.083  0.00  0.00    +0.251 C 
ATOM      3  O1  UNL     1      15.574  15.919  26.913  0.00  0.00    -0.270 OA
ATOM      4  H18 UNL     1      16.771  15.256  29.874  0.00  0.00    +0.149 HD
ENDROOT
BRANCH   2   5
ATOM      5  C14 UNL     1      14.375  14.831  28.634  0.00  0.00    +0.074 A 
ATOM      6  C15 UNL     1      13.124  14.819  28.019  0.00  0.00    +0.024 A 
ATOM      7  C16 UNL     1      12.145  14.166  28.780  0.00  0.00    -0.036 A 
ATOM      8  C17 UNL     1      12.634  13.630  29.963  0.00  0.00    -0.006 A 
ATOM      9  S1  UNL     1      14.263  14.015  30.108  0.00  0.00    -0.088 S 
ATOM     10  C18 UNL     1      11.788  12.958  30.995  0.00  0.00    +0.043 C 
ATOM     11  C19 UNL     1      10.465  12.474  30.379  0.00  0.00    +0.009 C 
ATOM     12  C20 UNL     1       9.790  13.590  29.527  0.00  0.00    -0.001 C 
ATOM     13  C25 UNL     1      10.722  13.974  28.337  0.00  0.00    +0.040 C 
BRANCH  12  14
ATOM     14  C21 UNL     1       8.312  13.242  29.086  0.00  0.00    -0.035 C 
ATOM     15  C22 UNL     1       8.101  13.613  27.597  0.00  0.00    +0.011 C 
ATOM     16  C23 UNL     1       8.052  11.723  29.219  0.00  0.00    +0.011 C 
ATOM     17  C24 UNL     1       7.256  13.994  29.928  0.00  0.00    +0.011 C 
ENDBRANCH  12  14
ENDBRANCH   2   5
BRANCH   1  18
ATOM     18  C12 UNL     1      18.058  16.029  28.324  0.00  0.00    +0.124 C 
BRANCH  18  24
ATOM     19  C1  UNL     1      19.136  16.068  31.522  0.00  0.00    +0.105 C 
ATOM     20  N1  UNL     1      19.990  15.083  30.837  0.00  0.00    -0.303 NA
ATOM     21  C2  UNL     1      21.263  15.653  30.360  0.00  0.00    +0.099 C 
ATOM     22  C3  UNL     1      21.112  16.380  29.020  0.00  0.00    +0.100 C 
ATOM     23  N2  UNL     1      20.523  15.475  28.016  0.00  0.00    -0.291 NA
ATOM     24  C11 UNL     1      19.192  14.967  28.425  0.00  0.00    +0.088 C 
ATOM     25  C26 UNL     1      19.295  14.279  29.812  0.00  0.00    +0.104 C 
BRANCH  23  26
ATOM     26  C4  UNL     1      20.531  16.068  26.662  0.00  0.00    +0.120 C 
BRANCH  26  27
ATOM     27  C5  UNL     1      21.764  15.639  25.912  0.00  0.00    -0.033 A 
ATOM     28  C6  UNL     1      22.006  14.275  25.680  0.00  0.00    +0.005 A 
ATOM     29  C7  UNL     1      23.162  13.871  25.005  0.00  0.00    +0.000 A 
ATOM     30  C8  UNL     1      24.082  14.822  24.559  0.00  0.00    +0.000 A 
ATOM     31  C9  UNL     1      23.851  16.180  24.789  0.00  0.00    +0.000 A 
ATOM     32  C10 UNL     1      22.696  16.590  25.464  0.00  0.00    +0.005 A 
ENDBRANCH  26  27
ENDBRANCH  23  26
ENDBRANCH  18  24
ENDBRANCH   1  18
TORSDOF 6
ENDMDL
MODEL 5
REMARK VINA RESULT:    -6.962      2.102      4.004
REMARK INTER + INTRA:         -10.119
REMARK INTER:                  -8.995
REMARK INTRA:                  -1.124
REMARK UNBOUND:                -0.715
REMARK  Name = /home/qwerty/github/datacon2025hack/step_04_hit_selection/docking/ligands/lig_808.pdb
REMARK  10 active torsions:
REMARK  status: ('A' for Active; 'I' for Inactive)
REMARK    1  A    between atoms: C1_1  and  N1_2
REMARK    2  A    between atoms: N2_5  and  C4_6
REMARK    3  A    between atoms: C4_6  and  C5_7
REMARK    4  A    between atoms: C11_13  and  C12_14
REMARK    5  A    between atoms: C12_14  and  N3_15
REMARK    6  A    between atoms: C13_16  and  C14_18
REMARK    7  A    between atoms: C20_25  and  C21_26
REMARK    8  A    between atoms: C21_26  and  C22_27
REMARK    9  A    between atoms: C21_26  and  C23_28
REMARK   10  A    between atoms: C21_26  and  C24_29
REMARK                            x       y       z     vdW  Elec       q    Type
REMARK                         _______ _______ _______ _____ _____    ______ ____
ROOT
ATOM      1  N3  UNL     1      22.574   5.947  22.844  0.00  0.00    -0.309 N 
ATOM      2  C13 UNL     1      21.459   5.914  23.749  0.00  0.00    +0.251 C 
ATOM      3  O1  UNL     1      20.672   6.897  23.814  0.00  0.00    -0.270 OA
ATOM      4  H18 UNL     1      23.295   5.192  22.887  0.00  0.00    +0.149 HD
ENDROOT
BRANCH   2   5
ATOM      5  C14 UNL     1      21.225   4.742  24.611  0.00  0.00    +0.074 A 
ATOM      6  C15 UNL     1      22.078   4.298  25.621  0.00  0.00    +0.024 A 
ATOM      7  C16 UNL     1      21.604   3.152  26.273  0.00  0.00    -0.036 A 
ATOM      8  C17 UNL     1      20.368   2.725  25.809  0.00  0.00    -0.006 A 
ATOM      9  S1  UNL     1      19.881   3.722  24.547  0.00  0.00    -0.088 S 
ATOM     10  C18 UNL     1      19.678   1.483  26.272  0.00  0.00    +0.043 C 
ATOM     11  C19 UNL     1      20.217   1.044  27.643  0.00  0.00    +0.009 C 
ATOM     12  C20 UNL     1      21.775   1.040  27.669  0.00  0.00    -0.001 C 
ATOM     13  C25 UNL     1      22.304   2.486  27.424  0.00  0.00    +0.040 C 
BRANCH  12  14
ATOM     14  C21 UNL     1      22.384   0.352  28.956  0.00  0.00    -0.035 C 
ATOM     15  C22 UNL     1      22.645  -1.150  28.682  0.00  0.00    +0.011 C 
ATOM     16  C23 UNL     1      23.746   0.993  29.318  0.00  0.00    +0.011 C 
ATOM     17  C24 UNL     1      21.449   0.468  30.182  0.00  0.00    +0.011 C 
ENDBRANCH  12  14
ENDBRANCH   2   5
BRANCH   1  18
ATOM     18  C12 UNL     1      22.785   7.038  21.893  0.00  0.00    +0.124 C 
BRANCH  18  24
ATOM     19  C1  UNL     1      25.167   8.169  19.786  0.00  0.00    +0.105 C 
ATOM     20  N1  UNL     1      24.139   7.566  18.921  0.00  0.00    -0.303 NA
ATOM     21  C2  UNL     1      23.165   8.547  18.409  0.00  0.00    +0.099 C 
ATOM     22  C3  UNL     1      22.059   8.857  19.423  0.00  0.00    +0.100 C 
ATOM     23  N2  UNL     1      21.391   7.611  19.841  0.00  0.00    -0.291 NA
ATOM     24  C11 UNL     1      22.332   6.644  20.456  0.00  0.00    +0.088 C 
ATOM     25  C26 UNL     1      23.503   6.355  19.480  0.00  0.00    +0.104 C 
BRANCH  23  26
ATOM     26  C4  UNL     1      20.197   7.872  20.672  0.00  0.00    +0.120 C 
BRANCH  26  27
ATOM     27  C5  UNL     1      19.084   6.930  20.297  0.00  0.00    -0.033 A 
ATOM     28  C6  UNL     1      18.333   7.160  19.132  0.00  0.00    +0.005 A 
ATOM     29  C7  UNL     1      17.283   6.303  18.791  0.00  0.00    +0.000 A 
ATOM     30  C8  UNL     1      16.974   5.214  19.610  0.00  0.00    +0.000 A 
ATOM     31  C9  UNL     1      17.713   4.981  20.772  0.00  0.00    +0.000 A 
ATOM     32  C10 UNL     1      18.765   5.836  21.117  0.00  0.00    +0.005 A 
ENDBRANCH  26  27
ENDBRANCH  23  26
ENDBRANCH  18  24
ENDBRANCH   1  18
TORSDOF 6
ENDMDL
MODEL 6
REMARK VINA RESULT:    -6.794     10.143     13.607
REMARK INTER + INTRA:          -9.893
REMARK INTER:                  -9.027
REMARK INTRA:                  -0.866
REMARK UNBOUND:                -0.715
REMARK  Name = /home/qwerty/github/datacon2025hack/step_04_hit_selection/docking/ligands/lig_808.pdb
REMARK  10 active torsions:
REMARK  status: ('A' for Active; 'I' for Inactive)
REMARK    1  A    between atoms: C1_1  and  N1_2
REMARK    2  A    between atoms: N2_5  and  C4_6
REMARK    3  A    between atoms: C4_6  and  C5_7
REMARK    4  A    between atoms: C11_13  and  C12_14
REMARK    5  A    between atoms: C12_14  and  N3_15
REMARK    6  A    between atoms: C13_16  and  C14_18
REMARK    7  A    between atoms: C20_25  and  C21_26
REMARK    8  A    between atoms: C21_26  and  C22_27
REMARK    9  A    between atoms: C21_26  and  C23_28
REMARK   10  A    between atoms: C21_26  and  C24_29
REMARK                            x       y       z     vdW  Elec       q    Type
REMARK                         _______ _______ _______ _____ _____    ______ ____
ROOT
ATOM      1  N3  UNL     1       8.694   6.770  24.027  0.00  0.00    -0.309 N 
ATOM      2  C13 UNL     1       8.421   6.442  25.398  0.00  0.00    +0.251 C 
ATOM      3  O1  UNL     1       8.296   5.236  25.745  0.00  0.00    -0.270 OA
ATOM      4  H18 UNL     1       8.666   7.768  23.721  0.00  0.00    +0.149 HD
ENDROOT
BRANCH   2   5
ATOM      5  C14 UNL     1       8.277   7.503  26.411  0.00  0.00    +0.074 A 
ATOM      6  C15 UNL     1       8.695   8.825  26.264  0.00  0.00    +0.024 A 
ATOM      7  C16 UNL     1       8.437   9.611  27.394  0.00  0.00    -0.036 A 
ATOM      8  C17 UNL     1       7.781   8.923  28.405  0.00  0.00    -0.006 A 
ATOM      9  S1  UNL     1       7.572   7.324  27.935  0.00  0.00    -0.088 S 
ATOM     10  C18 UNL     1       7.463   9.500  29.746  0.00  0.00    +0.043 C 
ATOM     11  C19 UNL     1       7.464  11.036  29.689  0.00  0.00    +0.009 C 
ATOM     12  C20 UNL     1       8.734  11.580  28.967  0.00  0.00    -0.001 C 
ATOM     13  C25 UNL     1       8.750  11.078  27.491  0.00  0.00    +0.040 C 
BRANCH  12  14
ATOM     14  C21 UNL     1       8.919  13.144  29.106  0.00  0.00    -0.035 C 
ATOM     15  C22 UNL     1       7.619  13.786  29.648  0.00  0.00    +0.011 C 
ATOM     16  C23 UNL     1      10.044  13.467  30.118  0.00  0.00    +0.011 C 
ATOM     17  C24 UNL     1       9.268  13.815  27.757  0.00  0.00    +0.011 C 
ENDBRANCH  12  14
ENDBRANCH   2   5
BRANCH   1  18
ATOM     18  C12 UNL     1       8.953   5.752  23.010  0.00  0.00    +0.124 C 
BRANCH  18  24
ATOM     19  C1  UNL     1       9.814   8.844  21.968  0.00  0.00    +0.105 C 
ATOM     20  N1  UNL     1      11.030   8.029  21.808  0.00  0.00    -0.303 NA
ATOM     21  C2  UNL     1      11.188   7.483  20.448  0.00  0.00    +0.099 C 
ATOM     22  C3  UNL     1      10.365   6.210  20.229  0.00  0.00    +0.100 C 
ATOM     23  N2  UNL     1      10.709   5.203  21.250  0.00  0.00    -0.291 NA
ATOM     24  C11 UNL     1      10.461   5.689  22.629  0.00  0.00    +0.088 C 
ATOM     25  C26 UNL     1      11.230   7.016  22.865  0.00  0.00    +0.104 C 
BRANCH  23  26
ATOM     26  C4  UNL     1      10.083   3.894  20.972  0.00  0.00    +0.120 C 
BRANCH  26  27
ATOM     27  C5  UNL     1      11.015   2.776  21.358  0.00  0.00    -0.033 A 
ATOM     28  C6  UNL     1      10.589   1.788  22.261  0.00  0.00    +0.005 A 
ATOM     29  C7  UNL     1      11.458   0.761  22.641  0.00  0.00    +0.000 A 
ATOM     30  C8  UNL     1      12.757   0.715  22.126  0.00  0.00    +0.000 A 
ATOM     31  C9  UNL     1      13.189   1.697  21.232  0.00  0.00    +0.000 A 
ATOM     32  C10 UNL     1      12.323   2.726  20.848  0.00  0.00    +0.005 A 
ENDBRANCH  26  27
ENDBRANCH  23  26
ENDBRANCH  18  24
ENDBRANCH   1  18
TORSDOF 6
ENDMDL
MODEL 7
REMARK VINA RESULT:    -6.775     12.877     14.164
REMARK INTER + INTRA:          -9.867
REMARK INTER:                  -8.941
REMARK INTRA:                  -0.926
REMARK UNBOUND:                -0.715
REMARK  Name = /home/qwerty/github/datacon2025hack/step_04_hit_selection/docking/ligands/lig_808.pdb
REMARK  10 active torsions:
REMARK  status: ('A' for Active; 'I' for Inactive)
REMARK    1  A    between atoms: C1_1  and  N1_2
REMARK    2  A    between atoms: N2_5  and  C4_6
REMARK    3  A    between atoms: C4_6  and  C5_7
REMARK    4  A    between atoms: C11_13  and  C12_14
REMARK    5  A    between atoms: C12_14  and  N3_15
REMARK    6  A    between atoms: C13_16  and  C14_18
REMARK    7  A    between atoms: C20_25  and  C21_26
REMARK    8  A    between atoms: C21_26  and  C22_27
REMARK    9  A    between atoms: C21_26  and  C23_28
REMARK   10  A    between atoms: C21_26  and  C24_29
REMARK                            x       y       z     vdW  Elec       q    Type
REMARK                         _______ _______ _______ _____ _____    ______ ____
ROOT
ATOM      1  N3  UNL     1      12.453  13.387  31.336  0.00  0.00    -0.309 N 
ATOM      2  C13 UNL     1      12.754  14.188  32.490  0.00  0.00    +0.251 C 
ATOM      3  O1  UNL     1      12.345  15.379  32.555  0.00  0.00    -0.270 OA
ATOM      4  H18 UNL     1      12.902  12.451  31.228  0.00  0.00    +0.149 HD
ENDROOT
BRANCH   2   5
ATOM      5  C14 UNL     1      13.544  13.634  33.604  0.00  0.00    +0.074 A 
ATOM      6  C15 UNL     1      14.845  13.141  33.506  0.00  0.00    +0.024 A 
ATOM      7  C16 UNL     1      15.345  12.668  34.727  0.00  0.00    -0.036 A 
ATOM      8  C17 UNL     1      14.461  12.830  35.784  0.00  0.00    -0.006 A 
ATOM      9  S1  UNL     1      13.032  13.499  35.207  0.00  0.00    -0.088 S 
ATOM     10  C18 UNL     1      14.711  12.338  37.173  0.00  0.00    +0.043 C 
ATOM     11  C19 UNL     1      16.214  12.120  37.408  0.00  0.00    +0.009 C 
ATOM     12  C20 UNL     1      16.863  11.314  36.243  0.00  0.00    -0.001 C 
ATOM     13  C25 UNL     1      16.732  12.120  34.914  0.00  0.00    +0.040 C 
BRANCH  12  14
ATOM     14  C21 UNL     1      18.339  10.837  36.550  0.00  0.00    -0.035 C 
ATOM     15  C22 UNL     1      19.279  12.062  36.670  0.00  0.00    +0.011 C 
ATOM     16  C23 UNL     1      18.394  10.086  37.901  0.00  0.00    +0.011 C 
ATOM     17  C24 UNL     1      18.895   9.904  35.449  0.00  0.00    +0.011 C 
ENDBRANCH  12  14
ENDBRANCH   2   5
BRANCH   1  18
ATOM     18  C12 UNL     1      11.582  13.855  30.258  0.00  0.00    +0.124 C 
BRANCH  18  24
ATOM     19  C1  UNL     1      14.477  14.864  28.848  0.00  0.00    +0.105 C 
ATOM     20  N1  UNL     1      13.930  13.852  27.928  0.00  0.00    -0.303 NA
ATOM     21  C2  UNL     1      13.144  14.436  26.826  0.00  0.00    +0.099 C 
ATOM     22  C3  UNL     1      11.706  14.764  27.242  0.00  0.00    +0.100 C 
ATOM     23  N2  UNL     1      11.050  13.561  27.786  0.00  0.00    -0.291 NA
ATOM     24  C11 UNL     1      11.764  13.010  28.963  0.00  0.00    +0.088 C 
ATOM     25  C26 UNL     1      13.245  12.727  28.595  0.00  0.00    +0.104 C 
BRANCH  23  26
ATOM     26  C4  UNL     1       9.608  13.776  28.027  0.00  0.00    +0.120 C 
BRANCH  26  27
ATOM     27  C5  UNL     1       8.906  12.456  28.208  0.00  0.00    -0.033 A 
ATOM     28  C6  UNL     1       8.812  11.558  27.132  0.00  0.00    +0.005 A 
ATOM     29  C7  UNL     1       8.142  10.341  27.288  0.00  0.00    +0.000 A 
ATOM     30  C8  UNL     1       7.560  10.014  28.515  0.00  0.00    +0.000 A 
ATOM     31  C9  UNL     1       7.646  10.903  29.589  0.00  0.00    +0.000 A 
ATOM     32  C10 UNL     1       8.316  12.122  29.438  0.00  0.00    +0.005 A 
ENDBRANCH  26  27
ENDBRANCH  23  26
ENDBRANCH  18  24
ENDBRANCH   1  18
TORSDOF 6
ENDMDL
MODEL 8
REMARK VINA RESULT:    -6.757      7.822     11.213
REMARK INTER + INTRA:          -9.842
REMARK INTER:                  -8.436
REMARK INTRA:                  -1.406
REMARK UNBOUND:                -0.715
REMARK  Name = /home/qwerty/github/datacon2025hack/step_04_hit_selection/docking/ligands/lig_808.pdb
REMARK  10 active torsions:
REMARK  status: ('A' for Active; 'I' for Inactive)
REMARK    1  A    between atoms: C1_1  and  N1_2
REMARK    2  A    between atoms: N2_5  and  C4_6
REMARK    3  A    between atoms: C4_6  and  C5_7
REMARK    4  A    between atoms: C11_13  and  C12_14
REMARK    5  A    between atoms: C12_14  and  N3_15
REMARK    6  A    between atoms: C13_16  and  C14_18
REMARK    7  A    between atoms: C20_25  and  C21_26
REMARK    8  A    between atoms: C21_26  and  C22_27
REMARK    9  A    between atoms: C21_26  and  C23_28
REMARK   10  A    between atoms: C21_26  and  C24_29
REMARK                            x       y       z     vdW  Elec       q    Type
REMARK                         _______ _______ _______ _____ _____    ______ ____
ROOT
ATOM      1  N3  UNL     1      20.487   3.645  28.876  0.00  0.00    -0.309 N 
ATOM      2  C13 UNL     1      20.903   2.471  28.161  0.00  0.00    +0.251 C 
ATOM      3  O1  UNL     1      22.106   2.096  28.211  0.00  0.00    -0.270 OA
ATOM      4  H18 UNL     1      19.526   4.026  28.726  0.00  0.00    +0.149 HD
ENDROOT
BRANCH   2   5
ATOM      5  C14 UNL     1      19.938   1.699  27.357  0.00  0.00    +0.074 A 
ATOM      6  C15 UNL     1      18.681   1.277  27.788  0.00  0.00    +0.024 A 
ATOM      7  C16 UNL     1      17.983   0.552  26.814  0.00  0.00    -0.036 A 
ATOM      8  C17 UNL     1      18.667   0.443  25.612  0.00  0.00    -0.006 A 
ATOM      9  S1  UNL     1      20.166   1.187  25.765  0.00  0.00    -0.088 S 
ATOM     10  C18 UNL     1      18.187  -0.347  24.438  0.00  0.00    +0.043 C 
ATOM     11  C19 UNL     1      16.669  -0.571  24.522  0.00  0.00    +0.009 C 
ATOM     12  C20 UNL     1      16.242  -1.071  25.935  0.00  0.00    -0.001 C 
ATOM     13  C25 UNL     1      16.592   0.013  26.999  0.00  0.00    +0.040 C 
BRANCH  12  14
ATOM     14  C21 UNL     1      14.742  -1.566  26.004  0.00  0.00    -0.035 C 
ATOM     15  C22 UNL     1      13.831  -0.614  25.190  0.00  0.00    +0.011 C 
ATOM     16  C23 UNL     1      14.607  -2.973  25.377  0.00  0.00    +0.011 C 
ATOM     17  C24 UNL     1      14.210  -1.624  27.455  0.00  0.00    +0.011 C 
ENDBRANCH  12  14
ENDBRANCH   2   5
BRANCH   1  18
ATOM     18  C12 UNL     1      21.380   4.380  29.771  0.00  0.00    +0.124 C 
BRANCH  18  24
ATOM     19  C1  UNL     1      22.657   7.211  31.090  0.00  0.00    +0.105 C 
ATOM     20  N1  UNL     1      21.816   6.635  32.152  0.00  0.00    -0.303 NA
ATOM     21  C2  UNL     1      22.574   5.803  33.104  0.00  0.00    +0.099 C 
ATOM     22  C3  UNL     1      22.805   4.380  32.583  0.00  0.00    +0.100 C 
ATOM     23  N2  UNL     1      21.517   3.753  32.235  0.00  0.00    -0.291 NA
ATOM     24  C11 UNL     1      20.778   4.517  31.201  0.00  0.00    +0.088 C 
ATOM     25  C26 UNL     1      20.582   5.983  31.668  0.00  0.00    +0.104 C 
BRANCH  23  26
ATOM     26  C4  UNL     1      21.668   2.321  31.906  0.00  0.00    +0.120 C 
BRANCH  26  27
ATOM     27  C5  UNL     1      20.412   1.568  32.260  0.00  0.00    -0.033 A 
ATOM     28  C6  UNL     1      19.886   0.622  31.365  0.00  0.00    +0.005 A 
ATOM     29  C7  UNL     1      18.707  -0.063  31.678  0.00  0.00    +0.000 A 
ATOM     30  C8  UNL     1      18.046   0.194  32.882  0.00  0.00    +0.000 A 
ATOM     31  C9  UNL     1      18.561   1.137  33.774  0.00  0.00    +0.000 A 
ATOM     32  C10 UNL     1      19.740   1.824  33.466  0.00  0.00    +0.005 A 
ENDBRANCH  26  27
ENDBRANCH  23  26
ENDBRANCH  18  24
ENDBRANCH   1  18
TORSDOF 6
ENDMDL
MODEL 9
REMARK VINA RESULT:    -6.710     10.241     13.056
REMARK INTER + INTRA:          -9.779
REMARK INTER:                  -8.741
REMARK INTRA:                  -1.038
REMARK UNBOUND:                -0.715
REMARK  Name = /home/qwerty/github/datacon2025hack/step_04_hit_selection/docking/ligands/lig_808.pdb
REMARK  10 active torsions:
REMARK  status: ('A' for Active; 'I' for Inactive)
REMARK    1  A    between atoms: C1_1  and  N1_2
REMARK    2  A    between atoms: N2_5  and  C4_6
REMARK    3  A    between atoms: C4_6  and  C5_7
REMARK    4  A    between atoms: C11_13  and  C12_14
REMARK    5  A    between atoms: C12_14  and  N3_15
REMARK    6  A    between atoms: C13_16  and  C14_18
REMARK    7  A    between atoms: C20_25  and  C21_26
REMARK    8  A    between atoms: C21_26  and  C22_27
REMARK    9  A    between atoms: C21_26  and  C23_28
REMARK   10  A    between atoms: C21_26  and  C24_29
REMARK                            x       y       z     vdW  Elec       q    Type
REMARK                         _______ _______ _______ _____ _____    ______ ____
ROOT
ATOM      1  N3  UNL     1      10.114   6.069  24.930  0.00  0.00    -0.309 N 
ATOM      2  C13 UNL     1       8.824   6.265  25.530  0.00  0.00    +0.251 C 
ATOM      3  O1  UNL     1       7.879   5.473  25.265  0.00  0.00    -0.270 OA
ATOM      4  H18 UNL     1      10.853   6.797  25.049  0.00  0.00    +0.149 HD
ENDROOT
BRANCH   2   5
ATOM      5  C14 UNL     1       8.587   7.389  26.453  0.00  0.00    +0.074 A 
ATOM      6  C15 UNL     1       8.745   8.739  26.142  0.00  0.00    +0.024 A 
ATOM      7  C16 UNL     1       8.457   9.587  27.219  0.00  0.00    -0.036 A 
ATOM      8  C17 UNL     1       8.034   8.912  28.355  0.00  0.00    -0.006 A 
ATOM      9  S1  UNL     1       8.073   7.259  28.057  0.00  0.00    -0.088 S 
ATOM     10  C18 UNL     1       7.744   9.568  29.665  0.00  0.00    +0.043 C 
ATOM     11  C19 UNL     1       7.463  11.066  29.470  0.00  0.00    +0.009 C 
ATOM     12  C20 UNL     1       8.541  11.737  28.565  0.00  0.00    -0.001 C 
ATOM     13  C25 UNL     1       8.508  11.088  27.148  0.00  0.00    +0.040 C 
BRANCH  12  14
ATOM     14  C21 UNL     1       8.454  13.315  28.541  0.00  0.00    -0.035 C 
ATOM     15  C22 UNL     1       7.630  13.819  29.752  0.00  0.00    +0.011 C 
ATOM     16  C23 UNL     1       9.866  13.936  28.659  0.00  0.00    +0.011 C 
ATOM     17  C24 UNL     1       7.793  13.847  27.248  0.00  0.00    +0.011 C 
ENDBRANCH  12  14
ENDBRANCH   2   5
BRANCH   1  18
ATOM     18  C12 UNL     1      10.427   4.908  24.096  0.00  0.00    +0.124 C 
BRANCH  18  24
ATOM     19  C1  UNL     1      10.635   1.899  22.583  0.00  0.00    +0.105 C 
ATOM     20  N1  UNL     1      10.196   2.832  21.531  0.00  0.00    -0.303 NA
ATOM     21  C2  UNL     1      11.311   3.360  20.724  0.00  0.00    +0.099 C 
ATOM     22  C3  UNL     1      12.021   4.536  21.402  0.00  0.00    +0.100 C 
ATOM     23  N2  UNL     1      11.048   5.596  21.725  0.00  0.00    -0.291 NA
ATOM     24  C11 UNL     1       9.969   5.118  22.623  0.00  0.00    +0.088 C 
ATOM     25  C26 UNL     1       9.269   3.884  21.995  0.00  0.00    +0.104 C 
BRANCH  23  26
ATOM     26  C4  UNL     1      11.708   6.826  22.209  0.00  0.00    +0.120 C 
BRANCH  26  27
ATOM     27  C5  UNL     1      11.023   8.043  21.644  0.00  0.00    -0.033 A 
ATOM     28  C6  UNL     1      11.318   8.471  20.340  0.00  0.00    +0.005 A 
ATOM     29  C7  UNL     1      10.703   9.613  19.818  0.00  0.00    +0.000 A 
ATOM     30  C8  UNL     1       9.793  10.335  20.595  0.00  0.00    +0.000 A 
ATOM     31  C9  UNL     1       9.498   9.918  21.894  0.00  0.00    +0.000 A 
ATOM     32  C10 UNL     1      10.110   8.776  22.420  0.00  0.00    +0.005 A 
ENDBRANCH  26  27
ENDBRANCH  23  26
ENDBRANCH  18  24
ENDBRANCH   1  18
TORSDOF 6
ENDMDL
