REMARK  Name = /home/qwerty/github/datacon2025hack/step_04_hit_selection/docking/ligands/lig_712.pdb
REMARK  6 active torsions:
REMARK  status: ('A' for Active; 'I' for Inactive)
REMARK    1  A    between atoms: C1_1  and  C2_2
REMARK    2  A    between atoms: C4_4  and  C5_5
REMARK    3  A    between atoms: C5_5  and  N1_6
REMARK    4  A    between atoms: C8_9  and  C9_10
REMARK    5  A    between atoms: C10_11  and  N2_12
REMARK    6  A    between atoms: C11_13  and  C12_15
REMARK                            x       y       z     vdW  Elec       q    Type
REMARK                         _______ _______ _______ _____ _____    ______ ____
ROOT
ATOM      1  N1  UNL     1       1.335  -0.867   0.874  0.00  0.00    -0.295 NA
ATOM      2  C6  UNL     1       1.774  -2.084   0.145  0.00  0.00    +0.085 C 
ATOM      3  C7  UNL     1       0.594  -2.866  -0.475  0.00  0.00    +0.020 C 
ATOM      4  C8  UNL     1      -0.651  -1.977  -0.618  0.00  0.00    +0.009 C 
ATOM      5  C9  UNL     1      -1.797  -2.746  -1.287  0.00  0.00    +0.009 C 
ATOM      6  C10 UNL     1      -1.081  -1.422   0.766  0.00  0.00    +0.090 C 
ATOM      7  C17 UNL     1       0.135  -1.152   1.684  0.00  0.00    +0.107 C 
ENDROOT
BRANCH   6   8
ATOM      8  N2  UNL     1      -1.844  -0.183   0.576  0.00  0.00    -0.307 N 
ATOM      9  C11 UNL     1      -3.244  -0.070   0.884  0.00  0.00    +0.244 C 
ATOM     10  O1  UNL     1      -3.802  -0.951   1.594  0.00  0.00    -0.270 OA
ATOM     11  H16 UNL     1      -1.338   0.642   0.184  0.00  0.00    +0.149 HD
BRANCH   9  12
ATOM     12  C12 UNL     1      -4.040   1.082   0.398  0.00  0.00    +0.040 A 
ATOM     13  C13 UNL     1      -5.213   1.464   1.072  0.00  0.00    +0.033 A 
ATOM     14  C14 UNL     1      -5.961   2.546   0.602  0.00  0.00    +0.111 A 
ATOM     15  N3  UNL     1      -5.562   3.221  -0.507  0.00  0.00    -0.263 NA
ATOM     16  C15 UNL     1      -4.440   2.870  -1.189  0.00  0.00    +0.111 A 
ATOM     17  C16 UNL     1      -3.661   1.794  -0.753  0.00  0.00    +0.033 A 
ENDBRANCH   9  12
ENDBRANCH   6   8
BRANCH   1  18
ATOM     18  C5  UNL     1       2.420  -0.334   1.724  0.00  0.00    +0.140 C 
BRANCH  18  22
ATOM     19  C1  UNL     1       4.190   3.060  -1.543  0.00  0.00    +0.066 C 
ATOM     20  C2  UNL     1       4.370   1.843  -0.692  0.00  0.00    +0.042 A 
ATOM     21  C3  UNL     1       3.318   1.369   0.097  0.00  0.00    +0.047 A 
ATOM     22  C4  UNL     1       3.528   0.228   0.880  0.00  0.00    +0.059 A 
ATOM     23  N4  UNL     1       4.738  -0.392   0.850  0.00  0.00    -0.239 NA
ATOM     24  C18 UNL     1       5.751   0.083   0.080  0.00  0.00    +0.221 A 
ATOM     25  N5  UNL     1       5.564   1.192  -0.683  0.00  0.00    -0.241 NA
ENDBRANCH  18  22
ENDBRANCH   1  18
TORSDOF 4
