REMARK  Name = /home/qwerty/github/datacon2025hack/step_04_hit_selection/docking/ligands/lig_191.pdb
REMARK  8 active torsions:
REMARK  status: ('A' for Active; 'I' for Inactive)
REMARK    1  A    between atoms: C1_1  and  C2_2
REMARK    2  A    between atoms: C2_2  and  C3_3
REMARK    3  A    between atoms: C2_2  and  C4_4
REMARK    4  A    between atoms: C4_4  and  C5_5
REMARK    5  A    between atoms: N1_7  and  C6_8
REMARK    6  A    between atoms: C9_11  and  N2_12
REMARK    7  A    between atoms: N3_15  and  C11_16
REMARK    8  A    between atoms: N4_22  and  C17_23
REMARK                            x       y       z     vdW  Elec       q    Type
REMARK                         _______ _______ _______ _____ _____    ______ ____
ROOT
ATOM      1  N2  UNL     1       0.571   1.545  -0.111  0.00  0.00    -0.269 N 
ATOM      2  C10 UNL     1       1.695   0.748  -0.513  0.00  0.00    +0.308 C 
ATOM      3  O2  UNL     1       1.525  -0.278  -1.228  0.00  0.00    -0.252 OA
ATOM      4  N3  UNL     1       3.015   1.127  -0.095  0.00  0.00    -0.269 N 
ATOM      5  H13 UNL     1       0.766   2.511   0.238  0.00  0.00    +0.156 HD
ATOM      6  H14 UNL     1       3.093   1.804   0.698  0.00  0.00    +0.156 HD
ENDROOT
BRANCH   4   7
ATOM      7  C11 UNL     1       4.225   0.543  -0.607  0.00  0.00    +0.037 A 
ATOM      8  C12 UNL     1       4.341   0.168  -1.956  0.00  0.00    +0.027 A 
ATOM      9  C13 UNL     1       5.534  -0.374  -2.436  0.00  0.00    +0.049 A 
ATOM     10  C14 UNL     1       6.630  -0.528  -1.585  0.00  0.00    +0.143 A 
ATOM     11  C15 UNL     1       6.539  -0.157  -0.230  0.00  0.00    +0.080 A 
ATOM     12  C16 UNL     1       5.330   0.392   0.245  0.00  0.00    +0.050 A 
ATOM     13  N4  UNL     1       7.673  -0.390   0.642  0.00  0.00    -0.269 N 
ATOM     14  C17 UNL     1       7.584  -0.133   2.086  0.00  0.00    +0.138 C 
ATOM     15  C18 UNL     1       8.888  -0.915   0.068  0.00  0.00    +0.257 C 
ATOM     16  O3  UNL     1       9.830  -1.318   0.803  0.00  0.00    -0.272 OA
ATOM     17  C19 UNL     1       9.068  -0.922  -1.420  0.00  0.00    +0.325 C 
ATOM     18  O4  UNL     1       7.817  -1.068  -2.088  0.00  0.00    -0.481 OA
ENDBRANCH   4   7
BRANCH   1  22
ATOM     19  C6  UNL     1      -3.518   0.430  -0.514  0.00  0.00    +0.033 A 
ATOM     20  C7  UNL     1      -3.118   1.764  -0.671  0.00  0.00    +0.025 A 
ATOM     21  C8  UNL     1      -1.773   2.122  -0.534  0.00  0.00    +0.025 A 
ATOM     22  C9  UNL     1      -0.801   1.147  -0.270  0.00  0.00    +0.035 A 
ATOM     23  C20 UNL     1      -1.200  -0.192  -0.113  0.00  0.00    +0.025 A 
ATOM     24  C21 UNL     1      -2.545  -0.549  -0.247  0.00  0.00    +0.025 A 
BRANCH  19  27
ATOM     25  C5  UNL     1      -5.572  -0.944   0.069  0.00  0.00    +0.217 C 
ATOM     26  O1  UNL     1      -5.015  -1.477   1.067  0.00  0.00    -0.275 OA
ATOM     27  N1  UNL     1      -4.904   0.086  -0.678  0.00  0.00    -0.285 N 
ATOM     28  H10 UNL     1      -5.484   0.683  -1.310  0.00  0.00    +0.155 HD
BRANCH  25  29
ATOM     29  C4  UNL     1      -6.976  -1.341  -0.286  0.00  0.00    +0.099 C 
BRANCH  29  31
ATOM     30  C1  UNL     1      -9.406  -1.267   0.386  0.00  0.00    +0.008 C 
ATOM     31  C2  UNL     1      -8.014  -0.678   0.645  0.00  0.00    -0.008 C 
ATOM     32  C3  UNL     1      -8.047   0.846   0.462  0.00  0.00    +0.008 C 
ENDBRANCH  29  31
ENDBRANCH  25  29
ENDBRANCH  19  27
ENDBRANCH   1  22
TORSDOF 5
