REMARK  Name = /home/qwerty/github/datacon2025hack/step_04_hit_selection/docking/ligands/lig_727.pdb
REMARK  8 active torsions:
REMARK  status: ('A' for Active; 'I' for Inactive)
REMARK    1  A    between atoms: C1_1  and  C2_2
REMARK    2  A    between atoms: C2_2  and  N1_3
REMARK    3  A    between atoms: N1_3  and  C3_4
REMARK    4  A    between atoms: C3_4  and  C4_5
REMARK    5  A    between atoms: C5_6  and  C6_8
REMARK    6  A    between atoms: C9_11  and  C10_12
REMARK    7  A    between atoms: N2_14  and  C11_15
REMARK    8  A    between atoms: C15_19  and  C16_20
REMARK                            x       y       z     vdW  Elec       q    Type
REMARK                         _______ _______ _______ _____ _____    ______ ____
ROOT
ATOM      1  C10 UNL     1      -0.602  -1.547  -0.146  0.00  0.00    +0.248 C 
ATOM      2  O2  UNL     1      -0.724  -2.625  -0.790  0.00  0.00    -0.270 OA
ATOM      3  N2  UNL     1       0.699  -1.130   0.312  0.00  0.00    -0.281 N 
ATOM      4  H13 UNL     1       0.809  -0.197   0.766  0.00  0.00    +0.155 HD
ENDROOT
BRANCH   1   8
ATOM      5  C6  UNL     1      -4.151   0.796   0.554  0.00  0.00    +0.037 A 
ATOM      6  C7  UNL     1      -2.894   1.418   0.507  0.00  0.00    +0.014 A 
ATOM      7  C8  UNL     1      -1.738   0.667   0.279  0.00  0.00    +0.014 A 
ATOM      8  C9  UNL     1      -1.813  -0.728   0.114  0.00  0.00    +0.037 A 
ATOM      9  C24 UNL     1      -3.073  -1.348   0.167  0.00  0.00    +0.014 A 
ATOM     10  C25 UNL     1      -4.229  -0.595   0.391  0.00  0.00    +0.014 A 
BRANCH   5  12
ATOM     11  N1  UNL     1      -6.653   1.197   0.267  0.00  0.00    -0.298 N 
ATOM     12  C5  UNL     1      -5.372   1.599   0.794  0.00  0.00    +0.247 C 
ATOM     13  O1  UNL     1      -5.287   2.652   1.483  0.00  0.00    -0.270 OA
BRANCH  11  15
ATOM     14  C1  UNL     1      -8.496   2.802   0.669  0.00  0.00    +0.024 C 
ATOM     15  C2  UNL     1      -7.860   1.473   1.065  0.00  0.00    +0.104 C 
ENDBRANCH  11  15
BRANCH  11  16
ATOM     16  C3  UNL     1      -6.768   0.863  -1.165  0.00  0.00    +0.104 C 
ATOM     17  C4  UNL     1      -7.608  -0.392  -1.395  0.00  0.00    +0.024 C 
ENDBRANCH  11  16
ENDBRANCH   5  12
ENDBRANCH   1   8
BRANCH   3  18
ATOM     18  C11 UNL     1       1.901  -1.886   0.089  0.00  0.00    +0.034 A 
ATOM     19  C12 UNL     1       1.927  -3.282   0.249  0.00  0.00    +0.023 A 
ATOM     20  C13 UNL     1       3.109  -3.993   0.027  0.00  0.00    +0.002 A 
ATOM     21  C14 UNL     1       4.277  -3.319  -0.336  0.00  0.00    +0.011 A 
ATOM     22  C15 UNL     1       4.278  -1.922  -0.453  0.00  0.00    +0.019 A 
ATOM     23  C23 UNL     1       3.084  -1.212  -0.248  0.00  0.00    +0.034 A 
BRANCH  22  24
ATOM     24  C16 UNL     1       5.513  -1.221  -0.848  0.00  0.00    +0.141 A 
ATOM     25  N3  UNL     1       6.272  -1.623  -1.894  0.00  0.00    -0.236 NA
ATOM     26  C17 UNL     1       7.322  -0.775  -1.899  0.00  0.00    +0.134 A 
ATOM     27  C18 UNL     1       7.192   0.101  -0.847  0.00  0.00    +0.039 A 
ATOM     28  N4  UNL     1       6.043  -0.155  -0.202  0.00  0.00    -0.328 N 
ATOM     29  C19 UNL     1       5.672   0.415   1.098  0.00  0.00    +0.123 C 
ATOM     30  C20 UNL     1       6.430   1.730   1.351  0.00  0.00    +0.022 C 
ATOM     31  C21 UNL     1       7.922   1.580   1.014  0.00  0.00    +0.008 C 
ATOM     32  C22 UNL     1       8.127   1.206  -0.462  0.00  0.00    +0.055 C 
ENDBRANCH  22  24
ENDBRANCH   3  18
TORSDOF 6
