REMARK  Name = /home/qwerty/github/datacon2025hack/step_04_hit_selection/docking/ligands/lig_152.pdb
REMARK  7 active torsions:
REMARK  status: ('A' for Active; 'I' for Inactive)
REMARK    1  A    between atoms: C1_1  and  O1_2
REMARK    2  A    between atoms: O1_2  and  C2_3
REMARK    3  A    between atoms: C8_9  and  C9_10
REMARK    4  A    between atoms: N1_12  and  C10_13
REMARK    5  A    between atoms: C14_17  and  C15_18
REMARK    6  A    between atoms: C17_23  and  C18_24
REMARK    7  A    between atoms: N2_25  and  C19_26
REMARK                            x       y       z     vdW  Elec       q    Type
REMARK                         _______ _______ _______ _____ _____    ______ ____
ROOT
ATOM      1  C9  UNL     1       0.654  -0.662  -0.888  0.00  0.00    +0.251 C 
ATOM      2  O2  UNL     1       1.521  -0.546  -1.796  0.00  0.00    -0.270 OA
ATOM      3  N1  UNL     1       1.060  -0.890   0.470  0.00  0.00    -0.281 N 
ATOM      4  H7  UNL     1       0.398  -1.407   1.093  0.00  0.00    +0.155 HD
ENDROOT
BRANCH   1  11
ATOM      5  C2  UNL     1      -3.042   0.941   1.327  0.00  0.00    +0.121 A 
ATOM      6  C3  UNL     1      -4.229   0.764   0.584  0.00  0.00    +0.047 A 
ATOM      7  C4  UNL     1      -4.203   0.172  -0.689  0.00  0.00    +0.030 A 
ATOM      8  C5  UNL     1      -2.970  -0.246  -1.198  0.00  0.00    +0.050 A 
ATOM      9  C6  UNL     1      -1.813  -0.104  -0.471  0.00  0.00    +0.016 A 
ATOM     10  C7  UNL     1      -1.808   0.505   0.787  0.00  0.00    +0.056 A 
ATOM     11  C8  UNL     1      -0.779  -0.614  -1.240  0.00  0.00    +0.065 A 
ATOM     12  C17 UNL     1      -1.378  -1.059  -2.423  0.00  0.00    +0.029 A 
ATOM     13  C18 UNL     1      -0.661  -1.714  -3.570  0.00  0.00    +0.064 C 
ATOM     14  N2  UNL     1      -2.713  -0.803  -2.402  0.00  0.00    -0.346 N 
ATOM     15  C19 UNL     1      -3.690  -1.138  -3.440  0.00  0.00    +0.149 C 
BRANCH   5  17
ATOM     16  C1  UNL     1      -2.021   1.792   3.444  0.00  0.00    +0.277 C 
ATOM     17  O1  UNL     1      -3.132   1.553   2.586  0.00  0.00    -0.495 OA
ENDBRANCH   5  17
ENDBRANCH   1  11
BRANCH   3  18
ATOM     18  C10 UNL     1       2.360  -0.560   0.986  0.00  0.00    +0.034 A 
ATOM     19  C11 UNL     1       2.894  -1.316   2.039  0.00  0.00    +0.023 A 
ATOM     20  C12 UNL     1       4.152  -1.011   2.562  0.00  0.00    +0.002 A 
ATOM     21  C13 UNL     1       4.880   0.068   2.055  0.00  0.00    +0.012 A 
ATOM     22  C14 UNL     1       4.343   0.871   1.035  0.00  0.00    +0.057 A 
ATOM     23  C16 UNL     1       3.087   0.540   0.494  0.00  0.00    +0.035 A 
BRANCH  22  24
ATOM     24  C15 UNL     1       5.138   2.019   0.465  0.00  0.00    +0.417 C 
ATOM     25  F1  UNL     1       5.874   1.570  -0.616  0.00  0.00    -0.166 F 
ATOM     26  F2  UNL     1       4.295   3.034   0.046  0.00  0.00    -0.166 F 
ATOM     27  F3  UNL     1       6.002   2.539   1.413  0.00  0.00    -0.166 F 
ENDBRANCH  22  24
ENDBRANCH   3  18
TORSDOF 4
