REMARK  Name = /home/qwerty/github/datacon2025hack/step_04_hit_selection/docking/ligands/lig_162.pdb
REMARK  9 active torsions:
REMARK  status: ('A' for Active; 'I' for Inactive)
REMARK    1  A    between atoms: C1_1  and  O1_2
REMARK    2  A    between atoms: O1_2  and  C2_3
REMARK    3  A    between atoms: C2_3  and  C3_5
REMARK    4  A    between atoms: C5_7  and  N1_8
REMARK    5  A    between atoms: N2_11  and  C7_12
REMARK    6  A    between atoms: C7_12  and  C8_13
REMARK    7  A    between atoms: C7_12  and  C9_14
REMARK    8  A    between atoms: C12_17  and  N3_18
REMARK    9  A    between atoms: C13_19  and  C14_21
REMARK                            x       y       z     vdW  Elec       q    Type
REMARK                         _______ _______ _______ _____ _____    ______ ____
ROOT
ATOM      1  C7  UNL     1      -0.180   2.982   1.904  0.00  0.00    +0.102 C 
ATOM      2  C8  UNL     1      -1.071   3.778   2.865  0.00  0.00    +0.033 C 
ENDROOT
BRANCH   1   6
ATOM      3  N1  UNL     1       2.806   0.755   2.828  0.00  0.00    -0.269 N 
ATOM      4  C6  UNL     1       1.974   1.653   2.078  0.00  0.00    +0.304 C 
ATOM      5  O3  UNL     1       2.329   2.046   0.933  0.00  0.00    -0.252 OA
ATOM      6  N2  UNL     1       0.751   2.133   2.653  0.00  0.00    -0.293 N 
ATOM      7  H5  UNL     1       2.599   0.639   3.847  0.00  0.00    +0.156 HD
ATOM      8  H6  UNL     1       0.477   1.785   3.601  0.00  0.00    +0.151 HD
BRANCH   3  11
ATOM      9  C3  UNL     1       5.179  -0.985   0.472  0.00  0.00    +0.096 A 
ATOM     10  C4  UNL     1       4.028  -0.350   0.974  0.00  0.00    +0.041 A 
ATOM     11  C5  UNL     1       3.980   0.112   2.301  0.00  0.00    +0.036 A 
ATOM     12  C21 UNL     1       5.077  -0.108   3.143  0.00  0.00    +0.026 A 
ATOM     13  C22 UNL     1       6.220  -0.744   2.660  0.00  0.00    +0.041 A 
ATOM     14  C23 UNL     1       6.281  -1.175   1.332  0.00  0.00    +0.137 A 
ATOM     15  F1  UNL     1       7.421  -1.775   0.898  0.00  0.00    -0.205 F 
BRANCH   9  16
ATOM     16  C2  UNL     1       5.211  -1.438  -0.941  0.00  0.00    +0.342 C 
ATOM     17  O2  UNL     1       6.235  -2.014  -1.405  0.00  0.00    -0.245 OA
BRANCH  16  19
ATOM     18  C1  UNL     1       4.076  -1.601  -3.136  0.00  0.00    +0.280 C 
ATOM     19  O1  UNL     1       4.103  -1.216  -1.767  0.00  0.00    -0.464 OA
ENDBRANCH  16  19
ENDBRANCH   9  16
ENDBRANCH   3  11
ENDBRANCH   1   6
BRANCH   1  20
ATOM     20  C9  UNL     1      -1.015   2.134   0.970  0.00  0.00    -0.027 A 
ATOM     21  C10 UNL     1      -1.794   1.074   1.466  0.00  0.00    +0.007 A 
ATOM     22  C11 UNL     1      -2.569   0.298   0.601  0.00  0.00    +0.023 A 
ATOM     23  C12 UNL     1      -2.579   0.567  -0.778  0.00  0.00    +0.034 A 
ATOM     24  C19 UNL     1      -1.779   1.604  -1.278  0.00  0.00    +0.023 A 
ATOM     25  C20 UNL     1      -1.011   2.388  -0.412  0.00  0.00    +0.007 A 
BRANCH  23  26
ATOM     26  N3  UNL     1      -3.353  -0.234  -1.687  0.00  0.00    -0.282 N 
ATOM     27  C13 UNL     1      -4.636  -0.790  -1.348  0.00  0.00    +0.248 C 
ATOM     28  O4  UNL     1      -5.312  -0.275  -0.414  0.00  0.00    -0.270 OA
ATOM     29  H13 UNL     1      -3.036  -0.294  -2.679  0.00  0.00    +0.155 HD
BRANCH  27  30
ATOM     30  C14 UNL     1      -5.194  -1.937  -2.106  0.00  0.00    +0.040 A 
ATOM     31  C15 UNL     1      -6.561  -2.252  -2.011  0.00  0.00    +0.033 A 
ATOM     32  C16 UNL     1      -7.070  -3.350  -2.711  0.00  0.00    +0.111 A 
ATOM     33  N4  UNL     1      -6.246  -4.111  -3.478  0.00  0.00    -0.263 NA
ATOM     34  C17 UNL     1      -4.920  -3.837  -3.588  0.00  0.00    +0.111 A 
ATOM     35  C18 UNL     1      -4.370  -2.750  -2.905  0.00  0.00    +0.033 A 
ENDBRANCH  27  30
ENDBRANCH  23  26
ENDBRANCH   1  20
TORSDOF 7
