MODEL 1
REMARK VINA RESULT:    -6.111      0.000      0.000
REMARK INTER + INTRA:          -7.694
REMARK INTER:                  -7.183
REMARK INTRA:                  -0.511
REMARK UNBOUND:                -0.511
REMARK  Name = /home/qwerty/github/datacon2025hack/step_04_hit_selection/docking/ligands/lig_86.pdb
REMARK  4 active torsions:
REMARK  status: ('A' for Active; 'I' for Inactive)
REMARK    1  A    between atoms: C1_1  and  C2_2
REMARK    2  A    between atoms: C4_5  and  C5_6
REMARK    3  A    between atoms: C5_6  and  N2_7
REMARK    4  A    between atoms: C11_14  and  C12_16
REMARK                            x       y       z     vdW  Elec       q    Type
REMARK                         _______ _______ _______ _____ _____    ______ ____
ROOT
ATOM      1  N2  UNL     1      15.963   0.792  21.855  0.00  0.00    -0.291 NA
ATOM      2  C6  UNL     1      16.358   1.989  22.616  0.00  0.00    +0.085 C 
ATOM      3  C7  UNL     1      17.062   2.937  21.669  0.00  0.00    +0.020 C 
ATOM      4  C8  UNL     1      16.524   2.594  20.287  0.00  0.00    +0.010 C 
ATOM      5  C9  UNL     1      15.560   3.674  19.737  0.00  0.00    +0.024 C 
ATOM      6  C10 UNL     1      14.198   3.668  20.451  0.00  0.00    +0.108 C 
ATOM      7  N3  UNL     1      13.683   2.300  20.641  0.00  0.00    -0.295 N 
ATOM      8  C11 UNL     1      12.684   2.036  21.649  0.00  0.00    +0.265 C 
ATOM      9  O1  UNL     1      12.744   0.967  22.317  0.00  0.00    -0.268 OA
ATOM     10  C17 UNL     1      14.398   1.183  20.008  0.00  0.00    +0.127 C 
ATOM     11  C18 UNL     1      15.874   1.197  20.437  0.00  0.00    +0.078 C 
ENDROOT
BRANCH   8  12
ATOM     12  C12 UNL     1      11.587   2.991  21.926  0.00  0.00    +0.126 A 
ATOM     13  C13 UNL     1      11.459   3.592  23.191  0.00  0.00    +0.036 A 
ATOM     14  C14 UNL     1      10.404   4.475  23.430  0.00  0.00    +0.042 A 
ATOM     15  C15 UNL     1       9.484   4.748  22.416  0.00  0.00    +0.141 A 
ATOM     16  F1  UNL     1       8.457   5.606  22.637  0.00  0.00    -0.204 F 
ATOM     17  C16 UNL     1       9.634   4.131  21.174  0.00  0.00    +0.149 A 
ATOM     18  N4  UNL     1      10.668   3.274  20.961  0.00  0.00    -0.248 NA
ENDBRANCH   8  12
BRANCH   1  19
ATOM     19  C5  UNL     1      16.913  -0.323  22.050  0.00  0.00    +0.147 C 
BRANCH  19  24
ATOM     20  C1  UNL     1      14.213  -3.035  25.817  0.00  0.00    +0.053 C 
ATOM     21  C2  UNL     1      15.189  -2.455  24.850  0.00  0.00    +0.006 A 
ATOM     22  C3  UNL     1      16.439  -2.981  24.543  0.00  0.00    +0.122 A 
ATOM     23  N1  UNL     1      17.117  -2.305  23.578  0.00  0.00    -0.251 NA
ATOM     24  C4  UNL     1      16.409  -1.253  23.109  0.00  0.00    +0.092 A 
ATOM     25  S1  UNL     1      14.913  -1.118  23.867  0.00  0.00    -0.076 S 
ENDBRANCH  19  24
ENDBRANCH   1  19
TORSDOF 3
ENDMDL
MODEL 2
REMARK VINA RESULT:    -6.064     13.502     16.043
REMARK INTER + INTRA:          -7.639
REMARK INTER:                  -7.066
REMARK INTRA:                  -0.573
REMARK UNBOUND:                -0.511
REMARK  Name = /home/qwerty/github/datacon2025hack/step_04_hit_selection/docking/ligands/lig_86.pdb
REMARK  4 active torsions:
REMARK  status: ('A' for Active; 'I' for Inactive)
REMARK    1  A    between atoms: C1_1  and  C2_2
REMARK    2  A    between atoms: C4_5  and  C5_6
REMARK    3  A    between atoms: C5_6  and  N2_7
REMARK    4  A    between atoms: C11_14  and  C12_16
REMARK                            x       y       z     vdW  Elec       q    Type
REMARK                         _______ _______ _______ _____ _____    ______ ____
ROOT
ATOM      1  N2  UNL     1      21.931  15.351  21.767  0.00  0.00    -0.291 NA
ATOM      2  C6  UNL     1      20.653  14.621  21.734  0.00  0.00    +0.085 C 
ATOM      3  C7  UNL     1      19.975  14.920  20.413  0.00  0.00    +0.020 C 
ATOM      4  C8  UNL     1      21.104  15.282  19.458  0.00  0.00    +0.010 C 
ATOM      5  C9  UNL     1      21.377  14.175  18.411  0.00  0.00    +0.024 C 
ATOM      6  C10 UNL     1      22.066  12.943  19.020  0.00  0.00    +0.108 C 
ATOM      7  N3  UNL     1      23.153  13.320  19.940  0.00  0.00    -0.295 N 
ATOM      8  C11 UNL     1      23.618  12.383  20.935  0.00  0.00    +0.265 C 
ATOM      9  O1  UNL     1      23.934  12.802  22.082  0.00  0.00    -0.268 OA
ATOM     10  C17 UNL     1      23.546  14.734  20.026  0.00  0.00    +0.127 C 
ATOM     11  C18 UNL     1      22.319  15.597  20.362  0.00  0.00    +0.078 C 
ENDROOT
BRANCH   8  12
ATOM     12  C12 UNL     1      23.732  10.935  20.646  0.00  0.00    +0.126 A 
ATOM     13  C13 UNL     1      24.925  10.397  20.133  0.00  0.00    +0.036 A 
ATOM     14  C14 UNL     1      24.998   9.031  19.852  0.00  0.00    +0.042 A 
ATOM     15  C15 UNL     1      23.888   8.215  20.077  0.00  0.00    +0.141 A 
ATOM     16  F1  UNL     1      23.950   6.886  19.810  0.00  0.00    -0.204 F 
ATOM     17  C16 UNL     1      22.717   8.780  20.581  0.00  0.00    +0.149 A 
ATOM     18  N4  UNL     1      22.665  10.113  20.848  0.00  0.00    -0.248 NA
ENDBRANCH   8  12
BRANCH   1  19
ATOM     19  C5  UNL     1      21.829  16.606  22.538  0.00  0.00    +0.147 C 
BRANCH  19  24
ATOM     20  C1  UNL     1      21.852  16.130  27.887  0.00  0.00    +0.053 C 
ATOM     21  C2  UNL     1      22.127  16.176  26.421  0.00  0.00    +0.006 A 
ATOM     22  C3  UNL     1      23.254  15.662  25.791  0.00  0.00    +0.122 A 
ATOM     23  N1  UNL     1      23.243  15.767  24.436  0.00  0.00    -0.251 NA
ATOM     24  C4  UNL     1      22.109  16.350  23.985  0.00  0.00    +0.092 A 
ATOM     25  S1  UNL     1      21.073  16.757  25.247  0.00  0.00    -0.076 S 
ENDBRANCH  19  24
ENDBRANCH   1  19
TORSDOF 3
ENDMDL
MODEL 3
REMARK VINA RESULT:    -5.974      4.545      7.998
REMARK INTER + INTRA:          -7.533
REMARK INTER:                  -7.441
REMARK INTRA:                  -0.092
REMARK UNBOUND:                -0.511
REMARK  Name = /home/qwerty/github/datacon2025hack/step_04_hit_selection/docking/ligands/lig_86.pdb
REMARK  4 active torsions:
REMARK  status: ('A' for Active; 'I' for Inactive)
REMARK    1  A    between atoms: C1_1  and  C2_2
REMARK    2  A    between atoms: C4_5  and  C5_6
REMARK    3  A    between atoms: C5_6  and  N2_7
REMARK    4  A    between atoms: C11_14  and  C12_16
REMARK                            x       y       z     vdW  Elec       q    Type
REMARK                         _______ _______ _______ _____ _____    ______ ____
ROOT
ATOM      1  N2  UNL     1      15.083   0.044  23.327  0.00  0.00    -0.291 NA
ATOM      2  C6  UNL     1      14.798  -0.026  24.769  0.00  0.00    +0.085 C 
ATOM      3  C7  UNL     1      14.841  -1.482  25.186  0.00  0.00    +0.020 C 
ATOM      4  C8  UNL     1      15.748  -2.161  24.170  0.00  0.00    +0.010 C 
ATOM      5  C9  UNL     1      17.125  -2.547  24.765  0.00  0.00    +0.024 C 
ATOM      6  C10 UNL     1      18.028  -1.325  25.002  0.00  0.00    +0.108 C 
ATOM      7  N3  UNL     1      17.994  -0.388  23.866  0.00  0.00    -0.295 N 
ATOM      8  C11 UNL     1      18.389   0.988  24.051  0.00  0.00    +0.265 C 
ATOM      9  O1  UNL     1      17.755   1.901  23.452  0.00  0.00    -0.268 OA
ATOM     10  C17 UNL     1      17.286  -0.788  22.642  0.00  0.00    +0.127 C 
ATOM     11  C18 UNL     1      15.838  -1.178  22.979  0.00  0.00    +0.078 C 
ENDROOT
BRANCH   8  12
ATOM     12  C12 UNL     1      19.520   1.361  24.930  0.00  0.00    +0.126 A 
ATOM     13  C13 UNL     1      19.591   0.885  26.251  0.00  0.00    +0.036 A 
ATOM     14  C14 UNL     1      20.660   1.268  27.064  0.00  0.00    +0.042 A 
ATOM     15  C15 UNL     1      21.643   2.122  26.561  0.00  0.00    +0.141 A 
ATOM     16  F1  UNL     1      22.687   2.498  27.341  0.00  0.00    -0.204 F 
ATOM     17  C16 UNL     1      21.541   2.583  25.248  0.00  0.00    +0.149 A 
ATOM     18  N4  UNL     1      20.492   2.199  24.472  0.00  0.00    -0.248 NA
ENDBRANCH   8  12
BRANCH   1  19
ATOM     19  C5  UNL     1      13.847   0.174  22.528  0.00  0.00    +0.147 C 
BRANCH  19  24
ATOM     20  C1  UNL     1      13.303   4.429  19.297  0.00  0.00    +0.053 C 
ATOM     21  C2  UNL     1      13.708   3.206  20.049  0.00  0.00    +0.006 A 
ATOM     22  C3  UNL     1      14.959   2.602  20.002  0.00  0.00    +0.122 A 
ATOM     23  N1  UNL     1      15.104   1.534  20.832  0.00  0.00    -0.251 NA
ATOM     24  C4  UNL     1      13.981   1.294  21.545  0.00  0.00    +0.092 A 
ATOM     25  S1  UNL     1      12.762   2.397  21.180  0.00  0.00    -0.076 S 
ENDBRANCH  19  24
ENDBRANCH   1  19
TORSDOF 3
ENDMDL
MODEL 4
REMARK VINA RESULT:    -5.963      6.915      8.609
REMARK INTER + INTRA:          -7.519
REMARK INTER:                  -6.866
REMARK INTRA:                  -0.653
REMARK UNBOUND:                -0.511
REMARK  Name = /home/qwerty/github/datacon2025hack/step_04_hit_selection/docking/ligands/lig_86.pdb
REMARK  4 active torsions:
REMARK  status: ('A' for Active; 'I' for Inactive)
REMARK    1  A    between atoms: C1_1  and  C2_2
REMARK    2  A    between atoms: C4_5  and  C5_6
REMARK    3  A    between atoms: C5_6  and  N2_7
REMARK    4  A    between atoms: C11_14  and  C12_16
REMARK                            x       y       z     vdW  Elec       q    Type
REMARK                         _______ _______ _______ _____ _____    ______ ____
ROOT
ATOM      1  N2  UNL     1      20.662   3.009  28.690  0.00  0.00    -0.291 NA
ATOM      2  C6  UNL     1      20.336   4.255  27.977  0.00  0.00    +0.085 C 
ATOM      3  C7  UNL     1      21.570   4.700  27.220  0.00  0.00    +0.020 C 
ATOM      4  C8  UNL     1      22.372   3.428  26.982  0.00  0.00    +0.010 C 
ATOM      5  C9  UNL     1      22.334   2.968  25.504  0.00  0.00    +0.024 C 
ATOM      6  C10 UNL     1      20.971   2.380  25.103  0.00  0.00    +0.108 C 
ATOM      7  N3  UNL     1      20.441   1.471  26.134  0.00  0.00    -0.295 N 
ATOM      8  C11 UNL     1      19.029   1.173  26.180  0.00  0.00    +0.265 C 
ATOM      9  O1  UNL     1      18.454   1.062  27.298  0.00  0.00    -0.268 OA
ATOM     10  C17 UNL     1      21.301   1.114  27.270  0.00  0.00    +0.127 C 
ATOM     11  C18 UNL     1      21.795   2.389  27.972  0.00  0.00    +0.078 C 
ENDROOT
BRANCH   8  12
ATOM     12  C12 UNL     1      18.231   0.995  24.945  0.00  0.00    +0.126 A 
ATOM     13  C13 UNL     1      18.200  -0.244  24.281  0.00  0.00    +0.036 A 
ATOM     14  C14 UNL     1      17.455  -0.378  23.108  0.00  0.00    +0.042 A 
ATOM     15  C15 UNL     1      16.753   0.718  22.603  0.00  0.00    +0.141 A 
ATOM     16  F1  UNL     1      16.023   0.598  21.466  0.00  0.00    -0.204 F 
ATOM     17  C16 UNL     1      16.808   1.936  23.281  0.00  0.00    +0.149 A 
ATOM     18  N4  UNL     1      17.541   2.046  24.421  0.00  0.00    -0.248 NA
ENDBRANCH   8  12
BRANCH   1  19
ATOM     19  C5  UNL     1      20.980   3.256  30.112  0.00  0.00    +0.147 C 
BRANCH  19  24
ATOM     20  C1  UNL     1      18.090  -0.573  32.527  0.00  0.00    +0.053 C 
ATOM     21  C2  UNL     1      19.079   0.452  32.082  0.00  0.00    +0.006 A 
ATOM     22  C3  UNL     1      20.352   0.636  32.611  0.00  0.00    +0.122 A 
ATOM     23  N1  UNL     1      21.091   1.593  31.991  0.00  0.00    -0.251 NA
ATOM     24  C4  UNL     1      20.418   2.163  30.966  0.00  0.00    +0.092 A 
ATOM     25  S1  UNL     1      18.881   1.502  30.784  0.00  0.00    -0.076 S 
ENDBRANCH  19  24
ENDBRANCH   1  19
TORSDOF 3
ENDMDL
MODEL 5
REMARK VINA RESULT:    -5.934     10.629     12.879
REMARK INTER + INTRA:          -7.485
REMARK INTER:                  -6.872
REMARK INTRA:                  -0.614
REMARK UNBOUND:                -0.511
REMARK  Name = /home/qwerty/github/datacon2025hack/step_04_hit_selection/docking/ligands/lig_86.pdb
REMARK  4 active torsions:
REMARK  status: ('A' for Active; 'I' for Inactive)
REMARK    1  A    between atoms: C1_1  and  C2_2
REMARK    2  A    between atoms: C4_5  and  C5_6
REMARK    3  A    between atoms: C5_6  and  N2_7
REMARK    4  A    between atoms: C11_14  and  C12_16
REMARK                            x       y       z     vdW  Elec       q    Type
REMARK                         _______ _______ _______ _____ _____    ______ ____
ROOT
ATOM      1  N2  UNL     1      19.970   2.135  29.424  0.00  0.00    -0.291 NA
ATOM      2  C6  UNL     1      18.711   2.268  30.174  0.00  0.00    +0.085 C 
ATOM      3  C7  UNL     1      18.496   0.992  30.962  0.00  0.00    +0.020 C 
ATOM      4  C8  UNL     1      19.888   0.412  31.168  0.00  0.00    +0.010 C 
ATOM      5  C9  UNL     1      20.382   0.551  32.629  0.00  0.00    +0.024 C 
ATOM      6  C10 UNL     1      20.752   1.999  32.991  0.00  0.00    +0.108 C 
ATOM      7  N3  UNL     1      21.530   2.651  31.923  0.00  0.00    -0.295 N 
ATOM      8  C11 UNL     1      21.593   4.091  31.849  0.00  0.00    +0.265 C 
ATOM      9  O1  UNL     1      21.574   4.655  30.720  0.00  0.00    -0.268 OA
ATOM     10  C17 UNL     1      21.987   1.838  30.787  0.00  0.00    +0.127 C 
ATOM     11  C18 UNL     1      20.788   1.131  30.135  0.00  0.00    +0.078 C 
ENDROOT
BRANCH   8  12
ATOM     12  C12 UNL     1      21.677   4.930  33.066  0.00  0.00    +0.126 A 
ATOM     13  C13 UNL     1      22.917   5.189  33.676  0.00  0.00    +0.036 A 
ATOM     14  C14 UNL     1      22.964   5.968  34.834  0.00  0.00    +0.042 A 
ATOM     15  C15 UNL     1      21.784   6.477  35.378  0.00  0.00    +0.141 A 
ATOM     16  F1  UNL     1      21.818   7.237  36.500  0.00  0.00    -0.204 F 
ATOM     17  C16 UNL     1      20.568   6.197  34.752  0.00  0.00    +0.149 A 
ATOM     18  N4  UNL     1      20.542   5.436  33.626  0.00  0.00    -0.248 NA
ENDBRANCH   8  12
BRANCH   1  19
ATOM     19  C5  UNL     1      19.734   1.754  28.016  0.00  0.00    +0.147 C 
BRANCH  19  24
ATOM     20  C1  UNL     1      23.066   5.147  25.520  0.00  0.00    +0.053 C 
ATOM     21  C2  UNL     1      22.171   4.041  25.969  0.00  0.00    +0.006 A 
ATOM     22  C3  UNL     1      22.038   2.803  25.351  0.00  0.00    +0.122 A 
ATOM     23  N1  UNL     1      21.208   1.936  25.990  0.00  0.00    -0.251 NA
ATOM     24  C4  UNL     1      20.690   2.475  27.117  0.00  0.00    +0.092 A 
ATOM     25  S1  UNL     1      21.241   4.045  27.370  0.00  0.00    -0.076 S 
ENDBRANCH  19  24
ENDBRANCH   1  19
TORSDOF 3
ENDMDL
MODEL 6
REMARK VINA RESULT:    -5.916     13.356     15.066
REMARK INTER + INTRA:          -7.464
REMARK INTER:                  -6.781
REMARK INTRA:                  -0.684
REMARK UNBOUND:                -0.511
REMARK  Name = /home/qwerty/github/datacon2025hack/step_04_hit_selection/docking/ligands/lig_86.pdb
REMARK  4 active torsions:
REMARK  status: ('A' for Active; 'I' for Inactive)
REMARK    1  A    between atoms: C1_1  and  C2_2
REMARK    2  A    between atoms: C4_5  and  C5_6
REMARK    3  A    between atoms: C5_6  and  N2_7
REMARK    4  A    between atoms: C11_14  and  C12_16
REMARK                            x       y       z     vdW  Elec       q    Type
REMARK                         _______ _______ _______ _____ _____    ______ ____
ROOT
ATOM      1  N2  UNL     1      22.453  12.746  19.431  0.00  0.00    -0.291 NA
ATOM      2  C6  UNL     1      23.050  14.059  19.139  0.00  0.00    +0.085 C 
ATOM      3  C7  UNL     1      22.008  14.904  18.438  0.00  0.00    +0.020 C 
ATOM      4  C8  UNL     1      20.667  14.336  18.884  0.00  0.00    +0.010 C 
ATOM      5  C9  UNL     1      19.925  15.268  19.873  0.00  0.00    +0.024 C 
ATOM      6  C10 UNL     1      20.571  15.283  21.268  0.00  0.00    +0.108 C 
ATOM      7  N3  UNL     1      20.934  13.928  21.720  0.00  0.00    -0.295 N 
ATOM      8  C11 UNL     1      21.924  13.751  22.755  0.00  0.00    +0.265 C 
ATOM      9  O1  UNL     1      22.741  12.793  22.674  0.00  0.00    -0.268 OA
ATOM     10  C17 UNL     1      20.501  12.777  20.916  0.00  0.00    +0.127 C 
ATOM     11  C18 UNL     1      20.989  12.939  19.467  0.00  0.00    +0.078 C 
ENDROOT
BRANCH   8  12
ATOM     12  C12 UNL     1      22.011  14.669  23.914  0.00  0.00    +0.126 A 
ATOM     13  C13 UNL     1      23.095  15.554  24.050  0.00  0.00    +0.036 A 
ATOM     14  C14 UNL     1      23.161  16.396  25.162  0.00  0.00    +0.042 A 
ATOM     15  C15 UNL     1      22.156  16.347  26.130  0.00  0.00    +0.141 A 
ATOM     16  F1  UNL     1      22.209  17.162  27.213  0.00  0.00    -0.204 F 
ATOM     17  C16 UNL     1      21.097  15.453  25.970  0.00  0.00    +0.149 A 
ATOM     18  N4  UNL     1      21.051  14.642  24.880  0.00  0.00    -0.248 NA
ENDBRANCH   8  12
BRANCH   1  19
ATOM     19  C5  UNL     1      22.850  11.728  18.436  0.00  0.00    +0.147 C 
BRANCH  19  24
ATOM     20  C1  UNL     1      24.981   7.727  21.315  0.00  0.00    +0.053 C 
ATOM     21  C2  UNL     1      24.667   8.882  20.424  0.00  0.00    +0.006 A 
ATOM     22  C3  UNL     1      25.531   9.449  19.494  0.00  0.00    +0.122 A 
ATOM     23  N1  UNL     1      24.988  10.451  18.753  0.00  0.00    -0.251 NA
ATOM     24  C4  UNL     1      23.696  10.675  19.080  0.00  0.00    +0.092 A 
ATOM     25  S1  UNL     1      23.171   9.640  20.299  0.00  0.00    -0.076 S 
ENDBRANCH  19  24
ENDBRANCH   1  19
TORSDOF 3
ENDMDL
MODEL 7
REMARK VINA RESULT:    -5.903     14.202     15.900
REMARK INTER + INTRA:          -7.448
REMARK INTER:                  -6.792
REMARK INTRA:                  -0.656
REMARK UNBOUND:                -0.511
REMARK  Name = /home/qwerty/github/datacon2025hack/step_04_hit_selection/docking/ligands/lig_86.pdb
REMARK  4 active torsions:
REMARK  status: ('A' for Active; 'I' for Inactive)
REMARK    1  A    between atoms: C1_1  and  C2_2
REMARK    2  A    between atoms: C4_5  and  C5_6
REMARK    3  A    between atoms: C5_6  and  N2_7
REMARK    4  A    between atoms: C11_14  and  C12_16
REMARK                            x       y       z     vdW  Elec       q    Type
REMARK                         _______ _______ _______ _____ _____    ______ ____
ROOT
ATOM      1  N2  UNL     1      21.811   8.066  34.774  0.00  0.00    -0.291 NA
ATOM      2  C6  UNL     1      21.753   8.438  33.351  0.00  0.00    +0.085 C 
ATOM      3  C7  UNL     1      23.172   8.537  32.833  0.00  0.00    +0.020 C 
ATOM      4  C8  UNL     1      23.992   7.630  33.739  0.00  0.00    +0.010 C 
ATOM      5  C9  UNL     1      24.436   6.325  33.033  0.00  0.00    +0.024 C 
ATOM      6  C10 UNL     1      23.272   5.342  32.824  0.00  0.00    +0.108 C 
ATOM      7  N3  UNL     1      22.421   5.235  34.023  0.00  0.00    -0.295 N 
ATOM      8  C11 UNL     1      21.069   4.743  33.909  0.00  0.00    +0.265 C 
ATOM      9  O1  UNL     1      20.158   5.265  34.609  0.00  0.00    -0.268 OA
ATOM     10  C17 UNL     1      22.857   5.901  35.258  0.00  0.00    +0.127 C 
ATOM     11  C18 UNL     1      23.109   7.392  34.987  0.00  0.00    +0.078 C 
ENDROOT
BRANCH   8  12
ATOM     12  C12 UNL     1      20.719   3.638  32.988  0.00  0.00    +0.126 A 
ATOM     13  C13 UNL     1      20.960   2.300  33.346  0.00  0.00    +0.036 A 
ATOM     14  C14 UNL     1      20.637   1.279  32.450  0.00  0.00    +0.042 A 
ATOM     15  C15 UNL     1      20.084   1.594  31.208  0.00  0.00    +0.141 A 
ATOM     16  F1  UNL     1      19.763   0.610  30.331  0.00  0.00    -0.204 F 
ATOM     17  C16 UNL     1      19.862   2.932  30.879  0.00  0.00    +0.149 A 
ATOM     18  N4  UNL     1      20.184   3.912  31.765  0.00  0.00    -0.248 NA
ENDBRANCH   8  12
BRANCH   1  19
ATOM     19  C5  UNL     1      21.648   9.239  35.657  0.00  0.00    +0.147 C 
BRANCH  19  24
ATOM     20  C1  UNL     1      16.989   9.709  38.286  0.00  0.00    +0.053 C 
ATOM     21  C2  UNL     1      18.315   9.332  37.716  0.00  0.00    +0.006 A 
ATOM     22  C3  UNL     1      18.959   8.113  37.895  0.00  0.00    +0.122 A 
ATOM     23  N1  UNL     1      20.131   7.986  37.217  0.00  0.00    -0.251 NA
ATOM     24  C4  UNL     1      20.416   9.091  36.493  0.00  0.00    +0.092 A 
ATOM     25  S1  UNL     1      19.226  10.270  36.659  0.00  0.00    -0.076 S 
ENDBRANCH  19  24
ENDBRANCH   1  19
TORSDOF 3
ENDMDL
MODEL 8
REMARK VINA RESULT:    -5.846      6.164      8.579
REMARK INTER + INTRA:          -7.382
REMARK INTER:                  -6.711
REMARK INTRA:                  -0.671
REMARK UNBOUND:                -0.511
REMARK  Name = /home/qwerty/github/datacon2025hack/step_04_hit_selection/docking/ligands/lig_86.pdb
REMARK  4 active torsions:
REMARK  status: ('A' for Active; 'I' for Inactive)
REMARK    1  A    between atoms: C1_1  and  C2_2
REMARK    2  A    between atoms: C4_5  and  C5_6
REMARK    3  A    between atoms: C5_6  and  N2_7
REMARK    4  A    between atoms: C11_14  and  C12_16
REMARK                            x       y       z     vdW  Elec       q    Type
REMARK                         _______ _______ _______ _____ _____    ______ ____
ROOT
ATOM      1  N2  UNL     1      10.176   6.958  21.446  0.00  0.00    -0.291 NA
ATOM      2  C6  UNL     1      11.420   7.744  21.433  0.00  0.00    +0.085 C 
ATOM      3  C7  UNL     1      11.290   8.812  20.367  0.00  0.00    +0.020 C 
ATOM      4  C8  UNL     1       9.793   9.047  20.219  0.00  0.00    +0.010 C 
ATOM      5  C9  UNL     1       9.341  10.402  20.818  0.00  0.00    +0.024 C 
ATOM      6  C10 UNL     1       9.356  10.401  22.356  0.00  0.00    +0.108 C 
ATOM      7  N3  UNL     1       8.783   9.163  22.911  0.00  0.00    -0.295 N 
ATOM      8  C11 UNL     1       9.097   8.762  24.262  0.00  0.00    +0.265 C 
ATOM      9  O1  UNL     1       9.271   7.539  24.521  0.00  0.00    -0.268 OA
ATOM     10  C17 UNL     1       8.140   8.211  21.995  0.00  0.00    +0.127 C 
ATOM     11  C18 UNL     1       9.119   7.820  20.877  0.00  0.00    +0.078 C 
ENDROOT
BRANCH   8  12
ATOM     12  C12 UNL     1       9.224   9.749  25.357  0.00  0.00    +0.126 A 
ATOM     13  C13 UNL     1       8.084  10.244  26.015  0.00  0.00    +0.036 A 
ATOM     14  C14 UNL     1       8.232  11.189  27.032  0.00  0.00    +0.042 A 
ATOM     15  C15 UNL     1       9.506  11.638  27.383  0.00  0.00    +0.141 A 
ATOM     16  F1  UNL     1       9.662  12.554  28.371  0.00  0.00    -0.204 F 
ATOM     17  C16 UNL     1      10.618  11.133  26.707  0.00  0.00    +0.149 A 
ATOM     18  N4  UNL     1      10.453  10.213  25.719  0.00  0.00    -0.248 NA
ENDBRANCH   8  12
BRANCH   1  19
ATOM     19  C5  UNL     1      10.316   5.692  20.699  0.00  0.00    +0.147 C 
BRANCH  19  24
ATOM     20  C1  UNL     1       9.782   1.016  23.286  0.00  0.00    +0.053 C 
ATOM     21  C2  UNL     1       9.682   2.389  22.710  0.00  0.00    +0.006 A 
ATOM     22  C3  UNL     1       8.821   3.390  23.143  0.00  0.00    +0.122 A 
ATOM     23  N1  UNL     1       8.965   4.579  22.500  0.00  0.00    -0.251 NA
ATOM     24  C4  UNL     1       9.944   4.532  21.568  0.00  0.00    +0.092 A 
ATOM     25  S1  UNL     1      10.672   3.016  21.504  0.00  0.00    -0.076 S 
ENDBRANCH  19  24
ENDBRANCH   1  19
TORSDOF 3
ENDMDL
MODEL 9
REMARK VINA RESULT:    -5.797     12.442     14.667
REMARK INTER + INTRA:          -7.324
REMARK INTER:                  -6.682
REMARK INTRA:                  -0.642
REMARK UNBOUND:                -0.511
REMARK  Name = /home/qwerty/github/datacon2025hack/step_04_hit_selection/docking/ligands/lig_86.pdb
REMARK  4 active torsions:
REMARK  status: ('A' for Active; 'I' for Inactive)
REMARK    1  A    between atoms: C1_1  and  C2_2
REMARK    2  A    between atoms: C4_5  and  C5_6
REMARK    3  A    between atoms: C5_6  and  N2_7
REMARK    4  A    between atoms: C11_14  and  C12_16
REMARK                            x       y       z     vdW  Elec       q    Type
REMARK                         _______ _______ _______ _____ _____    ______ ____
ROOT
ATOM      1  N2  UNL     1      10.203  11.505  28.360  0.00  0.00    -0.291 NA
ATOM      2  C6  UNL     1      11.604  11.403  27.918  0.00  0.00    +0.085 C 
ATOM      3  C7  UNL     1      11.909  12.603  27.045  0.00  0.00    +0.020 C 
ATOM      4  C8  UNL     1      10.933  13.681  27.493  0.00  0.00    +0.010 C 
ATOM      5  C9  UNL     1      11.621  14.813  28.296  0.00  0.00    +0.024 C 
ATOM      6  C10 UNL     1      12.033  14.367  29.709  0.00  0.00    +0.108 C 
ATOM      7  N3  UNL     1      10.974  13.583  30.369  0.00  0.00    -0.295 N 
ATOM      8  C11 UNL     1      11.300  12.711  31.472  0.00  0.00    +0.265 C 
ATOM      9  O1  UNL     1      10.717  11.597  31.574  0.00  0.00    -0.268 OA
ATOM     10  C17 UNL     1       9.663  13.478  29.714  0.00  0.00    +0.127 C 
ATOM     11  C18 UNL     1       9.834  12.934  28.286  0.00  0.00    +0.078 C 
ENDROOT
BRANCH   8  12
ATOM     12  C12 UNL     1      12.306  13.089  32.491  0.00  0.00    +0.126 A 
ATOM     13  C13 UNL     1      12.116  14.220  33.303  0.00  0.00    +0.036 A 
ATOM     14  C14 UNL     1      13.090  14.564  34.243  0.00  0.00    +0.042 A 
ATOM     15  C15 UNL     1      14.243  13.786  34.364  0.00  0.00    +0.141 A 
ATOM     16  F1  UNL     1      15.194  14.108  35.276  0.00  0.00    -0.204 F 
ATOM     17  C16 UNL     1      14.404  12.672  33.540  0.00  0.00    +0.149 A 
ATOM     18  N4  UNL     1      13.445  12.354  32.630  0.00  0.00    -0.248 NA
ENDBRANCH   8  12
BRANCH   1  19
ATOM     19  C5  UNL     1       9.306  10.662  27.544  0.00  0.00    +0.147 C 
BRANCH  19  24
ATOM     20  C1  UNL     1       6.839   6.649  30.122  0.00  0.00    +0.053 C 
ATOM     21  C2  UNL     1       7.344   7.937  29.564  0.00  0.00    +0.006 A 
ATOM     22  C3  UNL     1       7.052   9.204  30.054  0.00  0.00    +0.122 A 
ATOM     23  N1  UNL     1       7.688  10.221  29.413  0.00  0.00    -0.251 NA
ATOM     24  C4  UNL     1       8.492   9.768  28.425  0.00  0.00    +0.092 A 
ATOM     25  S1  UNL     1       8.450   8.089  28.306  0.00  0.00    -0.076 S 
ENDBRANCH  19  24
ENDBRANCH   1  19
TORSDOF 3
ENDMDL
