REMARK  Name = /home/qwerty/github/datacon2025hack/step_04_hit_selection/docking/ligands/lig_63.pdb
REMARK  13 active torsions:
REMARK  status: ('A' for Active; 'I' for Inactive)
REMARK    1  A    between atoms: C2_2  and  C3_3
REMARK    2  A    between atoms: C2_2  and  C4_4
REMARK    3  A    between atoms: C4_4  and  N1_5
REMARK    4  A    between atoms: N1_5  and  C5_6
REMARK    5  A    between atoms: C5_6  and  C6_7
REMARK    6  A    between atoms: C9_10  and  C10_11
REMARK    7  A    between atoms: C10_11  and  O1_12
REMARK    8  A    between atoms: C11_14  and  C12_16
REMARK    9  A    between atoms: C13_17  and  C14_18
REMARK   10  A    between atoms: N2_19  and  C15_20
REMARK   11  A    between atoms: N3_27  and  C22_28
REMARK   12  A    between atoms: C24_31  and  C25_32
REMARK   13  A    between atoms: C24_31  and  C26_33
REMARK                            x       y       z     vdW  Elec       q    Type
REMARK                         _______ _______ _______ _____ _____    ______ ____
ROOT
ATOM      1  C12 UNL     1       0.280  -2.172   0.006  0.00  0.00    +0.065 A 
ATOM      2  C13 UNL     1       0.068  -2.979   1.125  0.00  0.00    +0.029 A 
ATOM      3  C14 UNL     1       0.734  -4.299   1.383  0.00  0.00    +0.064 C 
ATOM      4  N2  UNL     1      -0.791  -2.372   1.989  0.00  0.00    -0.346 N 
ATOM      5  C15 UNL     1      -1.304  -2.906   3.250  0.00  0.00    +0.149 C 
ATOM      6  C16 UNL     1      -1.155  -1.210   1.402  0.00  0.00    +0.050 A 
ATOM      7  C17 UNL     1      -2.072  -0.255   1.873  0.00  0.00    +0.033 A 
ATOM      8  C18 UNL     1      -2.291   0.869   1.055  0.00  0.00    -0.010 A 
ATOM      9  C19 UNL     1      -1.624   1.022  -0.161  0.00  0.00    +0.041 A 
ATOM     10  C20 UNL     1      -0.726   0.053  -0.636  0.00  0.00    +0.034 A 
ATOM     11  C21 UNL     1      -0.513  -1.057   0.188  0.00  0.00    +0.014 A 
ATOM     12  N3  UNL     1      -2.000   2.222  -0.820  0.00  0.00    -0.273 N 
ATOM     13  C22 UNL     1      -1.762   2.547  -2.222  0.00  0.00    +0.138 C 
ATOM     14  C23 UNL     1      -3.005   2.797   0.013  0.00  0.00    +0.230 C 
ATOM     15  O4  UNL     1      -3.629   3.846  -0.294  0.00  0.00    -0.274 OA
ATOM     16  C24 UNL     1      -3.249   2.010   1.277  0.00  0.00    +0.068 C 
ATOM     17  C25 UNL     1      -4.700   1.513   1.340  0.00  0.00    +0.025 C 
ATOM     18  C26 UNL     1      -2.873   2.829   2.519  0.00  0.00    +0.025 C 
ENDROOT
BRANCH   1  20
ATOM     19  N1  UNL     1       2.396  -1.770  -1.338  0.00  0.00    -0.286 N 
ATOM     20  C11 UNL     1       1.138  -2.456  -1.155  0.00  0.00    +0.250 C 
ATOM     21  O3  UNL     1       0.751  -3.310  -2.001  0.00  0.00    -0.270 OA
BRANCH  19  22
ATOM     22  C4  UNL     1       2.994  -1.673  -2.679  0.00  0.00    +0.138 C 
BRANCH  22  24
ATOM     23  C1  UNL     1       1.727   0.287  -3.507  0.00  0.00    +0.009 C 
ATOM     24  C2  UNL     1       2.049  -1.005  -3.656  0.00  0.00    -0.063 C 
ATOM     25  C3  UNL     1       1.467  -1.780  -4.808  0.00  0.00    +0.040 C 
ENDBRANCH  22  24
ENDBRANCH  19  22
BRANCH  19  26
ATOM     26  C5  UNL     1       3.182  -1.348  -0.169  0.00  0.00    +0.182 C 
BRANCH  26  27
ATOM     27  C6  UNL     1       2.911   0.083   0.159  0.00  0.00    +0.123 A 
ATOM     28  C7  UNL     1       3.577   1.174  -0.364  0.00  0.00    +0.046 A 
ATOM     29  C8  UNL     1       2.962   2.284   0.179  0.00  0.00    +0.047 A 
ATOM     30  C9  UNL     1       1.968   1.792   1.003  0.00  0.00    +0.131 A 
ATOM     31  O2  UNL     1       1.963   0.480   0.974  0.00  0.00    -0.461 OA
BRANCH  30  32
ATOM     32  C10 UNL     1       1.018   2.609   1.816  0.00  0.00    +0.230 C 
BRANCH  32  33
ATOM     33  O1  UNL     1       1.710   3.339   2.789  0.00  0.00    -0.387 OA
ATOM     34  H14 UNL     1       1.979   2.690   3.494  0.00  0.00    +0.210 HD
ENDBRANCH  32  33
ENDBRANCH  30  32
ENDBRANCH  26  27
ENDBRANCH  19  26
ENDBRANCH   1  20
TORSDOF 7
