MODEL 1
REMARK VINA RESULT:    -7.252      0.000      0.000
REMARK INTER + INTRA:         -10.549
REMARK INTER:                  -9.796
REMARK INTRA:                  -0.753
REMARK UNBOUND:                -0.753
REMARK  Name = /home/qwerty/github/datacon2025hack/step_04_hit_selection/docking/ligands/lig_391.pdb
REMARK  9 active torsions:
REMARK  status: ('A' for Active; 'I' for Inactive)
REMARK    1  A    between atoms: C1_1  and  C2_2
REMARK    2  A    between atoms: C2_2  and  C3_3
REMARK    3  A    between atoms: C3_3  and  C4_4
REMARK    4  A    between atoms: C3_3  and  N1_5
REMARK    5  A    between atoms: C5_6  and  C6_8
REMARK    6  A    between atoms: C9_11  and  N2_12
REMARK    7  A    between atoms: C10_13  and  C11_15
REMARK    8  A    between atoms: C14_20  and  N4_21
REMARK    9  A    between atoms: C20_27  and  C21_28
REMARK                            x       y       z     vdW  Elec       q    Type
REMARK                         _______ _______ _______ _____ _____    ______ ____
ROOT
ATOM      1  N2  UNL     1      20.340   9.490  37.055  0.00  0.00    -0.278 N 
ATOM      2  C10 UNL     1      20.330   8.160  36.511  0.00  0.00    +0.303 C 
ATOM      3  O2  UNL     1      19.314   7.753  35.887  0.00  0.00    -0.265 OA
ATOM      4  H13 UNL     1      21.255   9.932  37.297  0.00  0.00    +0.155 HD
ENDROOT
BRANCH   1   8
ATOM      5  C6  UNL     1      16.871  11.954  37.113  0.00  0.00    +0.037 A 
ATOM      6  C7  UNL     1      16.928  10.761  37.853  0.00  0.00    +0.015 A 
ATOM      7  C8  UNL     1      18.066   9.954  37.809  0.00  0.00    +0.024 A 
ATOM      8  C9  UNL     1      19.175  10.327  37.041  0.00  0.00    +0.037 A 
ATOM      9  C20 UNL     1      19.120  11.506  36.262  0.00  0.00    -0.029 A 
ATOM     10  C21 UNL     1      20.266  11.924  35.380  0.00  0.00    +0.045 C 
ATOM     11  C22 UNL     1      17.977  12.320  36.326  0.00  0.00    +0.018 A 
BRANCH   5  13
ATOM     12  N1  UNL     1      15.800  14.256  36.987  0.00  0.00    -0.309 N 
ATOM     13  C5  UNL     1      15.681  12.837  37.180  0.00  0.00    +0.244 C 
ATOM     14  O1  UNL     1      14.550  12.333  37.419  0.00  0.00    -0.270 OA
ATOM     15  H10 UNL     1      16.741  14.700  37.090  0.00  0.00    +0.149 HD
BRANCH  12  16
ATOM     16  C3  UNL     1      14.633  15.111  36.742  0.00  0.00    +0.070 C 
ATOM     17  C4  UNL     1      15.021  16.594  36.823  0.00  0.00    +0.028 C 
BRANCH  16  19
ATOM     18  C1  UNL     1      12.537  14.232  35.528  0.00  0.00    +0.005 C 
ATOM     19  C2  UNL     1      13.966  14.764  35.392  0.00  0.00    +0.018 C 
ENDBRANCH  16  19
ENDBRANCH  12  16
ENDBRANCH   5  13
ENDBRANCH   1   8
BRANCH   2  20
ATOM     20  C11 UNL     1      21.520   7.288  36.659  0.00  0.00    +0.302 C 
ATOM     21  O3  UNL     1      21.726   6.737  37.774  0.00  0.00    -0.265 OA
ATOM     22  N3  UNL     1      22.451   7.049  35.583  0.00  0.00    -0.292 N 
ATOM     23  C12 UNL     1      23.688   6.314  35.778  0.00  0.00    +0.110 C 
ATOM     24  C13 UNL     1      24.440   6.419  34.460  0.00  0.00    +0.039 C 
ATOM     25  C14 UNL     1      23.379   6.762  33.406  0.00  0.00    +0.075 C 
ATOM     26  C19 UNL     1      22.269   7.461  34.199  0.00  0.00    +0.127 C 
BRANCH  25  27
ATOM     27  N4  UNL     1      23.925   7.633  32.337  0.00  0.00    -0.298 NA
ATOM     28  C15 UNL     1      22.879   8.426  31.678  0.00  0.00    +0.085 C 
ATOM     29  C16 UNL     1      23.537   9.699  31.164  0.00  0.00    +0.017 C 
ATOM     30  C17 UNL     1      24.874   9.782  31.878  0.00  0.00    +0.017 C 
ATOM     31  C18 UNL     1      24.872   8.624  32.860  0.00  0.00    +0.085 C 
ENDBRANCH  25  27
ENDBRANCH   2  20
TORSDOF 6
ENDMDL
MODEL 2
REMARK VINA RESULT:    -7.081      1.640      2.069
REMARK INTER + INTRA:         -10.319
REMARK INTER:                  -9.673
REMARK INTRA:                  -0.645
REMARK UNBOUND:                -0.753
REMARK  Name = /home/qwerty/github/datacon2025hack/step_04_hit_selection/docking/ligands/lig_391.pdb
REMARK  9 active torsions:
REMARK  status: ('A' for Active; 'I' for Inactive)
REMARK    1  A    between atoms: C1_1  and  C2_2
REMARK    2  A    between atoms: C2_2  and  C3_3
REMARK    3  A    between atoms: C3_3  and  C4_4
REMARK    4  A    between atoms: C3_3  and  N1_5
REMARK    5  A    between atoms: C5_6  and  C6_8
REMARK    6  A    between atoms: C9_11  and  N2_12
REMARK    7  A    between atoms: C10_13  and  C11_15
REMARK    8  A    between atoms: C14_20  and  N4_21
REMARK    9  A    between atoms: C20_27  and  C21_28
REMARK                            x       y       z     vdW  Elec       q    Type
REMARK                         _______ _______ _______ _____ _____    ______ ____
ROOT
ATOM      1  N2  UNL     1      19.771   9.310  37.410  0.00  0.00    -0.278 N 
ATOM      2  C10 UNL     1      20.183   8.288  36.488  0.00  0.00    +0.303 C 
ATOM      3  O2  UNL     1      19.496   8.072  35.454  0.00  0.00    -0.265 OA
ATOM      4  H13 UNL     1      20.469   9.697  38.084  0.00  0.00    +0.155 HD
ENDROOT
BRANCH   1   8
ATOM      5  C6  UNL     1      16.031  11.315  37.093  0.00  0.00    +0.037 A 
ATOM      6  C7  UNL     1      16.115  10.008  37.601  0.00  0.00    +0.015 A 
ATOM      7  C8  UNL     1      17.346   9.357  37.681  0.00  0.00    +0.024 A 
ATOM      8  C9  UNL     1      18.521  10.001  37.273  0.00  0.00    +0.037 A 
ATOM      9  C20 UNL     1      18.449  11.302  36.725  0.00  0.00    -0.029 A 
ATOM     10  C21 UNL     1      19.676  12.017  36.225  0.00  0.00    +0.045 C 
ATOM     11  C22 UNL     1      17.207  11.955  36.664  0.00  0.00    +0.018 A 
BRANCH   5  13
ATOM     12  N1  UNL     1      13.509  11.323  36.772  0.00  0.00    -0.309 N 
ATOM     13  C5  UNL     1      14.733  12.030  37.035  0.00  0.00    +0.244 C 
ATOM     14  O1  UNL     1      14.706  13.279  37.212  0.00  0.00    -0.270 OA
ATOM     15  H10 UNL     1      13.560  10.374  36.337  0.00  0.00    +0.149 HD
BRANCH  12  16
ATOM     16  C3  UNL     1      12.193  11.928  37.007  0.00  0.00    +0.070 C 
ATOM     17  C4  UNL     1      11.573  12.406  35.686  0.00  0.00    +0.028 C 
BRANCH  16  19
ATOM     18  C1  UNL     1      10.911   9.694  36.960  0.00  0.00    +0.005 C 
ATOM     19  C2  UNL     1      11.262  10.952  37.760  0.00  0.00    +0.018 C 
ENDBRANCH  16  19
ENDBRANCH  12  16
ENDBRANCH   5  13
ENDBRANCH   1   8
BRANCH   2  20
ATOM     20  C11 UNL     1      21.425   7.518  36.739  0.00  0.00    +0.302 C 
ATOM     21  O3  UNL     1      21.654   7.115  37.912  0.00  0.00    -0.265 OA
ATOM     22  N3  UNL     1      22.380   7.216  35.701  0.00  0.00    -0.292 N 
ATOM     23  C12 UNL     1      23.660   6.589  35.984  0.00  0.00    +0.110 C 
ATOM     24  C13 UNL     1      24.416   6.589  34.664  0.00  0.00    +0.039 C 
ATOM     25  C14 UNL     1      23.347   6.738  33.574  0.00  0.00    +0.075 C 
ATOM     26  C19 UNL     1      22.186   7.452  34.278  0.00  0.00    +0.127 C 
BRANCH  25  27
ATOM     27  N4  UNL     1      23.846   7.511  32.412  0.00  0.00    -0.298 NA
ATOM     28  C15 UNL     1      22.768   8.225  31.715  0.00  0.00    +0.085 C 
ATOM     29  C16 UNL     1      23.390   9.453  31.064  0.00  0.00    +0.017 C 
ATOM     30  C17 UNL     1      24.746   9.621  31.726  0.00  0.00    +0.017 C 
ATOM     31  C18 UNL     1      24.792   8.561  32.811  0.00  0.00    +0.085 C 
ENDBRANCH  25  27
ENDBRANCH   2  20
TORSDOF 6
ENDMDL
MODEL 3
REMARK VINA RESULT:    -6.912     10.523     14.436
REMARK INTER + INTRA:         -10.090
REMARK INTER:                  -9.036
REMARK INTRA:                  -1.054
REMARK UNBOUND:                -0.753
REMARK  Name = /home/qwerty/github/datacon2025hack/step_04_hit_selection/docking/ligands/lig_391.pdb
REMARK  9 active torsions:
REMARK  status: ('A' for Active; 'I' for Inactive)
REMARK    1  A    between atoms: C1_1  and  C2_2
REMARK    2  A    between atoms: C2_2  and  C3_3
REMARK    3  A    between atoms: C3_3  and  C4_4
REMARK    4  A    between atoms: C3_3  and  N1_5
REMARK    5  A    between atoms: C5_6  and  C6_8
REMARK    6  A    between atoms: C9_11  and  N2_12
REMARK    7  A    between atoms: C10_13  and  C11_15
REMARK    8  A    between atoms: C14_20  and  N4_21
REMARK    9  A    between atoms: C20_27  and  C21_28
REMARK                            x       y       z     vdW  Elec       q    Type
REMARK                         _______ _______ _______ _____ _____    ______ ____
ROOT
ATOM      1  N2  UNL     1      21.120   3.438  23.538  0.00  0.00    -0.278 N 
ATOM      2  C10 UNL     1      20.275   4.584  23.343  0.00  0.00    +0.303 C 
ATOM      3  O2  UNL     1      19.829   5.202  24.346  0.00  0.00    -0.265 OA
ATOM      4  H13 UNL     1      21.725   3.113  22.750  0.00  0.00    +0.155 HD
ENDROOT
BRANCH   1   8
ATOM      5  C6  UNL     1      21.848   1.876  27.429  0.00  0.00    +0.037 A 
ATOM      6  C7  UNL     1      22.618   2.932  26.913  0.00  0.00    +0.015 A 
ATOM      7  C8  UNL     1      22.379   3.420  25.628  0.00  0.00    +0.024 A 
ATOM      8  C9  UNL     1      21.358   2.879  24.837  0.00  0.00    +0.037 A 
ATOM      9  C20 UNL     1      20.599   1.792  25.327  0.00  0.00    -0.029 A 
ATOM     10  C21 UNL     1      19.525   1.142  24.497  0.00  0.00    +0.045 C 
ATOM     11  C22 UNL     1      20.835   1.318  26.628  0.00  0.00    +0.018 A 
BRANCH   5  13
ATOM     12  N1  UNL     1      21.452   2.010  29.936  0.00  0.00    -0.309 N 
ATOM     13  C5  UNL     1      22.069   1.372  28.805  0.00  0.00    +0.244 C 
ATOM     14  O1  UNL     1      22.819   0.373  28.986  0.00  0.00    -0.270 OA
ATOM     15  H10 UNL     1      21.092   2.985  29.828  0.00  0.00    +0.149 HD
BRANCH  12  16
ATOM     16  C3  UNL     1      21.396   1.372  31.257  0.00  0.00    +0.070 C 
ATOM     17  C4  UNL     1      21.416   2.430  32.369  0.00  0.00    +0.028 C 
BRANCH  16  19
ATOM     18  C1  UNL     1      18.944   0.938  30.596  0.00  0.00    +0.005 C 
ATOM     19  C2  UNL     1      20.167   0.441  31.370  0.00  0.00    +0.018 C 
ENDBRANCH  16  19
ENDBRANCH  12  16
ENDBRANCH   5  13
ENDBRANCH   1   8
BRANCH   2  20
ATOM     20  C11 UNL     1      19.961   5.051  21.971  0.00  0.00    +0.302 C 
ATOM     21  O3  UNL     1      19.049   4.460  21.331  0.00  0.00    -0.265 OA
ATOM     22  N3  UNL     1      20.657   6.145  21.340  0.00  0.00    -0.292 N 
ATOM     23  C12 UNL     1      20.442   6.500  19.948  0.00  0.00    +0.110 C 
ATOM     24  C13 UNL     1      21.462   7.586  19.640  0.00  0.00    +0.039 C 
ATOM     25  C14 UNL     1      21.864   8.173  20.999  0.00  0.00    +0.075 C 
ATOM     26  C19 UNL     1      21.602   7.036  21.995  0.00  0.00    +0.127 C 
BRANCH  25  27
ATOM     27  N4  UNL     1      23.281   8.607  21.017  0.00  0.00    -0.298 NA
ATOM     28  C15 UNL     1      24.181   7.548  21.492  0.00  0.00    +0.085 C 
ATOM     29  C16 UNL     1      25.538   7.787  20.845  0.00  0.00    +0.017 C 
ATOM     30  C17 UNL     1      25.281   8.761  19.710  0.00  0.00    +0.017 C 
ATOM     31  C18 UNL     1      23.774   8.941  19.675  0.00  0.00    +0.085 C 
ENDBRANCH  25  27
ENDBRANCH   2  20
TORSDOF 6
ENDMDL
MODEL 4
REMARK VINA RESULT:    -6.863     15.909     17.497
REMARK INTER + INTRA:         -10.023
REMARK INTER:                  -9.188
REMARK INTRA:                  -0.835
REMARK UNBOUND:                -0.753
REMARK  Name = /home/qwerty/github/datacon2025hack/step_04_hit_selection/docking/ligands/lig_391.pdb
REMARK  9 active torsions:
REMARK  status: ('A' for Active; 'I' for Inactive)
REMARK    1  A    between atoms: C1_1  and  C2_2
REMARK    2  A    between atoms: C2_2  and  C3_3
REMARK    3  A    between atoms: C3_3  and  C4_4
REMARK    4  A    between atoms: C3_3  and  N1_5
REMARK    5  A    between atoms: C5_6  and  C6_8
REMARK    6  A    between atoms: C9_11  and  N2_12
REMARK    7  A    between atoms: C10_13  and  C11_15
REMARK    8  A    between atoms: C14_20  and  N4_21
REMARK    9  A    between atoms: C20_27  and  C21_28
REMARK                            x       y       z     vdW  Elec       q    Type
REMARK                         _______ _______ _______ _____ _____    ______ ____
ROOT
ATOM      1  N2  UNL     1      12.662   2.202  20.521  0.00  0.00    -0.278 N 
ATOM      2  C10 UNL     1      13.990   2.195  21.069  0.00  0.00    +0.303 C 
ATOM      3  O2  UNL     1      14.362   3.149  21.803  0.00  0.00    -0.265 OA
ATOM      4  H13 UNL     1      12.250   1.305  20.178  0.00  0.00    +0.155 HD
ENDROOT
BRANCH   1   8
ATOM      5  C6  UNL     1      10.083   5.572  20.835  0.00  0.00    +0.037 A 
ATOM      6  C7  UNL     1      11.276   5.635  20.094  0.00  0.00    +0.015 A 
ATOM      7  C8  UNL     1      12.120   4.527  20.016  0.00  0.00    +0.024 A 
ATOM      8  C9  UNL     1      11.786   3.329  20.660  0.00  0.00    +0.037 A 
ATOM      9  C20 UNL     1      10.609   3.261  21.440  0.00  0.00    -0.029 A 
ATOM     10  C21 UNL     1      10.231   2.014  22.192  0.00  0.00    +0.045 C 
ATOM     11  C22 UNL     1       9.756   4.377  21.498  0.00  0.00    +0.018 A 
BRANCH   5  13
ATOM     12  N1  UNL     1       9.608   8.009  21.383  0.00  0.00    -0.309 N 
ATOM     13  C5  UNL     1       9.161   6.732  20.896  0.00  0.00    +0.244 C 
ATOM     14  O1  UNL     1       7.964   6.591  20.524  0.00  0.00    -0.270 OA
ATOM     15  H10 UNL     1      10.479   8.051  21.958  0.00  0.00    +0.149 HD
BRANCH  12  16
ATOM     16  C3  UNL     1       8.832   9.238  21.175  0.00  0.00    +0.070 C 
ATOM     17  C4  UNL     1       8.184   9.696  22.489  0.00  0.00    +0.028 C 
BRANCH  16  19
ATOM     18  C1  UNL     1      10.841   9.813  19.668  0.00  0.00    +0.005 C 
ATOM     19  C2  UNL     1       9.708  10.346  20.549  0.00  0.00    +0.018 C 
ENDBRANCH  16  19
ENDBRANCH  12  16
ENDBRANCH   5  13
ENDBRANCH   1   8
BRANCH   2  20
ATOM     20  C11 UNL     1      14.901   1.058  20.795  0.00  0.00    +0.302 C 
ATOM     21  O3  UNL     1      15.217   0.817  19.598  0.00  0.00    -0.265 OA
ATOM     22  N3  UNL     1      15.435   0.217  21.838  0.00  0.00    -0.292 N 
ATOM     23  C12 UNL     1      16.207  -0.980  21.549  0.00  0.00    +0.110 C 
ATOM     24  C13 UNL     1      16.443  -1.649  22.895  0.00  0.00    +0.039 C 
ATOM     25  C14 UNL     1      16.250  -0.547  23.944  0.00  0.00    +0.075 C 
ATOM     26  C19 UNL     1      15.313   0.461  23.267  0.00  0.00    +0.127 C 
BRANCH  25  27
ATOM     27  N4  UNL     1      15.672  -1.078  25.202  0.00  0.00    -0.298 NA
ATOM     28  C15 UNL     1      14.621  -0.206  25.742  0.00  0.00    +0.085 C 
ATOM     29  C16 UNL     1      13.667  -1.089  26.535  0.00  0.00    +0.017 C 
ATOM     30  C17 UNL     1      13.984  -2.512  26.111  0.00  0.00    +0.017 C 
ATOM     31  C18 UNL     1      15.016  -2.376  25.006  0.00  0.00    +0.085 C 
ENDBRANCH  25  27
ENDBRANCH   2  20
TORSDOF 6
ENDMDL
MODEL 5
REMARK VINA RESULT:    -6.363     11.292     15.477
REMARK INTER + INTRA:          -9.348
REMARK INTER:                  -8.250
REMARK INTRA:                  -1.098
REMARK UNBOUND:                -0.753
REMARK  Name = /home/qwerty/github/datacon2025hack/step_04_hit_selection/docking/ligands/lig_391.pdb
REMARK  9 active torsions:
REMARK  status: ('A' for Active; 'I' for Inactive)
REMARK    1  A    between atoms: C1_1  and  C2_2
REMARK    2  A    between atoms: C2_2  and  C3_3
REMARK    3  A    between atoms: C3_3  and  C4_4
REMARK    4  A    between atoms: C3_3  and  N1_5
REMARK    5  A    between atoms: C5_6  and  C6_8
REMARK    6  A    between atoms: C9_11  and  N2_12
REMARK    7  A    between atoms: C10_13  and  C11_15
REMARK    8  A    between atoms: C14_20  and  N4_21
REMARK    9  A    between atoms: C20_27  and  C21_28
REMARK                            x       y       z     vdW  Elec       q    Type
REMARK                         _______ _______ _______ _____ _____    ______ ____
ROOT
ATOM      1  N2  UNL     1      20.344   3.311  23.420  0.00  0.00    -0.278 N 
ATOM      2  C10 UNL     1      19.137   4.076  23.268  0.00  0.00    +0.303 C 
ATOM      3  O2  UNL     1      18.567   4.543  24.290  0.00  0.00    -0.265 OA
ATOM      4  H13 UNL     1      20.972   3.184  22.594  0.00  0.00    +0.155 HD
ENDROOT
BRANCH   1   8
ATOM      5  C6  UNL     1      21.839   2.289  27.270  0.00  0.00    +0.037 A 
ATOM      6  C7  UNL     1      22.208   3.491  26.642  0.00  0.00    +0.015 A 
ATOM      7  C8  UNL     1      21.723   3.802  25.371  0.00  0.00    +0.024 A 
ATOM      8  C9  UNL     1      20.850   2.933  24.707  0.00  0.00    +0.037 A 
ATOM      9  C20 UNL     1      20.498   1.703  25.310  0.00  0.00    -0.029 A 
ATOM     10  C21 UNL     1      19.603   0.712  24.617  0.00  0.00    +0.045 C 
ATOM     11  C22 UNL     1      20.977   1.406  26.597  0.00  0.00    +0.018 A 
BRANCH   5  13
ATOM     12  N1  UNL     1      21.829   2.676  29.783  0.00  0.00    -0.309 N 
ATOM     13  C5  UNL     1      22.319   1.963  28.635  0.00  0.00    +0.244 C 
ATOM     14  O1  UNL     1      23.178   1.052  28.788  0.00  0.00    -0.270 OA
ATOM     15  H10 UNL     1      21.366   3.602  29.639  0.00  0.00    +0.149 HD
BRANCH  12  16
ATOM     16  C3  UNL     1      22.039   2.190  31.152  0.00  0.00    +0.070 C 
ATOM     17  C4  UNL     1      22.591   3.311  32.044  0.00  0.00    +0.028 C 
BRANCH  16  19
ATOM     18  C1  UNL     1      20.373   0.225  31.121  0.00  0.00    +0.005 C 
ATOM     19  C2  UNL     1      20.741   1.581  31.729  0.00  0.00    +0.018 C 
ENDBRANCH  16  19
ENDBRANCH  12  16
ENDBRANCH   5  13
ENDBRANCH   1   8
BRANCH   2  20
ATOM     20  C11 UNL     1      18.588   4.338  21.916  0.00  0.00    +0.302 C 
ATOM     21  O3  UNL     1      19.102   5.262  21.228  0.00  0.00    -0.265 OA
ATOM     22  N3  UNL     1      17.492   3.584  21.359  0.00  0.00    -0.292 N 
ATOM     23  C12 UNL     1      16.868   3.942  20.096  0.00  0.00    +0.110 C 
ATOM     24  C13 UNL     1      15.677   3.007  19.949  0.00  0.00    +0.039 C 
ATOM     25  C14 UNL     1      15.970   1.815  20.868  0.00  0.00    +0.075 C 
ATOM     26  C19 UNL     1      16.908   2.385  21.940  0.00  0.00    +0.127 C 
BRANCH  25  27
ATOM     27  N4  UNL     1      14.732   1.256  21.460  0.00  0.00    -0.298 NA
ATOM     28  C15 UNL     1      14.595   1.590  22.884  0.00  0.00    +0.085 C 
ATOM     29  C16 UNL     1      13.106   1.617  23.199  0.00  0.00    +0.017 C 
ATOM     30  C17 UNL     1      12.407   1.673  21.853  0.00  0.00    +0.017 C 
ATOM     31  C18 UNL     1      13.522   1.801  20.831  0.00  0.00    +0.085 C 
ENDBRANCH  25  27
ENDBRANCH   2  20
TORSDOF 6
ENDMDL
MODEL 6
REMARK VINA RESULT:    -6.342      2.427     10.054
REMARK INTER + INTRA:          -9.319
REMARK INTER:                  -8.453
REMARK INTRA:                  -0.866
REMARK UNBOUND:                -0.753
REMARK  Name = /home/qwerty/github/datacon2025hack/step_04_hit_selection/docking/ligands/lig_391.pdb
REMARK  9 active torsions:
REMARK  status: ('A' for Active; 'I' for Inactive)
REMARK    1  A    between atoms: C1_1  and  C2_2
REMARK    2  A    between atoms: C2_2  and  C3_3
REMARK    3  A    between atoms: C3_3  and  C4_4
REMARK    4  A    between atoms: C3_3  and  N1_5
REMARK    5  A    between atoms: C5_6  and  C6_8
REMARK    6  A    between atoms: C9_11  and  N2_12
REMARK    7  A    between atoms: C10_13  and  C11_15
REMARK    8  A    between atoms: C14_20  and  N4_21
REMARK    9  A    between atoms: C20_27  and  C21_28
REMARK                            x       y       z     vdW  Elec       q    Type
REMARK                         _______ _______ _______ _____ _____    ______ ____
ROOT
ATOM      1  N2  UNL     1      17.686  11.986  36.517  0.00  0.00    -0.278 N 
ATOM      2  C10 UNL     1      16.903  12.322  35.360  0.00  0.00    +0.303 C 
ATOM      3  O2  UNL     1      16.928  11.564  34.354  0.00  0.00    -0.265 OA
ATOM      4  H13 UNL     1      17.446  12.421  37.436  0.00  0.00    +0.155 HD
ENDROOT
BRANCH   1   8
ATOM      5  C6  UNL     1      20.359   8.675  36.497  0.00  0.00    +0.037 A 
ATOM      6  C7  UNL     1      19.051   8.551  36.997  0.00  0.00    +0.015 A 
ATOM      7  C8  UNL     1      18.193   9.652  37.014  0.00  0.00    +0.024 A 
ATOM      8  C9  UNL     1      18.613  10.892  36.518  0.00  0.00    +0.037 A 
ATOM      9  C20 UNL     1      19.937  11.042  36.046  0.00  0.00    -0.029 A 
ATOM     10  C21 UNL     1      20.453  12.366  35.551  0.00  0.00    +0.045 C 
ATOM     11  C22 UNL     1      20.789   9.925  36.018  0.00  0.00    +0.018 A 
BRANCH   5  13
ATOM     12  N1  UNL     1      21.570   6.860  35.193  0.00  0.00    -0.309 N 
ATOM     13  C5  UNL     1      21.268   7.505  36.442  0.00  0.00    +0.244 C 
ATOM     14  O1  UNL     1      21.776   7.065  37.510  0.00  0.00    -0.270 OA
ATOM     15  H10 UNL     1      20.937   7.021  34.378  0.00  0.00    +0.149 HD
BRANCH  12  16
ATOM     16  C3  UNL     1      22.683   5.913  35.054  0.00  0.00    +0.070 C 
ATOM     17  C4  UNL     1      22.376   4.875  33.965  0.00  0.00    +0.028 C 
BRANCH  16  19
ATOM     18  C1  UNL     1      24.840   6.043  33.651  0.00  0.00    +0.005 C 
ATOM     19  C2  UNL     1      24.011   6.655  34.783  0.00  0.00    +0.018 C 
ENDBRANCH  16  19
ENDBRANCH  12  16
ENDBRANCH   5  13
ENDBRANCH   1   8
BRANCH   2  20
ATOM     20  C11 UNL     1      16.049  13.534  35.367  0.00  0.00    +0.302 C 
ATOM     21  O3  UNL     1      16.611  14.663  35.399  0.00  0.00    -0.265 OA
ATOM     22  N3  UNL     1      14.608  13.475  35.342  0.00  0.00    -0.292 N 
ATOM     23  C12 UNL     1      13.782  14.660  35.496  0.00  0.00    +0.110 C 
ATOM     24  C13 UNL     1      12.349  14.153  35.567  0.00  0.00    +0.039 C 
ATOM     25  C14 UNL     1      12.372  12.757  34.931  0.00  0.00    +0.075 C 
ATOM     26  C19 UNL     1      13.815  12.274  35.129  0.00  0.00    +0.127 C 
BRANCH  25  27
ATOM     27  N4  UNL     1      11.393  11.844  35.567  0.00  0.00    -0.298 NA
ATOM     28  C15 UNL     1      11.646  10.436  35.232  0.00  0.00    +0.085 C 
ATOM     29  C16 UNL     1      11.121   9.597  36.388  0.00  0.00    +0.017 C 
ATOM     30  C17 UNL     1      10.923  10.568  37.538  0.00  0.00    +0.017 C 
ATOM     31  C18 UNL     1      11.459  11.896  37.033  0.00  0.00    +0.085 C 
ENDBRANCH  25  27
ENDBRANCH   2  20
TORSDOF 6
ENDMDL
MODEL 7
REMARK VINA RESULT:    -6.255     12.809     15.041
REMARK INTER + INTRA:          -9.203
REMARK INTER:                  -8.189
REMARK INTRA:                  -1.014
REMARK UNBOUND:                -0.753
REMARK  Name = /home/qwerty/github/datacon2025hack/step_04_hit_selection/docking/ligands/lig_391.pdb
REMARK  9 active torsions:
REMARK  status: ('A' for Active; 'I' for Inactive)
REMARK    1  A    between atoms: C1_1  and  C2_2
REMARK    2  A    between atoms: C2_2  and  C3_3
REMARK    3  A    between atoms: C3_3  and  C4_4
REMARK    4  A    between atoms: C3_3  and  N1_5
REMARK    5  A    between atoms: C5_6  and  C6_8
REMARK    6  A    between atoms: C9_11  and  N2_12
REMARK    7  A    between atoms: C10_13  and  C11_15
REMARK    8  A    between atoms: C14_20  and  N4_21
REMARK    9  A    between atoms: C20_27  and  C21_28
REMARK                            x       y       z     vdW  Elec       q    Type
REMARK                         _______ _______ _______ _____ _____    ______ ____
ROOT
ATOM      1  N2  UNL     1       6.630   7.139  28.393  0.00  0.00    -0.278 N 
ATOM      2  C10 UNL     1       7.377   6.028  28.914  0.00  0.00    +0.303 C 
ATOM      3  O2  UNL     1       8.472   6.238  29.501  0.00  0.00    -0.265 OA
ATOM      4  H13 UNL     1       5.613   7.015  28.186  0.00  0.00    +0.155 HD
ENDROOT
BRANCH   1   8
ATOM      5  C6  UNL     1       8.205  11.091  28.478  0.00  0.00    +0.037 A 
ATOM      6  C7  UNL     1       7.456  10.583  29.553  0.00  0.00    +0.015 A 
ATOM      7  C8  UNL     1       6.930   9.292  29.502  0.00  0.00    +0.024 A 
ATOM      8  C9  UNL     1       7.154   8.474  28.388  0.00  0.00    +0.037 A 
ATOM      9  C20 UNL     1       7.875   8.983  27.283  0.00  0.00    -0.029 A 
ATOM     10  C21 UNL     1       8.099   8.163  26.041  0.00  0.00    +0.045 C 
ATOM     11  C22 UNL     1       8.414  10.278  27.350  0.00  0.00    +0.018 A 
BRANCH   5  13
ATOM     12  N1  UNL     1      10.124  12.657  29.053  0.00  0.00    -0.309 N 
ATOM     13  C5  UNL     1       8.798  12.449  28.536  0.00  0.00    +0.244 C 
ATOM     14  O1  UNL     1       8.124  13.437  28.134  0.00  0.00    -0.270 OA
ATOM     15  H10 UNL     1      10.553  11.914  29.649  0.00  0.00    +0.149 HD
BRANCH  12  16
ATOM     16  C3  UNL     1      10.853  13.914  28.847  0.00  0.00    +0.070 C 
ATOM     17  C4  UNL     1      11.779  14.204  30.037  0.00  0.00    +0.028 C 
BRANCH  16  19
ATOM     18  C1  UNL     1      12.075  12.495  27.078  0.00  0.00    +0.005 C 
ATOM     19  C2  UNL     1      11.625  13.894  27.509  0.00  0.00    +0.018 C 
ENDBRANCH  16  19
ENDBRANCH  12  16
ENDBRANCH   5  13
ENDBRANCH   1   8
BRANCH   2  20
ATOM     20  C11 UNL     1       6.845   4.650  28.786  0.00  0.00    +0.302 C 
ATOM     21  O3  UNL     1       6.091   4.211  29.698  0.00  0.00    -0.265 OA
ATOM     22  N3  UNL     1       7.157   3.793  27.669  0.00  0.00    -0.292 N 
ATOM     23  C12 UNL     1       6.750   2.398  27.626  0.00  0.00    +0.110 C 
ATOM     24  C13 UNL     1       7.399   1.822  26.376  0.00  0.00    +0.039 C 
ATOM     25  C14 UNL     1       7.717   3.027  25.482  0.00  0.00    +0.075 C 
ATOM     26  C19 UNL     1       7.860   4.198  26.462  0.00  0.00    +0.127 C 
BRANCH  25  27
ATOM     27  N4  UNL     1       8.953   2.817  24.691  0.00  0.00    -0.298 NA
ATOM     28  C15 UNL     1       9.294   1.394  24.560  0.00  0.00    +0.085 C 
ATOM     29  C16 UNL     1      10.064   1.233  23.256  0.00  0.00    +0.017 C 
ATOM     30  C17 UNL     1       9.814   2.512  22.478  0.00  0.00    +0.017 C 
ATOM     31  C18 UNL     1       8.815   3.296  23.310  0.00  0.00    +0.085 C 
ENDBRANCH  25  27
ENDBRANCH   2  20
TORSDOF 6
ENDMDL
MODEL 8
REMARK VINA RESULT:    -6.240      1.666      2.325
REMARK INTER + INTRA:          -9.182
REMARK INTER:                  -8.310
REMARK INTRA:                  -0.873
REMARK UNBOUND:                -0.753
REMARK  Name = /home/qwerty/github/datacon2025hack/step_04_hit_selection/docking/ligands/lig_391.pdb
REMARK  9 active torsions:
REMARK  status: ('A' for Active; 'I' for Inactive)
REMARK    1  A    between atoms: C1_1  and  C2_2
REMARK    2  A    between atoms: C2_2  and  C3_3
REMARK    3  A    between atoms: C3_3  and  C4_4
REMARK    4  A    between atoms: C3_3  and  N1_5
REMARK    5  A    between atoms: C5_6  and  C6_8
REMARK    6  A    between atoms: C9_11  and  N2_12
REMARK    7  A    between atoms: C10_13  and  C11_15
REMARK    8  A    between atoms: C14_20  and  N4_21
REMARK    9  A    between atoms: C20_27  and  C21_28
REMARK                            x       y       z     vdW  Elec       q    Type
REMARK                         _______ _______ _______ _____ _____    ______ ____
ROOT
ATOM      1  N2  UNL     1      18.627  10.562  36.877  0.00  0.00    -0.278 N 
ATOM      2  C10 UNL     1      18.875   9.298  36.239  0.00  0.00    +0.303 C 
ATOM      3  O2  UNL     1      18.229   8.991  35.202  0.00  0.00    -0.265 OA
ATOM      4  H13 UNL     1      19.344  10.949  37.531  0.00  0.00    +0.155 HD
ENDROOT
BRANCH   1   8
ATOM      5  C6  UNL     1      15.432  13.131  35.737  0.00  0.00    +0.037 A 
ATOM      6  C7  UNL     1      15.219  12.045  36.603  0.00  0.00    +0.015 A 
ATOM      7  C8  UNL     1      16.273  11.201  36.952  0.00  0.00    +0.024 A 
ATOM      8  C9  UNL     1      17.564  11.430  36.461  0.00  0.00    +0.037 A 
ATOM      9  C20 UNL     1      17.788  12.496  35.559  0.00  0.00    -0.029 A 
ATOM     10  C21 UNL     1      19.146  12.754  34.963  0.00  0.00    +0.045 C 
ATOM     11  C22 UNL     1      16.724  13.351  35.226  0.00  0.00    +0.018 A 
BRANCH   5  13
ATOM     12  N1  UNL     1      13.528  13.842  34.210  0.00  0.00    -0.309 N 
ATOM     13  C5  UNL     1      14.327  14.056  35.386  0.00  0.00    +0.244 C 
ATOM     14  O1  UNL     1      14.094  15.050  36.127  0.00  0.00    -0.270 OA
ATOM     15  H10 UNL     1      13.898  13.221  33.456  0.00  0.00    +0.149 HD
BRANCH  12  16
ATOM     16  C3  UNL     1      12.255  14.540  33.996  0.00  0.00    +0.070 C 
ATOM     17  C4  UNL     1      12.146  15.034  32.546  0.00  0.00    +0.028 C 
BRANCH  16  19
ATOM     18  C1  UNL     1      10.570  13.862  35.824  0.00  0.00    +0.005 C 
ATOM     19  C2  UNL     1      11.059  13.644  34.389  0.00  0.00    +0.018 C 
ENDBRANCH  16  19
ENDBRANCH  12  16
ENDBRANCH   5  13
ENDBRANCH   1   8
BRANCH   2  20
ATOM     20  C11 UNL     1      19.905   8.381  36.783  0.00  0.00    +0.302 C 
ATOM     21  O3  UNL     1      19.837   8.054  37.999  0.00  0.00    -0.265 OA
ATOM     22  N3  UNL     1      20.982   7.854  35.980  0.00  0.00    -0.292 N 
ATOM     23  C12 UNL     1      22.066   7.075  36.554  0.00  0.00    +0.110 C 
ATOM     24  C13 UNL     1      23.053   6.848  35.419  0.00  0.00    +0.039 C 
ATOM     25  C14 UNL     1      22.251   7.054  34.127  0.00  0.00    +0.075 C 
ATOM     26  C19 UNL     1      21.106   7.988  34.537  0.00  0.00    +0.127 C 
BRANCH  25  27
ATOM     27  N4  UNL     1      23.082   7.641  33.049  0.00  0.00    -0.298 NA
ATOM     28  C15 UNL     1      22.716   9.034  32.760  0.00  0.00    +0.085 C 
ATOM     29  C16 UNL     1      23.963   9.726  32.228  0.00  0.00    +0.017 C 
ATOM     30  C17 UNL     1      25.120   8.810  32.586  0.00  0.00    +0.017 C 
ATOM     31  C18 UNL     1      24.503   7.697  33.414  0.00  0.00    +0.085 C 
ENDBRANCH  25  27
ENDBRANCH   2  20
TORSDOF 6
ENDMDL
MODEL 9
REMARK VINA RESULT:    -6.200      1.645      2.251
REMARK INTER + INTRA:          -9.128
REMARK INTER:                  -8.028
REMARK INTRA:                  -1.100
REMARK UNBOUND:                -0.753
REMARK  Name = /home/qwerty/github/datacon2025hack/step_04_hit_selection/docking/ligands/lig_391.pdb
REMARK  9 active torsions:
REMARK  status: ('A' for Active; 'I' for Inactive)
REMARK    1  A    between atoms: C1_1  and  C2_2
REMARK    2  A    between atoms: C2_2  and  C3_3
REMARK    3  A    between atoms: C3_3  and  C4_4
REMARK    4  A    between atoms: C3_3  and  N1_5
REMARK    5  A    between atoms: C5_6  and  C6_8
REMARK    6  A    between atoms: C9_11  and  N2_12
REMARK    7  A    between atoms: C10_13  and  C11_15
REMARK    8  A    between atoms: C14_20  and  N4_21
REMARK    9  A    between atoms: C20_27  and  C21_28
REMARK                            x       y       z     vdW  Elec       q    Type
REMARK                         _______ _______ _______ _____ _____    ______ ____
ROOT
ATOM      1  N2  UNL     1      18.944   8.336  36.103  0.00  0.00    -0.278 N 
ATOM      2  C10 UNL     1      20.308   8.714  36.352  0.00  0.00    +0.303 C 
ATOM      3  O2  UNL     1      20.613   9.935  36.409  0.00  0.00    -0.265 OA
ATOM      4  H13 UNL     1      18.631   7.371  36.350  0.00  0.00    +0.155 HD
ENDROOT
BRANCH   1   8
ATOM      5  C6  UNL     1      15.932  11.144  35.029  0.00  0.00    +0.037 A 
ATOM      6  C7  UNL     1      16.762  10.559  34.057  0.00  0.00    +0.015 A 
ATOM      7  C8  UNL     1      17.757   9.655  34.427  0.00  0.00    +0.024 A 
ATOM      8  C9  UNL     1      17.936   9.301  35.770  0.00  0.00    +0.037 A 
ATOM      9  C20 UNL     1      17.134   9.907  36.764  0.00  0.00    -0.029 A 
ATOM     10  C21 UNL     1      17.320   9.599  38.225  0.00  0.00    +0.045 C 
ATOM     11  C22 UNL     1      16.123  10.804  36.380  0.00  0.00    +0.018 A 
BRANCH   5  13
ATOM     12  N1  UNL     1      14.177  12.882  35.630  0.00  0.00    -0.309 N 
ATOM     13  C5  UNL     1      14.848  12.080  34.644  0.00  0.00    +0.244 C 
ATOM     14  O1  UNL     1      14.505  12.164  33.433  0.00  0.00    -0.270 OA
ATOM     15  H10 UNL     1      14.243  12.603  36.635  0.00  0.00    +0.149 HD
BRANCH  12  16
ATOM     16  C3  UNL     1      13.330  14.022  35.262  0.00  0.00    +0.070 C 
ATOM     17  C4  UNL     1      11.890  13.806  35.749  0.00  0.00    +0.028 C 
BRANCH  16  19
ATOM     18  C1  UNL     1      15.274  15.180  36.495  0.00  0.00    +0.005 C 
ATOM     19  C2  UNL     1      13.923  15.347  35.793  0.00  0.00    +0.018 C 
ENDBRANCH  16  19
ENDBRANCH  12  16
ENDBRANCH   5  13
ENDBRANCH   1   8
BRANCH   2  20
ATOM     20  C11 UNL     1      21.339   7.671  36.572  0.00  0.00    +0.302 C 
ATOM     21  O3  UNL     1      21.402   7.119  37.704  0.00  0.00    -0.265 OA
ATOM     22  N3  UNL     1      22.272   7.267  35.548  0.00  0.00    -0.292 N 
ATOM     23  C12 UNL     1      23.368   6.352  35.817  0.00  0.00    +0.110 C 
ATOM     24  C13 UNL     1      24.189   6.311  34.537  0.00  0.00    +0.039 C 
ATOM     25  C14 UNL     1      23.248   6.792  33.426  0.00  0.00    +0.075 C 
ATOM     26  C19 UNL     1      22.223   7.673  34.152  0.00  0.00    +0.127 C 
BRANCH  25  27
ATOM     27  N4  UNL     1      23.973   7.544  32.374  0.00  0.00    -0.298 NA
ATOM     28  C15 UNL     1      23.060   8.177  31.413  0.00  0.00    +0.085 C 
ATOM     29  C16 UNL     1      23.768   9.408  30.863  0.00  0.00    +0.017 C 
ATOM     30  C17 UNL     1      24.925   9.668  31.811  0.00  0.00    +0.017 C 
ATOM     31  C18 UNL     1      24.759   8.653  32.928  0.00  0.00    +0.085 C 
ENDBRANCH  25  27
ENDBRANCH   2  20
TORSDOF 6
ENDMDL
