REMARK  Name = /home/qwerty/github/datacon2025hack/step_04_hit_selection/docking/ligands/lig_230.pdb
REMARK  10 active torsions:
REMARK  status: ('A' for Active; 'I' for Inactive)
REMARK    1  A    between atoms: C1_1  and  C2_2
REMARK    2  A    between atoms: C2_2  and  C3_3
REMARK    3  A    between atoms: C2_2  and  C4_4
REMARK    4  A    between atoms: C2_2  and  C5_5
REMARK    5  A    between atoms: C7_8  and  C8_9
REMARK    6  A    between atoms: C8_9  and  C9_10
REMARK    7  A    between atoms: C9_10  and  C10_11
REMARK    8  A    between atoms: N2_13  and  C11_14
REMARK    9  A    between atoms: C13_16  and  C14_17
REMARK   10  A    between atoms: C17_23  and  N3_24
REMARK                            x       y       z     vdW  Elec       q    Type
REMARK                         _______ _______ _______ _____ _____    ______ ____
ROOT
ATOM      1  C11 UNL     1      -2.808  -1.032  -0.886  0.00  0.00    +0.055 A 
ATOM      2  C12 UNL     1      -2.556  -2.017  -1.859  0.00  0.00    +0.037 A 
ATOM      3  C13 UNL     1      -3.575  -2.456  -2.722  0.00  0.00    +0.057 A 
ATOM      4  C15 UNL     1      -4.863  -1.920  -2.583  0.00  0.00    +0.014 A 
ATOM      5  C16 UNL     1      -5.119  -0.931  -1.630  0.00  0.00    +0.025 A 
ATOM      6  C17 UNL     1      -4.101  -0.482  -0.779  0.00  0.00    +0.051 A 
ENDROOT
BRANCH   6   7
ATOM      7  N3  UNL     1      -4.392   0.498   0.230  0.00  0.00    -0.324 N 
ATOM      8  C18 UNL     1      -4.471   0.081   1.632  0.00  0.00    +0.133 C 
ATOM      9  C19 UNL     1      -4.166   1.276   2.542  0.00  0.00    +0.178 C 
ATOM     10  O2  UNL     1      -4.981   2.382   2.206  0.00  0.00    -0.377 OA
ATOM     11  C20 UNL     1      -4.665   2.836   0.903  0.00  0.00    +0.178 C 
ATOM     12  C21 UNL     1      -5.011   1.771  -0.144  0.00  0.00    +0.133 C 
ENDBRANCH   6   7
BRANCH   1  15
ATOM     13  C10 UNL     1      -0.653  -1.317   0.421  0.00  0.00    +0.218 C 
ATOM     14  O1  UNL     1      -0.744  -2.574   0.451  0.00  0.00    -0.275 OA
ATOM     15  N2  UNL     1      -1.740  -0.518  -0.069  0.00  0.00    -0.284 N 
ATOM     16  H15 UNL     1      -1.759   0.494   0.195  0.00  0.00    +0.155 HD
BRANCH  13  17
ATOM     17  C9  UNL     1       0.610  -0.654   0.883  0.00  0.00    +0.105 C 
BRANCH  17  18
ATOM     18  C8  UNL     1       1.484  -0.288  -0.320  0.00  0.00    +0.105 C 
BRANCH  18  22
ATOM     19  C5  UNL     1       4.792   0.806   0.366  0.00  0.00    +0.131 A 
ATOM     20  C6  UNL     1       4.063   1.811   0.968  0.00  0.00    +0.156 A 
ATOM     21  N1  UNL     1       2.751   1.561   0.806  0.00  0.00    -0.221 NA
ATOM     22  C7  UNL     1       2.738   0.402   0.115  0.00  0.00    +0.196 A 
ATOM     23  O3  UNL     1       3.942  -0.050  -0.147  0.00  0.00    -0.444 OA
BRANCH  19  25
ATOM     24  C1  UNL     1       6.812   0.335   1.737  0.00  0.00    +0.019 C 
ATOM     25  C2  UNL     1       6.299   0.666   0.325  0.00  0.00    +0.022 C 
ATOM     26  C3  UNL     1       6.696  -0.468  -0.640  0.00  0.00    +0.019 C 
ATOM     27  C4  UNL     1       6.936   1.982  -0.166  0.00  0.00    +0.019 C 
ENDBRANCH  19  25
ENDBRANCH  18  22
ENDBRANCH  17  18
ENDBRANCH  13  17
ENDBRANCH   1  15
BRANCH   3  28
ATOM     28  C14 UNL     1      -3.315  -3.557  -3.719  0.00  0.00    +0.417 C 
ATOM     29  F1  UNL     1      -1.991  -3.555  -4.122  0.00  0.00    -0.166 F 
ATOM     30  F2  UNL     1      -3.606  -4.775  -3.136  0.00  0.00    -0.166 F 
ATOM     31  F3  UNL     1      -4.108  -3.394  -4.843  0.00  0.00    -0.166 F 
ENDBRANCH   3  28
TORSDOF 7
