MODEL 1
REMARK VINA RESULT:    -6.768      0.000      0.000
REMARK INTER + INTRA:          -8.484
REMARK INTER:                  -7.955
REMARK INTRA:                  -0.529
REMARK UNBOUND:                -0.529
REMARK  Name = /home/qwerty/github/datacon2025hack/step_04_hit_selection/docking/ligands/lig_377.pdb
REMARK  5 active torsions:
REMARK  status: ('A' for Active; 'I' for Inactive)
REMARK    1  A    between atoms: C1_1  and  C2_2
REMARK    2  A    between atoms: C7_8  and  N1_9
REMARK    3  A    between atoms: N2_12  and  C9_13
REMARK    4  A    between atoms: C12_16  and  N3_17
REMARK    5  A    between atoms: N4_20  and  C15_21
REMARK                            x       y       z     vdW  Elec       q    Type
REMARK                         _______ _______ _______ _____ _____    ______ ____
ROOT
ATOM      1  N1  UNL     1      10.063   6.501  19.905  0.00  0.00    -0.269 N 
ATOM      2  C8  UNL     1      11.110   5.685  20.447  0.00  0.00    +0.308 C 
ATOM      3  O1  UNL     1      11.796   6.100  21.421  0.00  0.00    -0.252 OA
ATOM      4  N2  UNL     1      11.383   4.404  19.859  0.00  0.00    -0.269 N 
ATOM      5  H7  UNL     1       9.365   6.052  19.272  0.00  0.00    +0.156 HD
ATOM      6  H8  UNL     1      10.996   4.219  18.906  0.00  0.00    +0.156 HD
ENDROOT
BRANCH   1  14
ATOM      7  C1  UNL     1       7.961   6.921  21.949  0.00  0.00    +0.048 C 
ATOM      8  C2  UNL     1       8.767   8.051  21.364  0.00  0.00    +0.006 A 
ATOM      9  C3  UNL     1       8.503   9.372  21.777  0.00  0.00    +0.128 A 
ATOM     10  F1  UNL     1       7.513   9.633  22.669  0.00  0.00    -0.205 F 
ATOM     11  C4  UNL     1       9.268  10.433  21.282  0.00  0.00    +0.039 A 
ATOM     12  C5  UNL     1      10.297  10.191  20.372  0.00  0.00    +0.005 A 
ATOM     13  C6  UNL     1      10.554   8.891  19.935  0.00  0.00    +0.024 A 
ATOM     14  C7  UNL     1       9.779   7.819  20.399  0.00  0.00    +0.040 A 
ENDBRANCH   1  14
BRANCH   4  15
ATOM     15  C9  UNL     1      12.252   3.417  20.442  0.00  0.00    +0.035 A 
ATOM     16  C10 UNL     1      13.571   3.305  19.983  0.00  0.00    +0.025 A 
ATOM     17  C11 UNL     1      14.429   2.339  20.514  0.00  0.00    +0.025 A 
ATOM     18  C12 UNL     1      13.979   1.454  21.510  0.00  0.00    +0.030 A 
ATOM     19  C18 UNL     1      12.646   1.549  21.947  0.00  0.00    +0.025 A 
ATOM     20  C19 UNL     1      11.789   2.516  21.415  0.00  0.00    +0.025 A 
BRANCH  18  21
ATOM     21  N3  UNL     1      14.865   0.450  22.054  0.00  0.00    -0.327 N 
ATOM     22  C13 UNL     1      16.125   0.133  21.370  0.00  0.00    +0.120 C 
ATOM     23  C14 UNL     1      16.659  -1.227  21.824  0.00  0.00    +0.103 C 
ATOM     24  N4  UNL     1      16.832  -1.263  23.291  0.00  0.00    -0.302 NA
ATOM     25  C15 UNL     1      17.186  -2.623  23.726  0.00  0.00    +0.105 C 
ATOM     26  C16 UNL     1      15.679  -0.725  24.065  0.00  0.00    +0.103 C 
ATOM     27  C17 UNL     1      14.457  -0.365  23.206  0.00  0.00    +0.120 C 
ENDBRANCH  18  21
ENDBRANCH   4  15
TORSDOF 3
ENDMDL
MODEL 2
REMARK VINA RESULT:    -6.560     16.189     17.125
REMARK INTER + INTRA:          -8.240
REMARK INTER:                  -7.739
REMARK INTRA:                  -0.501
REMARK UNBOUND:                -0.529
REMARK  Name = /home/qwerty/github/datacon2025hack/step_04_hit_selection/docking/ligands/lig_377.pdb
REMARK  5 active torsions:
REMARK  status: ('A' for Active; 'I' for Inactive)
REMARK    1  A    between atoms: C1_1  and  C2_2
REMARK    2  A    between atoms: C7_8  and  N1_9
REMARK    3  A    between atoms: N2_12  and  C9_13
REMARK    4  A    between atoms: C12_16  and  N3_17
REMARK    5  A    between atoms: N4_20  and  C15_21
REMARK                            x       y       z     vdW  Elec       q    Type
REMARK                         _______ _______ _______ _____ _____    ______ ____
ROOT
ATOM      1  N1  UNL     1      14.744  12.387  37.467  0.00  0.00    -0.269 N 
ATOM      2  C8  UNL     1      15.717  11.416  37.060  0.00  0.00    +0.308 C 
ATOM      3  O1  UNL     1      15.480  10.655  36.082  0.00  0.00    -0.252 OA
ATOM      4  N2  UNL     1      16.950  11.304  37.785  0.00  0.00    -0.269 N 
ATOM      5  H7  UNL     1      15.049  13.152  38.110  0.00  0.00    +0.156 HD
ATOM      6  H8  UNL     1      16.994  11.743  38.733  0.00  0.00    +0.156 HD
ENDROOT
BRANCH   1  14
ATOM      7  C1  UNL     1      14.300  14.416  35.358  0.00  0.00    +0.048 C 
ATOM      8  C2  UNL     1      13.217  13.482  35.831  0.00  0.00    +0.006 A 
ATOM      9  C3  UNL     1      11.927  13.583  35.275  0.00  0.00    +0.128 A 
ATOM     10  F1  UNL     1      11.647  14.532  34.345  0.00  0.00    -0.205 F 
ATOM     11  C4  UNL     1      10.917  12.698  35.666  0.00  0.00    +0.039 A 
ATOM     12  C5  UNL     1      11.180  11.709  36.613  0.00  0.00    +0.005 A 
ATOM     13  C6  UNL     1      12.447  11.612  37.191  0.00  0.00    +0.024 A 
ATOM     14  C7  UNL     1      13.463  12.508  36.831  0.00  0.00    +0.040 A 
ENDBRANCH   1  14
BRANCH   4  15
ATOM     15  C9  UNL     1      18.079  10.528  37.346  0.00  0.00    +0.035 A 
ATOM     16  C10 UNL     1      18.900  11.024  36.325  0.00  0.00    +0.025 A 
ATOM     17  C11 UNL     1      19.988  10.280  35.863  0.00  0.00    +0.025 A 
ATOM     18  C12 UNL     1      20.270   9.014  36.406  0.00  0.00    +0.030 A 
ATOM     19  C18 UNL     1      19.427   8.505  37.410  0.00  0.00    +0.025 A 
ATOM     20  C19 UNL     1      18.339   9.251  37.871  0.00  0.00    +0.025 A 
BRANCH  18  21
ATOM     21  N3  UNL     1      21.392   8.241  35.923  0.00  0.00    -0.327 N 
ATOM     22  C13 UNL     1      21.942   7.154  36.744  0.00  0.00    +0.120 C 
ATOM     23  C14 UNL     1      23.358   6.795  36.286  0.00  0.00    +0.103 C 
ATOM     24  N4  UNL     1      23.373   6.435  34.853  0.00  0.00    -0.302 NA
ATOM     25  C15 UNL     1      24.758   6.254  34.391  0.00  0.00    +0.105 C 
ATOM     26  C16 UNL     1      22.620   7.367  33.970  0.00  0.00    +0.103 C 
ATOM     27  C17 UNL     1      22.085   8.618  34.685  0.00  0.00    +0.120 C 
ENDBRANCH  18  21
ENDBRANCH   4  15
TORSDOF 3
ENDMDL
MODEL 3
REMARK VINA RESULT:    -6.507      1.232      1.998
REMARK INTER + INTRA:          -8.178
REMARK INTER:                  -7.802
REMARK INTRA:                  -0.376
REMARK UNBOUND:                -0.529
REMARK  Name = /home/qwerty/github/datacon2025hack/step_04_hit_selection/docking/ligands/lig_377.pdb
REMARK  5 active torsions:
REMARK  status: ('A' for Active; 'I' for Inactive)
REMARK    1  A    between atoms: C1_1  and  C2_2
REMARK    2  A    between atoms: C7_8  and  N1_9
REMARK    3  A    between atoms: N2_12  and  C9_13
REMARK    4  A    between atoms: C12_16  and  N3_17
REMARK    5  A    between atoms: N4_20  and  C15_21
REMARK                            x       y       z     vdW  Elec       q    Type
REMARK                         _______ _______ _______ _____ _____    ______ ____
ROOT
ATOM      1  N1  UNL     1      10.537   5.169  19.881  0.00  0.00    -0.269 N 
ATOM      2  C8  UNL     1      11.544   4.419  20.573  0.00  0.00    +0.308 C 
ATOM      3  O1  UNL     1      12.008   4.843  21.667  0.00  0.00    -0.252 OA
ATOM      4  N2  UNL     1      12.032   3.196  20.002  0.00  0.00    -0.269 N 
ATOM      5  H7  UNL     1      10.005   4.694  19.118  0.00  0.00    +0.156 HD
ATOM      6  H8  UNL     1      11.836   3.025  18.990  0.00  0.00    +0.156 HD
ENDROOT
BRANCH   1  14
ATOM      7  C1  UNL     1       7.832   5.390  21.064  0.00  0.00    +0.048 C 
ATOM      8  C2  UNL     1       8.755   6.571  20.914  0.00  0.00    +0.006 A 
ATOM      9  C3  UNL     1       8.317   7.845  21.324  0.00  0.00    +0.128 A 
ATOM     10  F1  UNL     1       7.066   8.020  21.822  0.00  0.00    -0.205 F 
ATOM     11  C4  UNL     1       9.171   8.949  21.236  0.00  0.00    +0.039 A 
ATOM     12  C5  UNL     1      10.465   8.796  20.737  0.00  0.00    +0.005 A 
ATOM     13  C6  UNL     1      10.905   7.544  20.304  0.00  0.00    +0.024 A 
ATOM     14  C7  UNL     1      10.052   6.433  20.359  0.00  0.00    +0.040 A 
ENDBRANCH   1  14
BRANCH   4  15
ATOM     15  C9  UNL     1      12.872   2.259  20.698  0.00  0.00    +0.035 A 
ATOM     16  C10 UNL     1      12.343   1.519  21.764  0.00  0.00    +0.025 A 
ATOM     17  C11 UNL     1      13.144   0.619  22.472  0.00  0.00    +0.025 A 
ATOM     18  C12 UNL     1      14.498   0.450  22.134  0.00  0.00    +0.030 A 
ATOM     19  C18 UNL     1      15.034   1.215  21.083  0.00  0.00    +0.025 A 
ATOM     20  C19 UNL     1      14.232   2.114  20.375  0.00  0.00    +0.025 A 
BRANCH  18  21
ATOM     21  N3  UNL     1      15.328  -0.476  22.871  0.00  0.00    -0.327 N 
ATOM     22  C13 UNL     1      14.758  -1.248  23.983  0.00  0.00    +0.120 C 
ATOM     23  C14 UNL     1      15.866  -1.785  24.892  0.00  0.00    +0.103 C 
ATOM     24  N4  UNL     1      16.830  -2.598  24.123  0.00  0.00    -0.302 NA
ATOM     25  C15 UNL     1      17.973  -2.967  24.974  0.00  0.00    +0.105 C 
ATOM     26  C16 UNL     1      17.279  -1.986  22.843  0.00  0.00    +0.103 C 
ATOM     27  C17 UNL     1      16.772  -0.552  22.619  0.00  0.00    +0.120 C 
ENDBRANCH  18  21
ENDBRANCH   4  15
TORSDOF 3
ENDMDL
MODEL 4
REMARK VINA RESULT:    -6.377     16.461     17.132
REMARK INTER + INTRA:          -8.025
REMARK INTER:                  -7.675
REMARK INTRA:                  -0.350
REMARK UNBOUND:                -0.529
REMARK  Name = /home/qwerty/github/datacon2025hack/step_04_hit_selection/docking/ligands/lig_377.pdb
REMARK  5 active torsions:
REMARK  status: ('A' for Active; 'I' for Inactive)
REMARK    1  A    between atoms: C1_1  and  C2_2
REMARK    2  A    between atoms: C7_8  and  N1_9
REMARK    3  A    between atoms: N2_12  and  C9_13
REMARK    4  A    between atoms: C12_16  and  N3_17
REMARK    5  A    between atoms: N4_20  and  C15_21
REMARK                            x       y       z     vdW  Elec       q    Type
REMARK                         _______ _______ _______ _____ _____    ______ ____
ROOT
ATOM      1  N1  UNL     1      16.093  12.461  37.538  0.00  0.00    -0.269 N 
ATOM      2  C8  UNL     1      16.977  11.621  36.784  0.00  0.00    +0.308 C 
ATOM      3  O1  UNL     1      16.859  11.540  35.531  0.00  0.00    -0.252 OA
ATOM      4  N2  UNL     1      17.983  10.860  37.469  0.00  0.00    -0.269 N 
ATOM      5  H7  UNL     1      16.354  12.696  38.521  0.00  0.00    +0.156 HD
ATOM      6  H8  UNL     1      17.874  10.736  38.502  0.00  0.00    +0.156 HD
ENDROOT
BRANCH   1  14
ATOM      7  C1  UNL     1      13.457  11.188  37.089  0.00  0.00    +0.048 C 
ATOM      8  C2  UNL     1      13.757  12.607  36.684  0.00  0.00    +0.006 A 
ATOM      9  C3  UNL     1      12.760  13.366  36.039  0.00  0.00    +0.128 A 
ATOM     10  F1  UNL     1      11.549  12.819  35.756  0.00  0.00    -0.205 F 
ATOM     11  C4  UNL     1      12.999  14.699  35.694  0.00  0.00    +0.039 A 
ATOM     12  C5  UNL     1      14.229  15.289  35.982  0.00  0.00    +0.005 A 
ATOM     13  C6  UNL     1      15.236  14.543  36.598  0.00  0.00    +0.024 A 
ATOM     14  C7  UNL     1      15.023  13.197  36.927  0.00  0.00    +0.040 A 
ENDBRANCH   1  14
BRANCH   4  15
ATOM     15  C9  UNL     1      19.053  10.158  36.812  0.00  0.00    +0.035 A 
ATOM     16  C10 UNL     1      19.270   8.805  37.103  0.00  0.00    +0.025 A 
ATOM     17  C11 UNL     1      20.317   8.107  36.496  0.00  0.00    +0.025 A 
ATOM     18  C12 UNL     1      21.179   8.753  35.593  0.00  0.00    +0.030 A 
ATOM     19  C18 UNL     1      20.977  10.119  35.326  0.00  0.00    +0.025 A 
ATOM     20  C19 UNL     1      19.929  10.817  35.932  0.00  0.00    +0.025 A 
BRANCH  18  21
ATOM     21  N3  UNL     1      22.266   8.032  34.972  0.00  0.00    -0.327 N 
ATOM     22  C13 UNL     1      23.047   8.664  33.900  0.00  0.00    +0.120 C 
ATOM     23  C14 UNL     1      23.802   7.608  33.088  0.00  0.00    +0.103 C 
ATOM     24  N4  UNL     1      24.669   6.791  33.962  0.00  0.00    -0.302 NA
ATOM     25  C15 UNL     1      25.258   5.680  33.197  0.00  0.00    +0.105 C 
ATOM     26  C16 UNL     1      24.015   6.308  35.209  0.00  0.00    +0.103 C 
ATOM     27  C17 UNL     1      22.512   6.621  35.294  0.00  0.00    +0.120 C 
ENDBRANCH  18  21
ENDBRANCH   4  15
TORSDOF 3
ENDMDL
MODEL 5
REMARK VINA RESULT:    -6.377      7.885      8.998
REMARK INTER + INTRA:          -8.024
REMARK INTER:                  -7.533
REMARK INTRA:                  -0.492
REMARK UNBOUND:                -0.529
REMARK  Name = /home/qwerty/github/datacon2025hack/step_04_hit_selection/docking/ligands/lig_377.pdb
REMARK  5 active torsions:
REMARK  status: ('A' for Active; 'I' for Inactive)
REMARK    1  A    between atoms: C1_1  and  C2_2
REMARK    2  A    between atoms: C7_8  and  N1_9
REMARK    3  A    between atoms: N2_12  and  C9_13
REMARK    4  A    between atoms: C12_16  and  N3_17
REMARK    5  A    between atoms: N4_20  and  C15_21
REMARK                            x       y       z     vdW  Elec       q    Type
REMARK                         _______ _______ _______ _____ _____    ______ ____
ROOT
ATOM      1  N1  UNL     1      19.600   8.148  19.508  0.00  0.00    -0.269 N 
ATOM      2  C8  UNL     1      19.876   7.525  20.770  0.00  0.00    +0.308 C 
ATOM      3  O1  UNL     1      19.385   8.000  21.830  0.00  0.00    -0.252 OA
ATOM      4  N2  UNL     1      20.729   6.372  20.817  0.00  0.00    -0.269 N 
ATOM      5  H7  UNL     1      19.812   7.611  18.637  0.00  0.00    +0.156 HD
ATOM      6  H8  UNL     1      21.327   6.180  19.981  0.00  0.00    +0.156 HD
ENDROOT
BRANCH   1  14
ATOM      7  C1  UNL     1      20.905  10.787  19.190  0.00  0.00    +0.048 C 
ATOM      8  C2  UNL     1      19.410  10.619  19.259  0.00  0.00    +0.006 A 
ATOM      9  C3  UNL     1      18.584  11.759  19.197  0.00  0.00    +0.128 A 
ATOM     10  F1  UNL     1      19.126  13.001  19.108  0.00  0.00    -0.205 F 
ATOM     11  C4  UNL     1      17.193  11.626  19.213  0.00  0.00    +0.039 A 
ATOM     12  C5  UNL     1      16.610  10.362  19.294  0.00  0.00    +0.005 A 
ATOM     13  C6  UNL     1      17.414   9.225  19.381  0.00  0.00    +0.024 A 
ATOM     14  C7  UNL     1      18.811   9.341  19.394  0.00  0.00    +0.040 A 
ENDBRANCH   1  14
BRANCH   4  15
ATOM     15  C9  UNL     1      20.903   5.543  21.980  0.00  0.00    +0.035 A 
ATOM     16  C10 UNL     1      20.125   4.387  22.123  0.00  0.00    +0.025 A 
ATOM     17  C11 UNL     1      20.257   3.577  23.254  0.00  0.00    +0.025 A 
ATOM     18  C12 UNL     1      21.164   3.915  24.274  0.00  0.00    +0.030 A 
ATOM     19  C18 UNL     1      21.923   5.092  24.141  0.00  0.00    +0.025 A 
ATOM     20  C19 UNL     1      21.791   5.901  23.009  0.00  0.00    +0.025 A 
BRANCH  18  21
ATOM     21  N3  UNL     1      21.296   3.081  25.446  0.00  0.00    -0.327 N 
ATOM     22  C13 UNL     1      20.661   1.757  25.480  0.00  0.00    +0.120 C 
ATOM     23  C14 UNL     1      20.524   1.261  26.921  0.00  0.00    +0.103 C 
ATOM     24  N4  UNL     1      21.837   1.235  27.597  0.00  0.00    -0.302 NA
ATOM     25  C15 UNL     1      21.666   0.916  29.024  0.00  0.00    +0.105 C 
ATOM     26  C16 UNL     1      22.658   2.462  27.408  0.00  0.00    +0.103 C 
ATOM     27  C17 UNL     1      21.934   3.596  26.665  0.00  0.00    +0.120 C 
ENDBRANCH  18  21
ENDBRANCH   4  15
TORSDOF 3
ENDMDL
MODEL 6
REMARK VINA RESULT:    -6.184     10.162     13.137
REMARK INTER + INTRA:          -7.798
REMARK INTER:                  -7.272
REMARK INTRA:                  -0.526
REMARK UNBOUND:                -0.529
REMARK  Name = /home/qwerty/github/datacon2025hack/step_04_hit_selection/docking/ligands/lig_377.pdb
REMARK  5 active torsions:
REMARK  status: ('A' for Active; 'I' for Inactive)
REMARK    1  A    between atoms: C1_1  and  C2_2
REMARK    2  A    between atoms: C7_8  and  N1_9
REMARK    3  A    between atoms: N2_12  and  C9_13
REMARK    4  A    between atoms: C12_16  and  N3_17
REMARK    5  A    between atoms: N4_20  and  C15_21
REMARK                            x       y       z     vdW  Elec       q    Type
REMARK                         _______ _______ _______ _____ _____    ______ ____
ROOT
ATOM      1  N1  UNL     1       8.802  12.419  27.396  0.00  0.00    -0.269 N 
ATOM      2  C8  UNL     1      10.169  12.685  27.736  0.00  0.00    +0.308 C 
ATOM      3  O1  UNL     1      10.975  11.730  27.908  0.00  0.00    -0.252 OA
ATOM      4  N2  UNL     1      10.606  14.043  27.897  0.00  0.00    -0.269 N 
ATOM      5  H7  UNL     1       8.222  13.207  27.029  0.00  0.00    +0.156 HD
ATOM      6  H8  UNL     1       9.869  14.775  28.021  0.00  0.00    +0.156 HD
ENDROOT
BRANCH   1  14
ATOM      7  C1  UNL     1       7.701  11.032  29.770  0.00  0.00    +0.048 C 
ATOM      8  C2  UNL     1       7.765  10.392  28.408  0.00  0.00    +0.006 A 
ATOM      9  C3  UNL     1       7.309   9.069  28.247  0.00  0.00    +0.128 A 
ATOM     10  F1  UNL     1       6.846   8.362  29.309  0.00  0.00    -0.205 F 
ATOM     11  C4  UNL     1       7.316   8.468  26.984  0.00  0.00    +0.039 A 
ATOM     12  C5  UNL     1       7.777   9.175  25.874  0.00  0.00    +0.005 A 
ATOM     13  C6  UNL     1       8.255  10.478  26.022  0.00  0.00    +0.024 A 
ATOM     14  C7  UNL     1       8.281  11.086  27.285  0.00  0.00    +0.040 A 
ENDBRANCH   1  14
BRANCH   4  15
ATOM     15  C9  UNL     1      11.983  14.439  28.023  0.00  0.00    +0.035 A 
ATOM     16  C10 UNL     1      12.747  14.647  26.867  0.00  0.00    +0.025 A 
ATOM     17  C11 UNL     1      14.093  15.009  26.961  0.00  0.00    +0.025 A 
ATOM     18  C12 UNL     1      14.707  15.159  28.217  0.00  0.00    +0.030 A 
ATOM     19  C18 UNL     1      13.945  14.921  29.375  0.00  0.00    +0.025 A 
ATOM     20  C19 UNL     1      12.598  14.560  29.280  0.00  0.00    +0.025 A 
BRANCH  18  21
ATOM     21  N3  UNL     1      16.101  15.527  28.314  0.00  0.00    -0.327 N 
ATOM     22  C13 UNL     1      16.523  16.558  29.272  0.00  0.00    +0.120 C 
ATOM     23  C14 UNL     1      17.899  17.112  28.897  0.00  0.00    +0.103 C 
ATOM     24  N4  UNL     1      18.900  16.029  28.812  0.00  0.00    -0.302 NA
ATOM     25  C15 UNL     1      20.172  16.553  28.291  0.00  0.00    +0.105 C 
ATOM     26  C16 UNL     1      18.453  14.829  28.052  0.00  0.00    +0.103 C 
ATOM     27  C17 UNL     1      17.086  14.990  27.367  0.00  0.00    +0.120 C 
ENDBRANCH  18  21
ENDBRANCH   4  15
TORSDOF 3
ENDMDL
MODEL 7
REMARK VINA RESULT:    -6.152      9.798     13.580
REMARK INTER + INTRA:          -7.761
REMARK INTER:                  -7.319
REMARK INTRA:                  -0.441
REMARK UNBOUND:                -0.529
REMARK  Name = /home/qwerty/github/datacon2025hack/step_04_hit_selection/docking/ligands/lig_377.pdb
REMARK  5 active torsions:
REMARK  status: ('A' for Active; 'I' for Inactive)
REMARK    1  A    between atoms: C1_1  and  C2_2
REMARK    2  A    between atoms: C7_8  and  N1_9
REMARK    3  A    between atoms: N2_12  and  C9_13
REMARK    4  A    between atoms: C12_16  and  N3_17
REMARK    5  A    between atoms: N4_20  and  C15_21
REMARK                            x       y       z     vdW  Elec       q    Type
REMARK                         _______ _______ _______ _____ _____    ______ ____
ROOT
ATOM      1  N1  UNL     1      22.310   1.661  29.633  0.00  0.00    -0.269 N 
ATOM      2  C8  UNL     1      21.793   2.299  28.457  0.00  0.00    +0.308 C 
ATOM      3  O1  UNL     1      20.599   2.705  28.431  0.00  0.00    -0.252 OA
ATOM      4  N2  UNL     1      22.638   2.454  27.307  0.00  0.00    -0.269 N 
ATOM      5  H7  UNL     1      23.345   1.553  29.720  0.00  0.00    +0.156 HD
ATOM      6  H8  UNL     1      23.506   1.872  27.265  0.00  0.00    +0.156 HD
ENDROOT
BRANCH   1  14
ATOM      7  C1  UNL     1      22.420   3.490  31.959  0.00  0.00    +0.048 C 
ATOM      8  C2  UNL     1      21.549   2.262  31.928  0.00  0.00    +0.006 A 
ATOM      9  C3  UNL     1      20.767   1.942  33.055  0.00  0.00    +0.128 A 
ATOM     10  F1  UNL     1      20.818   2.712  34.173  0.00  0.00    -0.205 F 
ATOM     11  C4  UNL     1      19.917   0.833  33.034  0.00  0.00    +0.039 A 
ATOM     12  C5  UNL     1      19.837   0.032  31.895  0.00  0.00    +0.005 A 
ATOM     13  C6  UNL     1      20.624   0.321  30.780  0.00  0.00    +0.024 A 
ATOM     14  C7  UNL     1      21.502   1.414  30.793  0.00  0.00    +0.040 A 
ENDBRANCH   1  14
BRANCH   4  15
ATOM     15  C9  UNL     1      22.305   3.259  26.162  0.00  0.00    +0.035 A 
ATOM     16  C10 UNL     1      21.408   2.760  25.209  0.00  0.00    +0.025 A 
ATOM     17  C11 UNL     1      21.085   3.511  24.075  0.00  0.00    +0.025 A 
ATOM     18  C12 UNL     1      21.666   4.774  23.866  0.00  0.00    +0.030 A 
ATOM     19  C18 UNL     1      22.590   5.259  24.810  0.00  0.00    +0.025 A 
ATOM     20  C19 UNL     1      22.910   4.507  25.944  0.00  0.00    +0.025 A 
BRANCH  18  21
ATOM     21  N3  UNL     1      21.339   5.548  22.690  0.00  0.00    -0.327 N 
ATOM     22  C13 UNL     1      20.027   5.388  22.049  0.00  0.00    +0.120 C 
ATOM     23  C14 UNL     1      20.060   5.916  20.613  0.00  0.00    +0.103 C 
ATOM     24  N4  UNL     1      20.496   7.327  20.580  0.00  0.00    -0.302 NA
ATOM     25  C15 UNL     1      20.682   7.768  19.188  0.00  0.00    +0.105 C 
ATOM     26  C16 UNL     1      21.694   7.627  21.411  0.00  0.00    +0.103 C 
ATOM     27  C17 UNL     1      22.352   6.388  22.039  0.00  0.00    +0.120 C 
ENDBRANCH  18  21
ENDBRANCH   4  15
TORSDOF 3
ENDMDL
MODEL 8
REMARK VINA RESULT:    -6.128      9.042     13.128
REMARK INTER + INTRA:          -7.732
REMARK INTER:                  -7.225
REMARK INTRA:                  -0.507
REMARK UNBOUND:                -0.529
REMARK  Name = /home/qwerty/github/datacon2025hack/step_04_hit_selection/docking/ligands/lig_377.pdb
REMARK  5 active torsions:
REMARK  status: ('A' for Active; 'I' for Inactive)
REMARK    1  A    between atoms: C1_1  and  C2_2
REMARK    2  A    between atoms: C7_8  and  N1_9
REMARK    3  A    between atoms: N2_12  and  C9_13
REMARK    4  A    between atoms: C12_16  and  N3_17
REMARK    5  A    between atoms: N4_20  and  C15_21
REMARK                            x       y       z     vdW  Elec       q    Type
REMARK                         _______ _______ _______ _____ _____    ______ ____
ROOT
ATOM      1  N1  UNL     1       7.116   0.791  29.165  0.00  0.00    -0.269 N 
ATOM      2  C8  UNL     1       7.427   2.179  29.339  0.00  0.00    +0.308 C 
ATOM      3  O1  UNL     1       8.542   2.522  29.821  0.00  0.00    -0.252 OA
ATOM      4  N2  UNL     1       6.456   3.172  28.978  0.00  0.00    -0.269 N 
ATOM      5  H7  UNL     1       6.306   0.540  28.554  0.00  0.00    +0.156 HD
ATOM      6  H8  UNL     1       5.468   2.855  28.850  0.00  0.00    +0.156 HD
ENDROOT
BRANCH   1  14
ATOM      7  C1  UNL     1       6.668  -0.686  31.692  0.00  0.00    +0.048 C 
ATOM      8  C2  UNL     1       7.832  -0.967  30.778  0.00  0.00    +0.006 A 
ATOM      9  C3  UNL     1       8.771  -1.953  31.141  0.00  0.00    +0.128 A 
ATOM     10  F1  UNL     1       8.650  -2.625  32.315  0.00  0.00    -0.205 F 
ATOM     11  C4  UNL     1       9.835  -2.264  30.288  0.00  0.00    +0.039 A 
ATOM     12  C5  UNL     1       9.977  -1.596  29.072  0.00  0.00    +0.005 A 
ATOM     13  C6  UNL     1       9.069  -0.599  28.711  0.00  0.00    +0.024 A 
ATOM     14  C7  UNL     1       8.013  -0.256  29.565  0.00  0.00    +0.040 A 
ENDBRANCH   1  14
BRANCH   4  15
ATOM     15  C9  UNL     1       6.730   4.582  28.905  0.00  0.00    +0.035 A 
ATOM     16  C10 UNL     1       7.187   5.133  27.700  0.00  0.00    +0.025 A 
ATOM     17  C11 UNL     1       7.484   6.495  27.609  0.00  0.00    +0.025 A 
ATOM     18  C12 UNL     1       7.341   7.335  28.728  0.00  0.00    +0.030 A 
ATOM     19  C18 UNL     1       6.910   6.774  29.944  0.00  0.00    +0.025 A 
ATOM     20  C19 UNL     1       6.613   5.411  30.034  0.00  0.00    +0.025 A 
BRANCH  18  21
ATOM     21  N3  UNL     1       7.654   8.742  28.635  0.00  0.00    -0.327 N 
ATOM     22  C13 UNL     1       7.864   9.529  29.857  0.00  0.00    +0.120 C 
ATOM     23  C14 UNL     1       7.717  11.025  29.567  0.00  0.00    +0.103 C 
ATOM     24  N4  UNL     1       8.646  11.449  28.500  0.00  0.00    -0.302 NA
ATOM     25  C15 UNL     1       8.377  12.845  28.120  0.00  0.00    +0.105 C 
ATOM     26  C16 UNL     1       8.673  10.556  27.309  0.00  0.00    +0.103 C 
ATOM     27  C17 UNL     1       7.624   9.433  27.340  0.00  0.00    +0.120 C 
ENDBRANCH  18  21
ENDBRANCH   4  15
TORSDOF 3
ENDMDL
MODEL 9
REMARK VINA RESULT:    -6.051     10.129     11.626
REMARK INTER + INTRA:          -7.642
REMARK INTER:                  -7.163
REMARK INTRA:                  -0.479
REMARK UNBOUND:                -0.529
REMARK  Name = /home/qwerty/github/datacon2025hack/step_04_hit_selection/docking/ligands/lig_377.pdb
REMARK  5 active torsions:
REMARK  status: ('A' for Active; 'I' for Inactive)
REMARK    1  A    between atoms: C1_1  and  C2_2
REMARK    2  A    between atoms: C7_8  and  N1_9
REMARK    3  A    between atoms: N2_12  and  C9_13
REMARK    4  A    between atoms: C12_16  and  N3_17
REMARK    5  A    between atoms: N4_20  and  C15_21
REMARK                            x       y       z     vdW  Elec       q    Type
REMARK                         _______ _______ _______ _____ _____    ______ ____
ROOT
ATOM      1  N1  UNL     1       9.004  12.951  29.348  0.00  0.00    -0.269 N 
ATOM      2  C8  UNL     1       8.820  11.539  29.184  0.00  0.00    +0.308 C 
ATOM      3  O1  UNL     1       9.794  10.808  28.852  0.00  0.00    -0.252 OA
ATOM      4  N2  UNL     1       7.519  10.968  29.384  0.00  0.00    -0.269 N 
ATOM      5  H7  UNL     1       8.262  13.491  29.847  0.00  0.00    +0.156 HD
ATOM      6  H8  UNL     1       6.701  11.619  29.382  0.00  0.00    +0.156 HD
ENDROOT
BRANCH   1  14
ATOM      7  C1  UNL     1      10.916  13.419  31.560  0.00  0.00    +0.048 C 
ATOM      8  C2  UNL     1      11.187  13.851  30.143  0.00  0.00    +0.006 A 
ATOM      9  C3  UNL     1      12.385  14.531  29.846  0.00  0.00    +0.128 A 
ATOM     10  F1  UNL     1      13.275  14.825  30.828  0.00  0.00    -0.205 F 
ATOM     11  C4  UNL     1      12.680  14.903  28.531  0.00  0.00    +0.039 A 
ATOM     12  C5  UNL     1      11.787  14.605  27.501  0.00  0.00    +0.005 A 
ATOM     13  C6  UNL     1      10.586  13.954  27.783  0.00  0.00    +0.024 A 
ATOM     14  C7  UNL     1      10.261  13.599  29.100  0.00  0.00    +0.040 A 
ENDBRANCH   1  14
BRANCH   4  15
ATOM     15  C9  UNL     1       7.259   9.555  29.460  0.00  0.00    +0.035 A 
ATOM     16  C10 UNL     1       7.134   8.945  30.715  0.00  0.00    +0.025 A 
ATOM     17  C11 UNL     1       6.905   7.570  30.817  0.00  0.00    +0.025 A 
ATOM     18  C12 UNL     1       6.810   6.773  29.663  0.00  0.00    +0.030 A 
ATOM     19  C18 UNL     1       6.965   7.384  28.405  0.00  0.00    +0.025 A 
ATOM     20  C19 UNL     1       7.193   8.759  28.304  0.00  0.00    +0.025 A 
BRANCH  18  21
ATOM     21  N3  UNL     1       6.580   5.351  29.769  0.00  0.00    -0.327 N 
ATOM     22  C13 UNL     1       5.433   4.848  30.536  0.00  0.00    +0.120 C 
ATOM     23  C14 UNL     1       5.635   3.377  30.907  0.00  0.00    +0.103 C 
ATOM     24  N4  UNL     1       5.865   2.555  29.701  0.00  0.00    -0.302 NA
ATOM     25  C15 UNL     1       6.220   1.180  30.085  0.00  0.00    +0.105 C 
ATOM     26  C16 UNL     1       6.849   3.125  28.740  0.00  0.00    +0.103 C 
ATOM     27  C17 UNL     1       7.560   4.392  29.243  0.00  0.00    +0.120 C 
ENDBRANCH  18  21
ENDBRANCH   4  15
TORSDOF 3
ENDMDL
