MODEL 1
REMARK VINA RESULT:    -6.243      0.000      0.000
REMARK INTER + INTRA:          -8.287
REMARK INTER:                  -7.703
REMARK INTRA:                  -0.584
REMARK UNBOUND:                -0.584
REMARK  Name = /home/qwerty/github/datacon2025hack/step_04_hit_selection/docking/ligands/lig_718.pdb
REMARK  5 active torsions:
REMARK  status: ('A' for Active; 'I' for Inactive)
REMARK    1  A    between atoms: C1_1  and  N1_2
REMARK    2  A    between atoms: N1_2  and  C2_3
REMARK    3  A    between atoms: N1_2  and  C17_22
REMARK    4  A    between atoms: C2_3  and  C3_4
REMARK    5  A    between atoms: C6_9  and  C7_10
REMARK                            x       y       z     vdW  Elec       q    Type
REMARK                         _______ _______ _______ _____ _____    ______ ____
ROOT
ATOM      1  C3  UNL     1       9.931   5.508  20.606  0.00  0.00    -0.015 A 
ATOM      2  C4  UNL     1       9.158   4.442  21.137  0.00  0.00    +0.118 A 
ATOM      3  N2  UNL     1       9.736   3.235  21.417  0.00  0.00    -0.237 NA
ATOM      4  C5  UNL     1      11.060   3.067  21.181  0.00  0.00    +0.139 A 
ATOM      5  N3  UNL     1      11.768   1.951  21.404  0.00  0.00    -0.339 N 
ATOM      6  C6  UNL     1      13.038   2.246  21.023  0.00  0.00    +0.049 A 
ATOM      7  C14 UNL     1      13.118   3.566  20.559  0.00  0.00    +0.037 A 
ATOM      8  C15 UNL     1      11.840   4.063  20.674  0.00  0.00    +0.020 A 
ATOM      9  C16 UNL     1      11.308   5.311  20.372  0.00  0.00    +0.018 A 
ATOM     10  H7  UNL     1      11.397   1.047  21.770  0.00  0.00    +0.167 HD
ENDROOT
BRANCH   6  11
ATOM     11  C7  UNL     1      14.172   1.291  21.095  0.00  0.00    +0.002 A 
ATOM     12  C8  UNL     1      15.027   1.102  19.975  0.00  0.00    +0.014 A 
ATOM     13  C9  UNL     1      16.104   0.198  20.037  0.00  0.00    +0.050 A 
ATOM     14  C10 UNL     1      16.301  -0.497  21.224  0.00  0.00    +0.166 A 
ATOM     15  C11 UNL     1      15.492  -0.327  22.297  0.00  0.00    +0.167 A 
ATOM     16  C12 UNL     1      14.416   0.554  22.280  0.00  0.00    +0.059 A 
ATOM     17  O1  UNL     1      15.921  -1.140  23.330  0.00  0.00    -0.453 OA
ATOM     18  C13 UNL     1      17.070  -1.867  22.873  0.00  0.00    +0.466 C 
ATOM     19  O2  UNL     1      17.278  -1.427  21.524  0.00  0.00    -0.453 OA
ENDBRANCH   6  11
BRANCH   1  20
ATOM     20  C2  UNL     1       9.301   6.844  20.315  0.00  0.00    +0.121 C 
BRANCH  20  22
ATOM     21  C1  UNL     1       9.609   7.914  22.495  0.00  0.00    +0.105 C 
ATOM     22  N1  UNL     1       9.989   7.910  21.070  0.00  0.00    -0.298 NA
BRANCH  22  23
ATOM     23  C17 UNL     1       9.924   9.214  20.358  0.00  0.00    +0.057 C 
ATOM     24  C18 UNL     1      10.805  10.316  20.942  0.00  0.00    +0.020 C 
ATOM     25  C19 UNL     1      11.140   9.725  19.581  0.00  0.00    +0.020 C 
ENDBRANCH  22  23
ENDBRANCH  20  22
ENDBRANCH   1  20
TORSDOF 4
ENDMDL
MODEL 2
REMARK VINA RESULT:    -6.193     14.397     16.002
REMARK INTER + INTRA:          -8.225
REMARK INTER:                  -7.589
REMARK INTRA:                  -0.636
REMARK UNBOUND:                -0.584
REMARK  Name = /home/qwerty/github/datacon2025hack/step_04_hit_selection/docking/ligands/lig_718.pdb
REMARK  5 active torsions:
REMARK  status: ('A' for Active; 'I' for Inactive)
REMARK    1  A    between atoms: C1_1  and  N1_2
REMARK    2  A    between atoms: N1_2  and  C2_3
REMARK    3  A    between atoms: N1_2  and  C17_22
REMARK    4  A    between atoms: C2_3  and  C3_4
REMARK    5  A    between atoms: C6_9  and  C7_10
REMARK                            x       y       z     vdW  Elec       q    Type
REMARK                         _______ _______ _______ _____ _____    ______ ____
ROOT
ATOM      1  C3  UNL     1      21.406   7.468  36.322  0.00  0.00    -0.015 A 
ATOM      2  C4  UNL     1      22.803   7.363  36.096  0.00  0.00    +0.118 A 
ATOM      3  N2  UNL     1      23.303   6.403  35.260  0.00  0.00    -0.237 NA
ATOM      4  C5  UNL     1      22.445   5.551  34.646  0.00  0.00    +0.139 A 
ATOM      5  N3  UNL     1      22.778   4.564  33.802  0.00  0.00    -0.339 N 
ATOM      6  C6  UNL     1      21.604   3.984  33.443  0.00  0.00    +0.049 A 
ATOM      7  C14 UNL     1      20.527   4.621  34.074  0.00  0.00    +0.037 A 
ATOM      8  C15 UNL     1      21.097   5.618  34.833  0.00  0.00    +0.020 A 
ATOM      9  C16 UNL     1      20.532   6.573  35.670  0.00  0.00    +0.018 A 
ATOM     10  H7  UNL     1      23.745   4.299  33.513  0.00  0.00    +0.167 HD
ENDROOT
BRANCH   6  11
ATOM     11  C7  UNL     1      21.495   2.834  32.511  0.00  0.00    +0.002 A 
ATOM     12  C8  UNL     1      20.609   1.759  32.794  0.00  0.00    +0.014 A 
ATOM     13  C9  UNL     1      20.501   0.666  31.915  0.00  0.00    +0.050 A 
ATOM     14  C10 UNL     1      21.286   0.675  30.768  0.00  0.00    +0.166 A 
ATOM     15  C11 UNL     1      22.136   1.692  30.488  0.00  0.00    +0.167 A 
ATOM     16  C12 UNL     1      22.275   2.792  31.329  0.00  0.00    +0.059 A 
ATOM     17  O1  UNL     1      22.780   1.438  29.292  0.00  0.00    -0.453 OA
ATOM     18  C13 UNL     1      22.306   0.180  28.792  0.00  0.00    +0.466 C 
ATOM     19  O2  UNL     1      21.354  -0.273  29.765  0.00  0.00    -0.453 OA
ENDBRANCH   6  11
BRANCH   1  20
ATOM     20  C2  UNL     1      20.851   8.536  37.227  0.00  0.00    +0.121 C 
BRANCH  20  22
ATOM     21  C1  UNL     1      19.519  10.205  36.030  0.00  0.00    +0.105 C 
ATOM     22  N1  UNL     1      19.502   8.936  36.781  0.00  0.00    -0.298 NA
BRANCH  22  23
ATOM     23  C17 UNL     1      18.507   8.825  37.881  0.00  0.00    +0.057 C 
ATOM     24  C18 UNL     1      17.212   9.604  37.664  0.00  0.00    +0.020 C 
ATOM     25  C19 UNL     1      17.187   8.084  37.649  0.00  0.00    +0.020 C 
ENDBRANCH  22  23
ENDBRANCH  20  22
ENDBRANCH   1  20
TORSDOF 4
ENDMDL
MODEL 3
REMARK VINA RESULT:    -6.155      4.217      9.168
REMARK INTER + INTRA:          -8.179
REMARK INTER:                  -7.534
REMARK INTRA:                  -0.645
REMARK UNBOUND:                -0.584
REMARK  Name = /home/qwerty/github/datacon2025hack/step_04_hit_selection/docking/ligands/lig_718.pdb
REMARK  5 active torsions:
REMARK  status: ('A' for Active; 'I' for Inactive)
REMARK    1  A    between atoms: C1_1  and  N1_2
REMARK    2  A    between atoms: N1_2  and  C2_3
REMARK    3  A    between atoms: N1_2  and  C17_22
REMARK    4  A    between atoms: C2_3  and  C3_4
REMARK    5  A    between atoms: C6_9  and  C7_10
REMARK                            x       y       z     vdW  Elec       q    Type
REMARK                         _______ _______ _______ _____ _____    ______ ____
ROOT
ATOM      1  C3  UNL     1      15.746  -0.086  21.380  0.00  0.00    -0.015 A 
ATOM      2  C4  UNL     1      15.747   0.649  20.165  0.00  0.00    +0.118 A 
ATOM      3  N2  UNL     1      14.711   1.486  19.857  0.00  0.00    -0.237 NA
ATOM      4  C5  UNL     1      13.680   1.608  20.728  0.00  0.00    +0.139 A 
ATOM      5  N3  UNL     1      12.598   2.386  20.571  0.00  0.00    -0.339 N 
ATOM      6  C6  UNL     1      11.845   2.187  21.684  0.00  0.00    +0.049 A 
ATOM      7  C14 UNL     1      12.470   1.273  22.543  0.00  0.00    +0.037 A 
ATOM      8  C15 UNL     1      13.639   0.924  21.906  0.00  0.00    +0.020 A 
ATOM      9  C16 UNL     1      14.663   0.060  22.273  0.00  0.00    +0.018 A 
ATOM     10  H7  UNL     1      12.387   2.991  19.747  0.00  0.00    +0.167 HD
ENDROOT
BRANCH   6  11
ATOM     11  C7  UNL     1      10.543   2.852  21.937  0.00  0.00    +0.002 A 
ATOM     12  C8  UNL     1       9.773   2.517  23.084  0.00  0.00    +0.014 A 
ATOM     13  C9  UNL     1       8.538   3.145  23.330  0.00  0.00    +0.050 A 
ATOM     14  C10 UNL     1       8.101   4.097  22.418  0.00  0.00    +0.166 A 
ATOM     15  C11 UNL     1       8.824   4.424  21.319  0.00  0.00    +0.167 A 
ATOM     16  C12 UNL     1      10.049   3.829  21.037  0.00  0.00    +0.059 A 
ATOM     17  O1  UNL     1       8.153   5.393  20.598  0.00  0.00    -0.453 OA
ATOM     18  C13 UNL     1       6.930   5.690  21.287  0.00  0.00    +0.466 C 
ATOM     19  O2  UNL     1       6.937   4.841  22.443  0.00  0.00    -0.453 OA
ENDBRANCH   6  11
BRANCH   1  20
ATOM     20  C2  UNL     1      16.894  -0.994  21.731  0.00  0.00    +0.121 C 
BRANCH  20  22
ATOM     21  C1  UNL     1      18.043  -0.090  23.695  0.00  0.00    +0.105 C 
ATOM     22  N1  UNL     1      17.059  -1.069  23.196  0.00  0.00    -0.298 NA
BRANCH  22  23
ATOM     23  C17 UNL     1      17.222  -2.474  23.657  0.00  0.00    +0.057 C 
ATOM     24  C18 UNL     1      17.674  -2.632  25.107  0.00  0.00    +0.020 C 
ATOM     25  C19 UNL     1      16.268  -3.053  24.706  0.00  0.00    +0.020 C 
ENDBRANCH  22  23
ENDBRANCH  20  22
ENDBRANCH   1  20
TORSDOF 4
ENDMDL
MODEL 4
REMARK VINA RESULT:    -5.990      9.282     10.835
REMARK INTER + INTRA:          -7.975
REMARK INTER:                  -7.241
REMARK INTRA:                  -0.734
REMARK UNBOUND:                -0.584
REMARK  Name = /home/qwerty/github/datacon2025hack/step_04_hit_selection/docking/ligands/lig_718.pdb
REMARK  5 active torsions:
REMARK  status: ('A' for Active; 'I' for Inactive)
REMARK    1  A    between atoms: C1_1  and  N1_2
REMARK    2  A    between atoms: N1_2  and  C2_3
REMARK    3  A    between atoms: N1_2  and  C17_22
REMARK    4  A    between atoms: C2_3  and  C3_4
REMARK    5  A    between atoms: C6_9  and  C7_10
REMARK                            x       y       z     vdW  Elec       q    Type
REMARK                         _______ _______ _______ _____ _____    ______ ____
ROOT
ATOM      1  C3  UNL     1      21.503   7.153  21.139  0.00  0.00    -0.015 A 
ATOM      2  C4  UNL     1      20.783   6.140  20.454  0.00  0.00    +0.118 A 
ATOM      3  N2  UNL     1      20.516   4.943  21.059  0.00  0.00    -0.237 NA
ATOM      4  C5  UNL     1      20.948   4.735  22.327  0.00  0.00    +0.139 A 
ATOM      5  N3  UNL     1      20.765   3.623  23.053  0.00  0.00    -0.339 N 
ATOM      6  C6  UNL     1      21.363   3.868  24.248  0.00  0.00    +0.049 A 
ATOM      7  C14 UNL     1      21.924   5.152  24.262  0.00  0.00    +0.037 A 
ATOM      8  C15 UNL     1      21.640   5.680  23.023  0.00  0.00    +0.020 A 
ATOM      9  C16 UNL     1      21.939   6.915  22.460  0.00  0.00    +0.018 A 
ATOM     10  H7  UNL     1      20.282   2.753  22.739  0.00  0.00    +0.167 HD
ENDROOT
BRANCH   6  11
ATOM     11  C7  UNL     1      21.407   2.899  25.371  0.00  0.00    +0.002 A 
ATOM     12  C8  UNL     1      20.399   1.905  25.505  0.00  0.00    +0.014 A 
ATOM     13  C9  UNL     1      20.435   0.982  26.566  0.00  0.00    +0.050 A 
ATOM     14  C10 UNL     1      21.484   1.077  27.473  0.00  0.00    +0.166 A 
ATOM     15  C11 UNL     1      22.450   2.021  27.358  0.00  0.00    +0.167 A 
ATOM     16  C12 UNL     1      22.453   2.952  26.325  0.00  0.00    +0.059 A 
ATOM     17  O1  UNL     1      23.359   1.878  28.389  0.00  0.00    -0.453 OA
ATOM     18  C13 UNL     1      22.934   0.776  29.204  0.00  0.00    +0.466 C 
ATOM     19  O2  UNL     1      21.734   0.294  28.584  0.00  0.00    -0.453 OA
ENDBRANCH   6  11
BRANCH   1  20
ATOM     20  C2  UNL     1      21.781   8.478  20.482  0.00  0.00    +0.121 C 
BRANCH  20  22
ATOM     21  C1  UNL     1      23.426  10.285  20.627  0.00  0.00    +0.105 C 
ATOM     22  N1  UNL     1      23.210   8.827  20.615  0.00  0.00    -0.298 NA
BRANCH  22  23
ATOM     23  C17 UNL     1      24.054   8.034  19.682  0.00  0.00    +0.057 C 
ATOM     24  C18 UNL     1      25.539   8.391  19.691  0.00  0.00    +0.020 C 
ATOM     25  C19 UNL     1      25.085   7.045  20.233  0.00  0.00    +0.020 C 
ENDBRANCH  22  23
ENDBRANCH  20  22
ENDBRANCH   1  20
TORSDOF 4
ENDMDL
MODEL 5
REMARK VINA RESULT:    -5.986     17.459     19.616
REMARK INTER + INTRA:          -7.970
REMARK INTER:                  -7.445
REMARK INTRA:                  -0.524
REMARK UNBOUND:                -0.584
REMARK  Name = /home/qwerty/github/datacon2025hack/step_04_hit_selection/docking/ligands/lig_718.pdb
REMARK  5 active torsions:
REMARK  status: ('A' for Active; 'I' for Inactive)
REMARK    1  A    between atoms: C1_1  and  N1_2
REMARK    2  A    between atoms: N1_2  and  C2_3
REMARK    3  A    between atoms: N1_2  and  C17_22
REMARK    4  A    between atoms: C2_3  and  C3_4
REMARK    5  A    between atoms: C6_9  and  C7_10
REMARK                            x       y       z     vdW  Elec       q    Type
REMARK                         _______ _______ _______ _____ _____    ______ ____
ROOT
ATOM      1  C3  UNL     1      21.718   7.719  36.578  0.00  0.00    -0.015 A 
ATOM      2  C4  UNL     1      20.932   7.002  37.518  0.00  0.00    +0.118 A 
ATOM      3  N2  UNL     1      19.701   7.463  37.893  0.00  0.00    -0.237 NA
ATOM      4  C5  UNL     1      19.237   8.617  37.354  0.00  0.00    +0.139 A 
ATOM      5  N3  UNL     1      18.056   9.195  37.617  0.00  0.00    -0.339 N 
ATOM      6  C6  UNL     1      18.026  10.319  36.855  0.00  0.00    +0.049 A 
ATOM      7  C14 UNL     1      19.206  10.439  36.108  0.00  0.00    +0.037 A 
ATOM      8  C15 UNL     1      19.957   9.336  36.447  0.00  0.00    +0.020 A 
ATOM      9  C16 UNL     1      21.213   8.916  36.028  0.00  0.00    +0.018 A 
ATOM     10  H7  UNL     1      17.336   8.850  38.288  0.00  0.00    +0.167 HD
ENDROOT
BRANCH   6  11
ATOM     11  C7  UNL     1      16.892  11.277  36.830  0.00  0.00    +0.002 A 
ATOM     12  C8  UNL     1      15.578  10.846  37.158  0.00  0.00    +0.014 A 
ATOM     13  C9  UNL     1      14.499  11.749  37.137  0.00  0.00    +0.050 A 
ATOM     14  C10 UNL     1      14.763  13.068  36.787  0.00  0.00    +0.166 A 
ATOM     15  C11 UNL     1      16.011  13.490  36.471  0.00  0.00    +0.167 A 
ATOM     16  C12 UNL     1      17.106  12.632  36.478  0.00  0.00    +0.059 A 
ATOM     17  O1  UNL     1      15.978  14.839  36.168  0.00  0.00    -0.453 OA
ATOM     18  C13 UNL     1      14.622  15.289  36.300  0.00  0.00    +0.466 C 
ATOM     19  O2  UNL     1      13.880  14.127  36.697  0.00  0.00    -0.453 OA
ENDBRANCH   6  11
BRANCH   1  20
ATOM     20  C2  UNL     1      23.066   7.203  36.149  0.00  0.00    +0.121 C 
BRANCH  20  22
ATOM     21  C1  UNL     1      22.231   5.629  34.470  0.00  0.00    +0.105 C 
ATOM     22  N1  UNL     1      23.043   6.835  34.720  0.00  0.00    -0.298 NA
BRANCH  22  23
ATOM     23  C17 UNL     1      24.407   6.856  34.128  0.00  0.00    +0.057 C 
ATOM     24  C18 UNL     1      24.484   6.428  32.664  0.00  0.00    +0.020 C 
ATOM     25  C19 UNL     1      24.756   7.877  33.040  0.00  0.00    +0.020 C 
ENDBRANCH  22  23
ENDBRANCH  20  22
ENDBRANCH   1  20
TORSDOF 4
ENDMDL
MODEL 6
REMARK VINA RESULT:    -5.982      5.245      7.650
REMARK INTER + INTRA:          -7.965
REMARK INTER:                  -7.279
REMARK INTRA:                  -0.686
REMARK UNBOUND:                -0.584
REMARK  Name = /home/qwerty/github/datacon2025hack/step_04_hit_selection/docking/ligands/lig_718.pdb
REMARK  5 active torsions:
REMARK  status: ('A' for Active; 'I' for Inactive)
REMARK    1  A    between atoms: C1_1  and  N1_2
REMARK    2  A    between atoms: N1_2  and  C2_3
REMARK    3  A    between atoms: N1_2  and  C17_22
REMARK    4  A    between atoms: C2_3  and  C3_4
REMARK    5  A    between atoms: C6_9  and  C7_10
REMARK                            x       y       z     vdW  Elec       q    Type
REMARK                         _______ _______ _______ _____ _____    ______ ____
ROOT
ATOM      1  C3  UNL     1      15.445   0.704  21.775  0.00  0.00    -0.015 A 
ATOM      2  C4  UNL     1      15.943  -0.625  21.810  0.00  0.00    +0.118 A 
ATOM      3  N2  UNL     1      17.051  -0.934  22.550  0.00  0.00    -0.237 NA
ATOM      4  C5  UNL     1      17.669   0.046  23.253  0.00  0.00    +0.139 A 
ATOM      5  N3  UNL     1      18.757  -0.098  24.023  0.00  0.00    -0.339 N 
ATOM      6  C6  UNL     1      19.012   1.138  24.523  0.00  0.00    +0.049 A 
ATOM      7  C14 UNL     1      18.068   2.062  24.057  0.00  0.00    +0.037 A 
ATOM      8  C15 UNL     1      17.223   1.334  23.250  0.00  0.00    +0.020 A 
ATOM      9  C16 UNL     1      16.102   1.706  22.518  0.00  0.00    +0.018 A 
ATOM     10  H7  UNL     1      19.295  -0.980  24.174  0.00  0.00    +0.167 HD
ENDROOT
BRANCH   6  11
ATOM     11  C7  UNL     1      20.141   1.450  25.436  0.00  0.00    +0.002 A 
ATOM     12  C8  UNL     1      21.029   2.521  25.143  0.00  0.00    +0.014 A 
ATOM     13  C9  UNL     1      22.100   2.823  26.004  0.00  0.00    +0.050 A 
ATOM     14  C10 UNL     1      22.259   2.041  27.142  0.00  0.00    +0.166 A 
ATOM     15  C11 UNL     1      21.420   1.016  27.431  0.00  0.00    +0.167 A 
ATOM     16  C12 UNL     1      20.349   0.683  26.608  0.00  0.00    +0.059 A 
ATOM     17  O1  UNL     1      21.813   0.420  28.614  0.00  0.00    -0.453 OA
ATOM     18  C13 UNL     1      22.972   1.114  29.096  0.00  0.00    +0.466 C 
ATOM     19  O2  UNL     1      23.222   2.141  28.127  0.00  0.00    -0.453 OA
ENDBRANCH   6  11
BRANCH   1  20
ATOM     20  C2  UNL     1      14.214   1.043  20.977  0.00  0.00    +0.121 C 
BRANCH  20  22
ATOM     21  C1  UNL     1      12.568   2.712  21.680  0.00  0.00    +0.105 C 
ATOM     22  N1  UNL     1      13.903   2.481  21.100  0.00  0.00    -0.298 NA
BRANCH  22  23
ATOM     23  C17 UNL     1      14.225   3.219  19.849  0.00  0.00    +0.057 C 
ATOM     24  C18 UNL     1      13.990   4.727  19.909  0.00  0.00    +0.020 C 
ATOM     25  C19 UNL     1      15.410   4.189  19.814  0.00  0.00    +0.020 C 
ENDBRANCH  22  23
ENDBRANCH  20  22
ENDBRANCH   1  20
TORSDOF 4
ENDMDL
MODEL 7
REMARK VINA RESULT:    -5.980     14.013     16.321
REMARK INTER + INTRA:          -7.962
REMARK INTER:                  -7.354
REMARK INTRA:                  -0.608
REMARK UNBOUND:                -0.584
REMARK  Name = /home/qwerty/github/datacon2025hack/step_04_hit_selection/docking/ligands/lig_718.pdb
REMARK  5 active torsions:
REMARK  status: ('A' for Active; 'I' for Inactive)
REMARK    1  A    between atoms: C1_1  and  N1_2
REMARK    2  A    between atoms: N1_2  and  C2_3
REMARK    3  A    between atoms: N1_2  and  C17_22
REMARK    4  A    between atoms: C2_3  and  C3_4
REMARK    5  A    between atoms: C6_9  and  C7_10
REMARK                            x       y       z     vdW  Elec       q    Type
REMARK                         _______ _______ _______ _____ _____    ______ ____
ROOT
ATOM      1  C3  UNL     1      23.168  13.293  21.695  0.00  0.00    -0.015 A 
ATOM      2  C4  UNL     1      24.481  13.748  21.985  0.00  0.00    +0.118 A 
ATOM      3  N2  UNL     1      24.812  14.162  23.245  0.00  0.00    -0.237 NA
ATOM      4  C5  UNL     1      23.869  14.132  24.218  0.00  0.00    +0.139 A 
ATOM      5  N3  UNL     1      24.038  14.501  25.496  0.00  0.00    -0.339 N 
ATOM      6  C6  UNL     1      22.834  14.301  26.092  0.00  0.00    +0.049 A 
ATOM      7  C14 UNL     1      21.906  13.800  25.170  0.00  0.00    +0.037 A 
ATOM      8  C15 UNL     1      22.597  13.701  23.984  0.00  0.00    +0.020 A 
ATOM      9  C16 UNL     1      22.204  13.267  22.724  0.00  0.00    +0.018 A 
ATOM     10  H7  UNL     1      24.913  14.884  25.918  0.00  0.00    +0.167 HD
ENDROOT
BRANCH   6  11
ATOM     11  C7  UNL     1      22.558  14.582  27.524  0.00  0.00    +0.002 A 
ATOM     12  C8  UNL     1      23.027  13.699  28.534  0.00  0.00    +0.014 A 
ATOM     13  C9  UNL     1      22.770  13.959  29.893  0.00  0.00    +0.050 A 
ATOM     14  C10 UNL     1      22.045  15.102  30.209  0.00  0.00    +0.166 A 
ATOM     15  C11 UNL     1      21.590  15.950  29.255  0.00  0.00    +0.167 A 
ATOM     16  C12 UNL     1      21.822  15.732  27.901  0.00  0.00    +0.059 A 
ATOM     17  O1  UNL     1      20.909  16.993  29.853  0.00  0.00    -0.453 OA
ATOM     18  C13 UNL     1      20.936  16.784  31.272  0.00  0.00    +0.466 C 
ATOM     19  O2  UNL     1      21.671  15.566  31.455  0.00  0.00    -0.453 OA
ENDBRANCH   6  11
BRANCH   1  20
ATOM     20  C2  UNL     1      22.806  12.818  20.313  0.00  0.00    +0.121 C 
BRANCH  20  22
ATOM     21  C1  UNL     1      21.955  10.523  20.330  0.00  0.00    +0.105 C 
ATOM     22  N1  UNL     1      21.609  11.956  20.364  0.00  0.00    -0.298 NA
BRANCH  22  23
ATOM     23  C17 UNL     1      20.565  12.413  19.408  0.00  0.00    +0.057 C 
ATOM     24  C18 UNL     1      19.412  11.435  19.192  0.00  0.00    +0.020 C 
ATOM     25  C19 UNL     1      19.159  12.751  19.912  0.00  0.00    +0.020 C 
ENDBRANCH  22  23
ENDBRANCH  20  22
ENDBRANCH   1  20
TORSDOF 4
ENDMDL
MODEL 8
REMARK VINA RESULT:    -5.799     16.596     17.532
REMARK INTER + INTRA:          -7.739
REMARK INTER:                  -7.092
REMARK INTRA:                  -0.647
REMARK UNBOUND:                -0.584
REMARK  Name = /home/qwerty/github/datacon2025hack/step_04_hit_selection/docking/ligands/lig_718.pdb
REMARK  5 active torsions:
REMARK  status: ('A' for Active; 'I' for Inactive)
REMARK    1  A    between atoms: C1_1  and  N1_2
REMARK    2  A    between atoms: N1_2  and  C2_3
REMARK    3  A    between atoms: N1_2  and  C17_22
REMARK    4  A    between atoms: C2_3  and  C3_4
REMARK    5  A    between atoms: C6_9  and  C7_10
REMARK                            x       y       z     vdW  Elec       q    Type
REMARK                         _______ _______ _______ _____ _____    ______ ____
ROOT
ATOM      1  C3  UNL     1      13.359  12.662  36.548  0.00  0.00    -0.015 A 
ATOM      2  C4  UNL     1      14.151  13.801  36.849  0.00  0.00    +0.118 A 
ATOM      3  N2  UNL     1      15.512  13.702  36.927  0.00  0.00    -0.237 NA
ATOM      4  C5  UNL     1      16.099  12.500  36.712  0.00  0.00    +0.139 A 
ATOM      5  N3  UNL     1      17.415  12.243  36.750  0.00  0.00    -0.339 N 
ATOM      6  C6  UNL     1      17.533  10.918  36.474  0.00  0.00    +0.049 A 
ATOM      7  C14 UNL     1      16.271  10.346  36.261  0.00  0.00    +0.037 A 
ATOM      8  C15 UNL     1      15.378  11.381  36.418  0.00  0.00    +0.020 A 
ATOM      9  C16 UNL     1      13.992  11.422  36.324  0.00  0.00    +0.018 A 
ATOM     10  H7  UNL     1      18.171  12.927  36.972  0.00  0.00    +0.167 HD
ENDROOT
BRANCH   6  11
ATOM     11  C7  UNL     1      18.826  10.193  36.413  0.00  0.00    +0.002 A 
ATOM     12  C8  UNL     1      19.854  10.628  35.532  0.00  0.00    +0.014 A 
ATOM     13  C9  UNL     1      21.084   9.946  35.470  0.00  0.00    +0.050 A 
ATOM     14  C10 UNL     1      21.255   8.840  36.294  0.00  0.00    +0.166 A 
ATOM     15  C11 UNL     1      20.282   8.414  37.135  0.00  0.00    +0.167 A 
ATOM     16  C12 UNL     1      19.053   9.058  37.230  0.00  0.00    +0.059 A 
ATOM     17  O1  UNL     1      20.726   7.303  37.828  0.00  0.00    -0.453 OA
ATOM     18  C13 UNL     1      22.061   7.013  37.390  0.00  0.00    +0.466 C 
ATOM     19  O2  UNL     1      22.359   8.017  36.411  0.00  0.00    -0.453 OA
ENDBRANCH   6  11
BRANCH   1  20
ATOM     20  C2  UNL     1      11.861  12.773  36.443  0.00  0.00    +0.121 C 
BRANCH  20  22
ATOM     21  C1  UNL     1      10.130  14.374  35.786  0.00  0.00    +0.105 C 
ATOM     22  N1  UNL     1      11.491  13.870  35.527  0.00  0.00    -0.298 NA
BRANCH  22  23
ATOM     23  C17 UNL     1      11.823  13.539  34.115  0.00  0.00    +0.057 C 
ATOM     24  C18 UNL     1      11.290  14.524  33.077  0.00  0.00    +0.020 C 
ATOM     25  C19 UNL     1      12.787  14.429  33.325  0.00  0.00    +0.020 C 
ENDBRANCH  22  23
ENDBRANCH  20  22
ENDBRANCH   1  20
TORSDOF 4
ENDMDL
MODEL 9
REMARK VINA RESULT:    -5.758     12.335     14.969
REMARK INTER + INTRA:          -7.689
REMARK INTER:                  -7.055
REMARK INTRA:                  -0.633
REMARK UNBOUND:                -0.584
REMARK  Name = /home/qwerty/github/datacon2025hack/step_04_hit_selection/docking/ligands/lig_718.pdb
REMARK  5 active torsions:
REMARK  status: ('A' for Active; 'I' for Inactive)
REMARK    1  A    between atoms: C1_1  and  N1_2
REMARK    2  A    between atoms: N1_2  and  C2_3
REMARK    3  A    between atoms: N1_2  and  C17_22
REMARK    4  A    between atoms: C2_3  and  C3_4
REMARK    5  A    between atoms: C6_9  and  C7_10
REMARK                            x       y       z     vdW  Elec       q    Type
REMARK                         _______ _______ _______ _____ _____    ______ ____
ROOT
ATOM      1  C3  UNL     1      21.159   1.840  28.261  0.00  0.00    -0.015 A 
ATOM      2  C4  UNL     1      21.819   0.845  29.028  0.00  0.00    +0.118 A 
ATOM      3  N2  UNL     1      22.307   1.134  30.272  0.00  0.00    -0.237 NA
ATOM      4  C5  UNL     1      22.154   2.387  30.766  0.00  0.00    +0.139 A 
ATOM      5  N3  UNL     1      22.573   2.823  31.962  0.00  0.00    -0.339 N 
ATOM      6  C6  UNL     1      22.202   4.129  32.022  0.00  0.00    +0.049 A 
ATOM      7  C14 UNL     1      21.542   4.506  30.845  0.00  0.00    +0.037 A 
ATOM      8  C15 UNL     1      21.526   3.372  30.065  0.00  0.00    +0.020 A 
ATOM      9  C16 UNL     1      21.008   3.136  28.797  0.00  0.00    +0.018 A 
ATOM     10  H7  UNL     1      23.096   2.267  32.674  0.00  0.00    +0.167 HD
ENDROOT
BRANCH   6  11
ATOM     11  C7  UNL     1      22.468   5.017  33.181  0.00  0.00    +0.002 A 
ATOM     12  C8  UNL     1      23.763   5.570  33.382  0.00  0.00    +0.014 A 
ATOM     13  C9  UNL     1      24.022   6.414  34.478  0.00  0.00    +0.050 A 
ATOM     14  C10 UNL     1      22.974   6.685  35.350  0.00  0.00    +0.166 A 
ATOM     15  C11 UNL     1      21.737   6.162  35.170  0.00  0.00    +0.167 A 
ATOM     16  C12 UNL     1      21.437   5.324  34.102  0.00  0.00    +0.059 A 
ATOM     17  O1  UNL     1      20.901   6.600  36.180  0.00  0.00    -0.453 OA
ATOM     18  C13 UNL     1      21.664   7.448  37.050  0.00  0.00    +0.466 C 
ATOM     19  O2  UNL     1      22.982   7.475  36.483  0.00  0.00    -0.453 OA
ENDBRANCH   6  11
BRANCH   1  20
ATOM     20  C2  UNL     1      20.603   1.519  26.899  0.00  0.00    +0.121 C 
BRANCH  20  22
ATOM     21  C1  UNL     1      19.069   2.889  25.573  0.00  0.00    +0.105 C 
ATOM     22  N1  UNL     1      20.435   2.755  26.109  0.00  0.00    -0.298 NA
BRANCH  22  23
ATOM     23  C17 UNL     1      21.553   2.943  25.145  0.00  0.00    +0.057 C 
ATOM     24  C18 UNL     1      21.730   4.370  24.632  0.00  0.00    +0.020 C 
ATOM     25  C19 UNL     1      22.782   3.763  25.548  0.00  0.00    +0.020 C 
ENDBRANCH  22  23
ENDBRANCH  20  22
ENDBRANCH   1  20
TORSDOF 4
ENDMDL
