MODEL 1
REMARK VINA RESULT:    -5.858      0.000      0.000
REMARK INTER + INTRA:          -9.001
REMARK INTER:                  -7.912
REMARK INTRA:                  -1.089
REMARK UNBOUND:                -1.089
REMARK  Name = /home/qwerty/github/datacon2025hack/step_04_hit_selection/docking/ligands/lig_236.pdb
REMARK  7 active torsions:
REMARK  status: ('A' for Active; 'I' for Inactive)
REMARK    1  A    between atoms: C1_1  and  N1_2
REMARK    2  A    between atoms: C4_6  and  C5_7
REMARK    3  A    between atoms: C7_10  and  C8_12
REMARK    4  A    between atoms: C10_14  and  C11_15
REMARK    5  A    between atoms: C15_21  and  N5_22
REMARK    6  A    between atoms: N5_22  and  C16_23
REMARK    7  A    between atoms: C16_23  and  C17_24
REMARK                            x       y       z     vdW  Elec       q    Type
REMARK                         _______ _______ _______ _____ _____    ______ ____
ROOT
ATOM      1  C5  UNL     1       9.592   6.958  22.298  0.00  0.00    +0.073 C 
ATOM      2  C6  UNL     1       9.105   7.705  23.544  0.00  0.00    +0.119 C 
ATOM      3  N3  UNL     1       8.350   8.850  23.061  0.00  0.00    -0.294 N 
ATOM      4  C7  UNL     1       7.710   9.836  23.899  0.00  0.00    +0.268 C 
ATOM      5  O1  UNL     1       7.046  10.760  23.356  0.00  0.00    -0.268 OA
ATOM      6  C14 UNL     1       8.271   8.913  21.610  0.00  0.00    +0.127 C 
ATOM      7  C15 UNL     1       8.923   7.634  21.076  0.00  0.00    +0.081 C 
ENDROOT
BRANCH   1  13
ATOM      8  C1  UNL     1      11.335   4.533  21.120  0.00  0.00    +0.150 C 
ATOM      9  N1  UNL     1      10.058   4.473  21.829  0.00  0.00    -0.337 N 
ATOM     10  C2  UNL     1       9.423   3.334  22.173  0.00  0.00    +0.199 A 
ATOM     11  N2  UNL     1       8.304   3.556  22.892  0.00  0.00    -0.244 NA
ATOM     12  C3  UNL     1       8.243   4.898  23.014  0.00  0.00    +0.134 A 
ATOM     13  C4  UNL     1       9.323   5.469  22.374  0.00  0.00    +0.044 A 
ENDBRANCH   1  13
BRANCH   4  14
ATOM     14  C8  UNL     1       7.800   9.817  25.376  0.00  0.00    +0.168 A 
ATOM     15  C9  UNL     1       8.525  10.709  26.144  0.00  0.00    +0.081 A 
ATOM     16  C10 UNL     1       8.310  10.277  27.434  0.00  0.00    +0.141 A 
ATOM     17  O2  UNL     1       7.534   9.219  27.406  0.00  0.00    -0.359 OA
ATOM     18  N4  UNL     1       7.206   8.915  26.183  0.00  0.00    -0.073 NA
BRANCH  16  19
ATOM     19  C11 UNL     1       8.891  10.878  28.675  0.00  0.00    +0.058 C 
ATOM     20  C12 UNL     1       7.866  11.513  29.603  0.00  0.00    +0.012 C 
ATOM     21  C13 UNL     1       8.495  10.178  29.966  0.00  0.00    +0.012 C 
ENDBRANCH  16  19
ENDBRANCH   4  14
BRANCH   7  22
ATOM     22  N5  UNL     1       9.883   7.963  20.004  0.00  0.00    -0.311 NA
ATOM     23  H18 UNL     1       9.568   8.823  19.496  0.00  0.00    +0.122 HD
BRANCH  22  24
ATOM     24  C16 UNL     1      11.236   8.185  20.531  0.00  0.00    +0.084 C 
BRANCH  24  25
ATOM     25  C17 UNL     1      11.574   9.676  20.443  0.00  0.00    +0.003 C 
ATOM     26  C18 UNL     1      12.929  10.071  21.009  0.00  0.00    +0.005 C 
ATOM     27  C19 UNL     1      11.656  10.410  21.773  0.00  0.00    +0.005 C 
ENDBRANCH  24  25
ENDBRANCH  22  24
ENDBRANCH   7  22
TORSDOF 6
ENDMDL
MODEL 2
REMARK VINA RESULT:    -5.597      9.305     13.698
REMARK INTER + INTRA:          -8.650
REMARK INTER:                  -7.580
REMARK INTRA:                  -1.070
REMARK UNBOUND:                -1.089
REMARK  Name = /home/qwerty/github/datacon2025hack/step_04_hit_selection/docking/ligands/lig_236.pdb
REMARK  7 active torsions:
REMARK  status: ('A' for Active; 'I' for Inactive)
REMARK    1  A    between atoms: C1_1  and  N1_2
REMARK    2  A    between atoms: C4_6  and  C5_7
REMARK    3  A    between atoms: C7_10  and  C8_12
REMARK    4  A    between atoms: C10_14  and  C11_15
REMARK    5  A    between atoms: C15_21  and  N5_22
REMARK    6  A    between atoms: N5_22  and  C16_23
REMARK    7  A    between atoms: C16_23  and  C17_24
REMARK                            x       y       z     vdW  Elec       q    Type
REMARK                         _______ _______ _______ _____ _____    ______ ____
ROOT
ATOM      1  C5  UNL     1      14.126  11.885  35.462  0.00  0.00    +0.073 C 
ATOM      2  C6  UNL     1      13.533  12.546  34.213  0.00  0.00    +0.119 C 
ATOM      3  N3  UNL     1      12.319  13.216  34.648  0.00  0.00    -0.294 N 
ATOM      4  C7  UNL     1      11.433  13.967  33.791  0.00  0.00    +0.268 C 
ATOM      5  O1  UNL     1      10.432  14.541  34.301  0.00  0.00    -0.268 OA
ATOM      6  C14 UNL     1      12.070  13.082  36.075  0.00  0.00    +0.127 C 
ATOM      7  C15 UNL     1      13.284  12.365  36.670  0.00  0.00    +0.081 C 
ENDROOT
BRANCH   1  13
ATOM      8  C1  UNL     1      16.321  10.262  37.153  0.00  0.00    +0.150 C 
ATOM      9  N1  UNL     1      16.498  11.488  36.375  0.00  0.00    -0.337 N 
ATOM     10  C2  UNL     1      17.677  12.112  36.184  0.00  0.00    +0.199 A 
ATOM     11  N2  UNL     1      17.577  13.176  35.360  0.00  0.00    -0.244 NA
ATOM     12  C3  UNL     1      16.275  13.210  35.010  0.00  0.00    +0.134 A 
ATOM     13  C4  UNL     1      15.607  12.168  35.619  0.00  0.00    +0.044 A 
ENDBRANCH   1  13
BRANCH   4  14
ATOM     14  C8  UNL     1      11.642  14.095  32.332  0.00  0.00    +0.168 A 
ATOM     15  C9  UNL     1      11.091  13.268  31.370  0.00  0.00    +0.081 A 
ATOM     16  C10 UNL     1      11.583  13.772  30.187  0.00  0.00    +0.141 A 
ATOM     17  O2  UNL     1      12.359  14.797  30.450  0.00  0.00    -0.359 OA
ATOM     18  N4  UNL     1      12.415  15.021  31.731  0.00  0.00    -0.073 NA
BRANCH  16  19
ATOM     19  C11 UNL     1      11.320  13.229  28.818  0.00  0.00    +0.058 C 
ATOM     20  C12 UNL     1      10.477  14.136  27.935  0.00  0.00    +0.012 C 
ATOM     21  C13 UNL     1      11.972  14.010  27.688  0.00  0.00    +0.012 C 
ENDBRANCH  16  19
ENDBRANCH   4  14
BRANCH   7  22
ATOM     22  N5  UNL     1      12.845  11.256  37.541  0.00  0.00    -0.311 NA
ATOM     23  H18 UNL     1      13.247  11.378  38.501  0.00  0.00    +0.122 HD
BRANCH  22  24
ATOM     24  C16 UNL     1      11.382  11.185  37.638  0.00  0.00    +0.084 C 
BRANCH  24  25
ATOM     25  C17 UNL     1      10.902   9.848  37.064  0.00  0.00    +0.003 C 
ATOM     26  C18 UNL     1      11.963   9.031  36.345  0.00  0.00    +0.005 C 
ATOM     27  C19 UNL     1      10.887   9.754  35.545  0.00  0.00    +0.005 C 
ENDBRANCH  24  25
ENDBRANCH  22  24
ENDBRANCH   7  22
TORSDOF 6
ENDMDL
MODEL 3
REMARK VINA RESULT:    -5.395     10.748     14.023
REMARK INTER + INTRA:          -8.376
REMARK INTER:                  -7.741
REMARK INTRA:                  -0.635
REMARK UNBOUND:                -1.089
REMARK  Name = /home/qwerty/github/datacon2025hack/step_04_hit_selection/docking/ligands/lig_236.pdb
REMARK  7 active torsions:
REMARK  status: ('A' for Active; 'I' for Inactive)
REMARK    1  A    between atoms: C1_1  and  N1_2
REMARK    2  A    between atoms: C4_6  and  C5_7
REMARK    3  A    between atoms: C7_10  and  C8_12
REMARK    4  A    between atoms: C10_14  and  C11_15
REMARK    5  A    between atoms: C15_21  and  N5_22
REMARK    6  A    between atoms: N5_22  and  C16_23
REMARK    7  A    between atoms: C16_23  and  C17_24
REMARK                            x       y       z     vdW  Elec       q    Type
REMARK                         _______ _______ _______ _____ _____    ______ ____
ROOT
ATOM      1  C5  UNL     1      20.558   2.108  24.969  0.00  0.00    +0.073 C 
ATOM      2  C6  UNL     1      19.495   1.418  24.107  0.00  0.00    +0.119 C 
ATOM      3  N3  UNL     1      18.734   0.567  25.007  0.00  0.00    -0.294 N 
ATOM      4  C7  UNL     1      17.629  -0.275  24.617  0.00  0.00    +0.268 C 
ATOM      5  O1  UNL     1      17.020  -0.933  25.504  0.00  0.00    -0.268 OA
ATOM      6  C14 UNL     1      19.179   0.652  26.389  0.00  0.00    +0.127 C 
ATOM      7  C15 UNL     1      20.250   1.746  26.443  0.00  0.00    +0.081 C 
ENDROOT
BRANCH   1  13
ATOM      8  C1  UNL     1      23.005   4.129  25.458  0.00  0.00    +0.150 C 
ATOM      9  N1  UNL     1      21.656   4.434  24.982  0.00  0.00    -0.337 N 
ATOM     10  C2  UNL     1      21.237   5.654  24.592  0.00  0.00    +0.199 A 
ATOM     11  N2  UNL     1      19.973   5.647  24.120  0.00  0.00    -0.244 NA
ATOM     12  C3  UNL     1      19.589   4.357  24.208  0.00  0.00    +0.134 A 
ATOM     13  C4  UNL     1      20.621   3.603  24.725  0.00  0.00    +0.044 A 
ENDBRANCH   1  13
BRANCH   4  14
ATOM     14  C8  UNL     1      17.173  -0.407  23.215  0.00  0.00    +0.168 A 
ATOM     15  C9  UNL     1      16.568   0.592  22.474  0.00  0.00    +0.081 A 
ATOM     16  C10 UNL     1      16.322  -0.009  21.260  0.00  0.00    +0.141 A 
ATOM     17  O2  UNL     1      16.742  -1.251  21.304  0.00  0.00    -0.359 OA
ATOM     18  N4  UNL     1      17.263  -1.524  22.466  0.00  0.00    -0.073 NA
BRANCH  16  19
ATOM     19  C11 UNL     1      15.650   0.623  20.081  0.00  0.00    +0.058 C 
ATOM     20  C12 UNL     1      14.280   1.211  20.382  0.00  0.00    +0.012 C 
ATOM     21  C13 UNL     1      15.474   2.130  20.182  0.00  0.00    +0.012 C 
ENDBRANCH  16  19
ENDBRANCH   4  14
BRANCH   7  22
ATOM     22  N5  UNL     1      21.436   1.261  27.175  0.00  0.00    -0.311 NA
ATOM     23  H18 UNL     1      22.244   1.162  26.516  0.00  0.00    +0.122 HD
BRANCH  22  24
ATOM     24  C16 UNL     1      21.815   2.170  28.265  0.00  0.00    +0.084 C 
BRANCH  24  25
ATOM     25  C17 UNL     1      22.246   1.346  29.483  0.00  0.00    +0.003 C 
ATOM     26  C18 UNL     1      22.335  -0.154  29.255  0.00  0.00    +0.005 C 
ATOM     27  C19 UNL     1      21.182   0.426  30.063  0.00  0.00    +0.005 C 
ENDBRANCH  24  25
ENDBRANCH  22  24
ENDBRANCH   7  22
TORSDOF 6
ENDMDL
MODEL 4
REMARK VINA RESULT:    -5.327     10.309     12.733
REMARK INTER + INTRA:          -8.285
REMARK INTER:                  -7.135
REMARK INTRA:                  -1.149
REMARK UNBOUND:                -1.089
REMARK  Name = /home/qwerty/github/datacon2025hack/step_04_hit_selection/docking/ligands/lig_236.pdb
REMARK  7 active torsions:
REMARK  status: ('A' for Active; 'I' for Inactive)
REMARK    1  A    between atoms: C1_1  and  N1_2
REMARK    2  A    between atoms: C4_6  and  C5_7
REMARK    3  A    between atoms: C7_10  and  C8_12
REMARK    4  A    between atoms: C10_14  and  C11_15
REMARK    5  A    between atoms: C15_21  and  N5_22
REMARK    6  A    between atoms: N5_22  and  C16_23
REMARK    7  A    between atoms: C16_23  and  C17_24
REMARK                            x       y       z     vdW  Elec       q    Type
REMARK                         _______ _______ _______ _____ _____    ______ ____
ROOT
ATOM      1  C5  UNL     1      18.073   0.826  23.677  0.00  0.00    +0.073 C 
ATOM      2  C6  UNL     1      19.128   1.221  24.715  0.00  0.00    +0.119 C 
ATOM      3  N3  UNL     1      18.899   2.626  25.010  0.00  0.00    -0.294 N 
ATOM      4  C7  UNL     1      19.672   3.416  25.939  0.00  0.00    +0.268 C 
ATOM      5  O1  UNL     1      19.343   4.617  26.140  0.00  0.00    -0.268 OA
ATOM      6  C14 UNL     1      17.772   3.188  24.283  0.00  0.00    +0.127 C 
ATOM      7  C15 UNL     1      17.112   2.031  23.529  0.00  0.00    +0.081 C 
ENDROOT
BRANCH   1  13
ATOM      8  C1  UNL     1      16.938  -1.464  21.733  0.00  0.00    +0.150 C 
ATOM      9  N1  UNL     1      16.856  -1.388  23.191  0.00  0.00    -0.337 N 
ATOM     10  C2  UNL     1      16.329  -2.344  23.981  0.00  0.00    +0.199 A 
ATOM     11  N2  UNL     1      16.451  -2.062  25.295  0.00  0.00    -0.244 NA
ATOM     12  C3  UNL     1      17.097  -0.878  25.327  0.00  0.00    +0.134 A 
ATOM     13  C4  UNL     1      17.360  -0.462  24.038  0.00  0.00    +0.044 A 
ENDBRANCH   1  13
BRANCH   4  14
ATOM     14  C8  UNL     1      20.843   2.882  26.669  0.00  0.00    +0.168 A 
ATOM     15  C9  UNL     1      20.786   2.096  27.805  0.00  0.00    +0.081 A 
ATOM     16  C10 UNL     1      22.110   1.872  28.111  0.00  0.00    +0.141 A 
ATOM     17  O2  UNL     1      22.862   2.487  27.230  0.00  0.00    -0.359 OA
ATOM     18  N4  UNL     1      22.133   3.103  26.345  0.00  0.00    -0.073 NA
BRANCH  16  19
ATOM     19  C11 UNL     1      22.627   1.091  29.279  0.00  0.00    +0.058 C 
ATOM     20  C12 UNL     1      23.047  -0.332  28.944  0.00  0.00    +0.012 C 
ATOM     21  C13 UNL     1      24.102   0.731  29.201  0.00  0.00    +0.012 C 
ENDBRANCH  16  19
ENDBRANCH   4  14
BRANCH   7  22
ATOM     22  N5  UNL     1      16.878   2.408  22.120  0.00  0.00    -0.311 NA
ATOM     23  H18 UNL     1      17.668   2.065  21.525  0.00  0.00    +0.122 HD
BRANCH  22  24
ATOM     24  C16 UNL     1      15.617   1.857  21.609  0.00  0.00    +0.084 C 
BRANCH  24  25
ATOM     25  C17 UNL     1      14.598   1.781  22.751  0.00  0.00    +0.003 C 
ATOM     26  C18 UNL     1      13.802   0.488  22.828  0.00  0.00    +0.005 C 
ATOM     27  C19 UNL     1      13.137   1.763  22.326  0.00  0.00    +0.005 C 
ENDBRANCH  24  25
ENDBRANCH  22  24
ENDBRANCH   7  22
TORSDOF 6
ENDMDL
MODEL 5
REMARK VINA RESULT:    -5.311      2.095      4.586
REMARK INTER + INTRA:          -8.263
REMARK INTER:                  -7.403
REMARK INTRA:                  -0.860
REMARK UNBOUND:                -1.089
REMARK  Name = /home/qwerty/github/datacon2025hack/step_04_hit_selection/docking/ligands/lig_236.pdb
REMARK  7 active torsions:
REMARK  status: ('A' for Active; 'I' for Inactive)
REMARK    1  A    between atoms: C1_1  and  N1_2
REMARK    2  A    between atoms: C4_6  and  C5_7
REMARK    3  A    between atoms: C7_10  and  C8_12
REMARK    4  A    between atoms: C10_14  and  C11_15
REMARK    5  A    between atoms: C15_21  and  N5_22
REMARK    6  A    between atoms: N5_22  and  C16_23
REMARK    7  A    between atoms: C16_23  and  C17_24
REMARK                            x       y       z     vdW  Elec       q    Type
REMARK                         _______ _______ _______ _____ _____    ______ ____
ROOT
ATOM      1  C5  UNL     1       9.345   8.129  22.635  0.00  0.00    +0.073 C 
ATOM      2  C6  UNL     1       9.225   8.973  23.908  0.00  0.00    +0.119 C 
ATOM      3  N3  UNL     1       9.848   8.198  24.968  0.00  0.00    -0.294 N 
ATOM      4  C7  UNL     1       9.957   8.613  26.346  0.00  0.00    +0.268 C 
ATOM      5  O1  UNL     1      10.563   7.867  27.163  0.00  0.00    -0.268 OA
ATOM      6  C14 UNL     1      10.394   6.931  24.507  0.00  0.00    +0.127 C 
ATOM      7  C15 UNL     1      10.232   6.909  22.984  0.00  0.00    +0.081 C 
ENDROOT
BRANCH   1  13
ATOM      8  C1  UNL     1       8.163  10.818  21.336  0.00  0.00    +0.150 C 
ATOM      9  N1  UNL     1       9.323  10.035  20.908  0.00  0.00    -0.337 N 
ATOM     10  C2  UNL     1      10.150  10.376  19.900  0.00  0.00    +0.199 A 
ATOM     11  N2  UNL     1      11.187   9.525  19.765  0.00  0.00    -0.244 NA
ATOM     12  C3  UNL     1      11.006   8.615  20.743  0.00  0.00    +0.134 A 
ATOM     13  C4  UNL     1       9.869   8.928  21.458  0.00  0.00    +0.044 A 
ENDBRANCH   1  13
BRANCH   4  14
ATOM     14  C8  UNL     1       9.385   9.881  26.853  0.00  0.00    +0.168 A 
ATOM     15  C9  UNL     1      10.078  11.069  26.997  0.00  0.00    +0.081 A 
ATOM     16  C10 UNL     1       9.136  11.934  27.507  0.00  0.00    +0.141 A 
ATOM     17  O2  UNL     1       8.001  11.292  27.653  0.00  0.00    -0.359 OA
ATOM     18  N4  UNL     1       8.114  10.054  27.266  0.00  0.00    -0.073 NA
BRANCH  16  19
ATOM     19  C11 UNL     1       9.361  13.366  27.880  0.00  0.00    +0.058 C 
ATOM     20  C12 UNL     1       9.888  13.571  29.292  0.00  0.00    +0.012 C 
ATOM     21  C13 UNL     1      10.817  13.744  28.102  0.00  0.00    +0.012 C 
ENDBRANCH  16  19
ENDBRANCH   4  14
BRANCH   7  22
ATOM     22  N5  UNL     1       9.639   5.626  22.554  0.00  0.00    -0.311 NA
ATOM     23  H18 UNL     1      10.302   4.842  22.761  0.00  0.00    +0.122 HD
BRANCH  22  24
ATOM     24  C16 UNL     1       8.359   5.363  23.225  0.00  0.00    +0.084 C 
BRANCH  24  25
ATOM     25  C17 UNL     1       7.369   4.779  22.212  0.00  0.00    +0.003 C 
ATOM     26  C18 UNL     1       7.863   4.728  20.775  0.00  0.00    +0.005 C 
ATOM     27  C19 UNL     1       6.824   5.762  21.186  0.00  0.00    +0.005 C 
ENDBRANCH  24  25
ENDBRANCH  22  24
ENDBRANCH   7  22
TORSDOF 6
ENDMDL
MODEL 6
REMARK VINA RESULT:    -5.298     14.863     17.416
REMARK INTER + INTRA:          -8.245
REMARK INTER:                  -7.350
REMARK INTRA:                  -0.896
REMARK UNBOUND:                -1.089
REMARK  Name = /home/qwerty/github/datacon2025hack/step_04_hit_selection/docking/ligands/lig_236.pdb
REMARK  7 active torsions:
REMARK  status: ('A' for Active; 'I' for Inactive)
REMARK    1  A    between atoms: C1_1  and  N1_2
REMARK    2  A    between atoms: C4_6  and  C5_7
REMARK    3  A    between atoms: C7_10  and  C8_12
REMARK    4  A    between atoms: C10_14  and  C11_15
REMARK    5  A    between atoms: C15_21  and  N5_22
REMARK    6  A    between atoms: N5_22  and  C16_23
REMARK    7  A    between atoms: C16_23  and  C17_24
REMARK                            x       y       z     vdW  Elec       q    Type
REMARK                         _______ _______ _______ _____ _____    ______ ____
ROOT
ATOM      1  C5  UNL     1      21.997   6.637  33.810  0.00  0.00    +0.073 C 
ATOM      2  C6  UNL     1      21.834   5.368  32.968  0.00  0.00    +0.119 C 
ATOM      3  N3  UNL     1      20.405   5.197  32.764  0.00  0.00    -0.294 N 
ATOM      4  C7  UNL     1      19.795   4.119  32.024  0.00  0.00    +0.268 C 
ATOM      5  O1  UNL     1      18.542   4.109  31.882  0.00  0.00    -0.268 OA
ATOM      6  C14 UNL     1      19.610   6.253  33.371  0.00  0.00    +0.127 C 
ATOM      7  C15 UNL     1      20.596   7.286  33.924  0.00  0.00    +0.081 C 
ENDROOT
BRANCH   1  13
ATOM      8  C1  UNL     1      25.190   6.298  33.744  0.00  0.00    +0.150 C 
ATOM      9  N1  UNL     1      24.386   7.424  33.270  0.00  0.00    -0.337 N 
ATOM     10  C2  UNL     1      24.880   8.510  32.643  0.00  0.00    +0.199 A 
ATOM     11  N2  UNL     1      23.917   9.363  32.237  0.00  0.00    -0.244 NA
ATOM     12  C3  UNL     1      22.764   8.775  32.620  0.00  0.00    +0.134 A 
ATOM     13  C4  UNL     1      23.043   7.578  33.244  0.00  0.00    +0.044 A 
ENDBRANCH   1  13
BRANCH   4  14
ATOM     14  C8  UNL     1      20.574   3.014  31.423  0.00  0.00    +0.168 A 
ATOM     15  C9  UNL     1      21.213   3.061  30.197  0.00  0.00    +0.081 A 
ATOM     16  C10 UNL     1      21.775   1.810  30.076  0.00  0.00    +0.141 A 
ATOM     17  O2  UNL     1      21.476   1.102  31.139  0.00  0.00    -0.359 OA
ATOM     18  N4  UNL     1      20.756   1.796  31.972  0.00  0.00    -0.073 NA
BRANCH  16  19
ATOM     19  C11 UNL     1      22.569   1.307  28.911  0.00  0.00    +0.058 C 
ATOM     20  C12 UNL     1      23.956   0.796  29.270  0.00  0.00    +0.012 C 
ATOM     21  C13 UNL     1      22.848  -0.188  28.929  0.00  0.00    +0.012 C 
ENDBRANCH  16  19
ENDBRANCH   4  14
BRANCH   7  22
ATOM     22  N5  UNL     1      20.237   7.639  35.313  0.00  0.00    -0.311 NA
ATOM     23  H18 UNL     1      19.228   7.420  35.485  0.00  0.00    +0.122 HD
BRANCH  22  24
ATOM     24  C16 UNL     1      21.060   6.916  36.290  0.00  0.00    +0.084 C 
BRANCH  24  25
ATOM     25  C17 UNL     1      20.252   6.707  37.575  0.00  0.00    +0.003 C 
ATOM     26  C18 UNL     1      18.848   6.157  37.377  0.00  0.00    +0.005 C 
ATOM     27  C19 UNL     1      19.048   7.621  37.748  0.00  0.00    +0.005 C 
ENDBRANCH  24  25
ENDBRANCH  22  24
ENDBRANCH   7  22
TORSDOF 6
ENDMDL
MODEL 7
REMARK VINA RESULT:    -5.249      6.261      9.359
REMARK INTER + INTRA:          -8.179
REMARK INTER:                  -7.624
REMARK INTRA:                  -0.555
REMARK UNBOUND:                -1.089
REMARK  Name = /home/qwerty/github/datacon2025hack/step_04_hit_selection/docking/ligands/lig_236.pdb
REMARK  7 active torsions:
REMARK  status: ('A' for Active; 'I' for Inactive)
REMARK    1  A    between atoms: C1_1  and  N1_2
REMARK    2  A    between atoms: C4_6  and  C5_7
REMARK    3  A    between atoms: C7_10  and  C8_12
REMARK    4  A    between atoms: C10_14  and  C11_15
REMARK    5  A    between atoms: C15_21  and  N5_22
REMARK    6  A    between atoms: N5_22  and  C16_23
REMARK    7  A    between atoms: C16_23  and  C17_24
REMARK                            x       y       z     vdW  Elec       q    Type
REMARK                         _______ _______ _______ _____ _____    ______ ____
ROOT
ATOM      1  C5  UNL     1      11.028  12.084  29.406  0.00  0.00    +0.073 C 
ATOM      2  C6  UNL     1      11.002  12.329  30.918  0.00  0.00    +0.119 C 
ATOM      3  N3  UNL     1      11.534  13.667  31.120  0.00  0.00    -0.294 N 
ATOM      4  C7  UNL     1      11.695  14.310  32.402  0.00  0.00    +0.268 C 
ATOM      5  O1  UNL     1      12.127  15.494  32.441  0.00  0.00    -0.268 OA
ATOM      6  C14 UNL     1      11.882  14.339  29.879  0.00  0.00    +0.127 C 
ATOM      7  C15 UNL     1      11.432  13.422  28.738  0.00  0.00    +0.081 C 
ENDROOT
BRANCH   1  13
ATOM      8  C1  UNL     1      10.417  10.640  26.603  0.00  0.00    +0.150 C 
ATOM      9  N1  UNL     1       9.482  10.967  27.680  0.00  0.00    -0.337 N 
ATOM     10  C2  UNL     1       8.176  10.636  27.690  0.00  0.00    +0.199 A 
ATOM     11  N2  UNL     1       7.557  10.985  28.836  0.00  0.00    -0.244 NA
ATOM     12  C3  UNL     1       8.526  11.551  29.584  0.00  0.00    +0.134 A 
ATOM     13  C4  UNL     1       9.715  11.533  28.885  0.00  0.00    +0.044 A 
ENDBRANCH   1  13
BRANCH   4  14
ATOM     14  C8  UNL     1      11.380  13.641  33.684  0.00  0.00    +0.168 A 
ATOM     15  C9  UNL     1      11.833  12.392  34.066  0.00  0.00    +0.081 A 
ATOM     16  C10 UNL     1      11.266  12.207  35.308  0.00  0.00    +0.141 A 
ATOM     17  O2  UNL     1      10.541  13.258  35.607  0.00  0.00    -0.359 OA
ATOM     18  N4  UNL     1      10.588  14.143  34.653  0.00  0.00    -0.073 NA
BRANCH  16  19
ATOM     19  C11 UNL     1      11.410  10.994  36.173  0.00  0.00    +0.058 C 
ATOM     20  C12 UNL     1      12.474  11.115  37.252  0.00  0.00    +0.012 C 
ATOM     21  C13 UNL     1      11.002  11.195  37.624  0.00  0.00    +0.012 C 
ENDBRANCH  16  19
ENDBRANCH   4  14
BRANCH   7  22
ATOM     22  N5  UNL     1      12.520  13.266  27.751  0.00  0.00    -0.311 NA
ATOM     23  H18 UNL     1      12.151  12.803  26.887  0.00  0.00    +0.122 HD
BRANCH  22  24
ATOM     24  C16 UNL     1      13.117  14.557  27.387  0.00  0.00    +0.084 C 
BRANCH  24  25
ATOM     25  C17 UNL     1      14.642  14.419  27.362  0.00  0.00    +0.003 C 
ATOM     26  C18 UNL     1      15.369  15.017  28.557  0.00  0.00    +0.005 C 
ATOM     27  C19 UNL     1      15.416  15.720  27.207  0.00  0.00    +0.005 C 
ENDBRANCH  24  25
ENDBRANCH  22  24
ENDBRANCH   7  22
TORSDOF 6
ENDMDL
MODEL 8
REMARK VINA RESULT:    -5.193     14.776     17.281
REMARK INTER + INTRA:          -8.104
REMARK INTER:                  -7.338
REMARK INTRA:                  -0.767
REMARK UNBOUND:                -1.089
REMARK  Name = /home/qwerty/github/datacon2025hack/step_04_hit_selection/docking/ligands/lig_236.pdb
REMARK  7 active torsions:
REMARK  status: ('A' for Active; 'I' for Inactive)
REMARK    1  A    between atoms: C1_1  and  N1_2
REMARK    2  A    between atoms: C4_6  and  C5_7
REMARK    3  A    between atoms: C7_10  and  C8_12
REMARK    4  A    between atoms: C10_14  and  C11_15
REMARK    5  A    between atoms: C15_21  and  N5_22
REMARK    6  A    between atoms: N5_22  and  C16_23
REMARK    7  A    between atoms: C16_23  and  C17_24
REMARK                            x       y       z     vdW  Elec       q    Type
REMARK                         _______ _______ _______ _____ _____    ______ ____
ROOT
ATOM      1  C5  UNL     1      21.624   5.107  33.987  0.00  0.00    +0.073 C 
ATOM      2  C6  UNL     1      21.455   3.957  32.989  0.00  0.00    +0.119 C 
ATOM      3  N3  UNL     1      20.056   3.967  32.593  0.00  0.00    -0.294 N 
ATOM      4  C7  UNL     1      19.451   3.044  31.663  0.00  0.00    +0.268 C 
ATOM      5  O1  UNL     1      18.233   3.186  31.367  0.00  0.00    -0.268 OA
ATOM      6  C14 UNL     1      19.292   5.035  33.216  0.00  0.00    +0.127 C 
ATOM      7  C15 UNL     1      20.288   5.891  34.003  0.00  0.00    +0.081 C 
ENDROOT
BRANCH   1  13
ATOM      8  C1  UNL     1      22.326   6.647  31.258  0.00  0.00    +0.150 C 
ATOM      9  N1  UNL     1      23.109   6.582  32.492  0.00  0.00    -0.337 N 
ATOM     10  C2  UNL     1      24.263   7.245  32.705  0.00  0.00    +0.199 A 
ATOM     11  N2  UNL     1      24.739   7.076  33.956  0.00  0.00    -0.244 NA
ATOM     12  C3  UNL     1      23.833   6.279  34.557  0.00  0.00    +0.134 A 
ATOM     13  C4  UNL     1      22.821   5.980  33.668  0.00  0.00    +0.044 A 
ENDBRANCH   1  13
BRANCH   4  14
ATOM     14  C8  UNL     1      20.195   1.928  31.037  0.00  0.00    +0.168 A 
ATOM     15  C9  UNL     1      21.038   2.042  29.946  0.00  0.00    +0.081 A 
ATOM     16  C10 UNL     1      21.470   0.752  29.734  0.00  0.00    +0.141 A 
ATOM     17  O2  UNL     1      20.913  -0.037  30.623  0.00  0.00    -0.359 OA
ATOM     18  N4  UNL     1      20.141   0.638  31.425  0.00  0.00    -0.073 NA
BRANCH  16  19
ATOM     19  C11 UNL     1      22.393   0.296  28.647  0.00  0.00    +0.058 C 
ATOM     20  C12 UNL     1      23.840   0.129  29.082  0.00  0.00    +0.012 C 
ATOM     21  C13 UNL     1      22.972  -1.096  28.846  0.00  0.00    +0.012 C 
ENDBRANCH  16  19
ENDBRANCH   4  14
BRANCH   7  22
ATOM     22  N5  UNL     1      19.782   6.135  35.369  0.00  0.00    -0.311 NA
ATOM     23  H18 UNL     1      20.536   5.935  36.068  0.00  0.00    +0.122 HD
BRANCH  22  24
ATOM     24  C16 UNL     1      19.323   7.519  35.542  0.00  0.00    +0.084 C 
BRANCH  24  25
ATOM     25  C17 UNL     1      20.015   8.132  36.764  0.00  0.00    +0.003 C 
ATOM     26  C18 UNL     1      21.524   8.274  36.653  0.00  0.00    +0.005 C 
ATOM     27  C19 UNL     1      20.924   7.193  37.542  0.00  0.00    +0.005 C 
ENDBRANCH  24  25
ENDBRANCH  22  24
ENDBRANCH   7  22
TORSDOF 6
ENDMDL
MODEL 9
REMARK VINA RESULT:    -5.094      9.983     12.464
REMARK INTER + INTRA:          -7.970
REMARK INTER:                  -7.169
REMARK INTRA:                  -0.800
REMARK UNBOUND:                -1.089
REMARK  Name = /home/qwerty/github/datacon2025hack/step_04_hit_selection/docking/ligands/lig_236.pdb
REMARK  7 active torsions:
REMARK  status: ('A' for Active; 'I' for Inactive)
REMARK    1  A    between atoms: C1_1  and  N1_2
REMARK    2  A    between atoms: C4_6  and  C5_7
REMARK    3  A    between atoms: C7_10  and  C8_12
REMARK    4  A    between atoms: C10_14  and  C11_15
REMARK    5  A    between atoms: C15_21  and  N5_22
REMARK    6  A    between atoms: N5_22  and  C16_23
REMARK    7  A    between atoms: C16_23  and  C17_24
REMARK                            x       y       z     vdW  Elec       q    Type
REMARK                         _______ _______ _______ _____ _____    ______ ____
ROOT
ATOM      1  C5  UNL     1      16.129   0.185  24.644  0.00  0.00    +0.073 C 
ATOM      2  C6  UNL     1      17.438   0.567  25.343  0.00  0.00    +0.119 C 
ATOM      3  N3  UNL     1      17.561   2.009  25.212  0.00  0.00    -0.294 N 
ATOM      4  C7  UNL     1      18.655   2.798  25.725  0.00  0.00    +0.268 C 
ATOM      5  O1  UNL     1      18.622   4.051  25.585  0.00  0.00    -0.268 OA
ATOM      6  C14 UNL     1      16.440   2.619  24.515  0.00  0.00    +0.127 C 
ATOM      7  C15 UNL     1      15.418   1.507  24.264  0.00  0.00    +0.081 C 
ENDROOT
BRANCH   1  13
ATOM      8  C1  UNL     1      16.011  -3.024  24.658  0.00  0.00    +0.150 C 
ATOM      9  N1  UNL     1      15.211  -2.082  25.440  0.00  0.00    -0.337 N 
ATOM     10  C2  UNL     1      14.310  -2.434  26.379  0.00  0.00    +0.199 A 
ATOM     11  N2  UNL     1      13.769  -1.371  27.009  0.00  0.00    -0.244 NA
ATOM     12  C3  UNL     1      14.370  -0.303  26.445  0.00  0.00    +0.134 A 
ATOM     13  C4  UNL     1      15.267  -0.732  25.488  0.00  0.00    +0.044 A 
ENDBRANCH   1  13
BRANCH   4  14
ATOM     14  C8  UNL     1      19.824   2.204  26.411  0.00  0.00    +0.168 A 
ATOM     15  C9  UNL     1      19.813   1.655  27.680  0.00  0.00    +0.081 A 
ATOM     16  C10 UNL     1      21.117   1.258  27.873  0.00  0.00    +0.141 A 
ATOM     17  O2  UNL     1      21.819   1.563  26.808  0.00  0.00    -0.359 OA
ATOM     18  N4  UNL     1      21.072   2.132  25.906  0.00  0.00    -0.073 NA
BRANCH  16  19
ATOM     19  C11 UNL     1      21.672   0.617  29.107  0.00  0.00    +0.058 C 
ATOM     20  C12 UNL     1      22.524  -0.615  28.845  0.00  0.00    +0.012 C 
ATOM     21  C13 UNL     1      23.184   0.696  29.240  0.00  0.00    +0.012 C 
ENDBRANCH  16  19
ENDBRANCH   4  14
BRANCH   7  22
ATOM     22  N5  UNL     1      14.970   1.535  22.857  0.00  0.00    -0.311 NA
ATOM     23  H18 UNL     1      14.580   2.480  22.627  0.00  0.00    +0.122 HD
BRANCH  22  24
ATOM     24  C16 UNL     1      16.066   1.229  21.929  0.00  0.00    +0.084 C 
BRANCH  24  25
ATOM     25  C17 UNL     1      15.743  -0.066  21.176  0.00  0.00    +0.003 C 
ATOM     26  C18 UNL     1      16.858  -1.098  21.149  0.00  0.00    +0.005 C 
ATOM     27  C19 UNL     1      16.533  -0.295  19.896  0.00  0.00    +0.005 C 
ENDBRANCH  24  25
ENDBRANCH  22  24
ENDBRANCH   7  22
TORSDOF 6
ENDMDL
