REMARK  Name = /home/qwerty/github/datacon2025hack/step_04_hit_selection/docking/ligands/lig_168.pdb
REMARK  6 active torsions:
REMARK  status: ('A' for Active; 'I' for Inactive)
REMARK    1  A    between atoms: C1_1  and  C2_2
REMARK    2  A    between atoms: C7_7  and  C8_8
REMARK    3  A    between atoms: C8_8  and  C9_9
REMARK    4  A    between atoms: C8_8  and  N1_10
REMARK    5  A    between atoms: C14_19  and  C15_20
REMARK    6  A    between atoms: C15_20  and  O3_22
REMARK                            x       y       z     vdW  Elec       q    Type
REMARK                         _______ _______ _______ _____ _____    ______ ____
ROOT
ATOM      1  N1  UNL     1      -0.140  -1.201   0.720  0.00  0.00    -0.293 N 
ATOM      2  C10 UNL     1       0.871  -0.180   0.765  0.00  0.00    +0.304 C 
ATOM      3  O1  UNL     1       0.613   0.930   1.308  0.00  0.00    -0.253 OA
ATOM      4  N2  UNL     1       2.171  -0.402   0.189  0.00  0.00    -0.266 N 
ATOM      5  C11 UNL     1       2.579  -1.645  -0.445  0.00  0.00    +0.185 C 
ATOM      6  C12 UNL     1       3.988  -1.396  -0.976  0.00  0.00    +0.267 C 
ATOM      7  F1  UNL     1       4.811  -2.481  -0.729  0.00  0.00    -0.204 F 
ATOM      8  F2  UNL     1       3.944  -1.153  -2.339  0.00  0.00    -0.204 F 
ATOM      9  C13 UNL     1       4.491  -0.151  -0.245  0.00  0.00    +0.111 C 
ATOM     10  C14 UNL     1       3.237   0.591   0.219  0.00  0.00    +0.192 C 
ATOM     11  H12 UNL     1       0.105  -2.147   0.352  0.00  0.00    +0.151 HD
ENDROOT
BRANCH   1  12
ATOM     12  C8  UNL     1      -1.518  -0.941   1.155  0.00  0.00    +0.102 C 
ATOM     13  C9  UNL     1      -2.314  -2.248   1.232  0.00  0.00    +0.033 C 
BRANCH  12  20
ATOM     14  C1  UNL     1      -3.261   1.333   2.136  0.00  0.00    +0.044 C 
ATOM     15  C2  UNL     1      -3.029   1.090   0.668  0.00  0.00    -0.046 A 
ATOM     16  C3  UNL     1      -3.635   1.951  -0.265  0.00  0.00    +0.004 A 
ATOM     17  C4  UNL     1      -3.455   1.758  -1.634  0.00  0.00    +0.000 A 
ATOM     18  C5  UNL     1      -2.671   0.703  -2.094  0.00  0.00    +0.000 A 
ATOM     19  C6  UNL     1      -2.055  -0.158  -1.186  0.00  0.00    +0.006 A 
ATOM     20  C7  UNL     1      -2.204   0.030   0.204  0.00  0.00    -0.025 A 
ENDBRANCH  12  20
ENDBRANCH   1  12
BRANCH  10  21
ATOM     21  C15 UNL     1       2.910   1.735  -0.700  0.00  0.00    +0.326 C 
ATOM     22  O2  UNL     1       3.192   2.915  -0.359  0.00  0.00    -0.249 OA
BRANCH  21  23
ATOM     23  O3  UNL     1       2.332   1.492  -1.943  0.00  0.00    -0.479 OA
ATOM     24  H18 UNL     1       2.118   2.255  -2.575  0.00  0.00    +0.295 HD
ENDBRANCH  21  23
ENDBRANCH  10  21
TORSDOF 4
