MODEL 1
REMARK VINA RESULT:    -5.633      0.000      0.000
REMARK INTER + INTRA:          -9.577
REMARK INTER:                  -8.432
REMARK INTRA:                  -1.145
REMARK UNBOUND:                -1.145
REMARK  Name = /home/qwerty/github/datacon2025hack/step_04_hit_selection/docking/ligands/lig_93.pdb
REMARK  11 active torsions:
REMARK  status: ('A' for Active; 'I' for Inactive)
REMARK    1  A    between atoms: C1_1  and  C2_2
REMARK    2  A    between atoms: C2_2  and  C3_3
REMARK    3  A    between atoms: C2_2  and  N1_4
REMARK    4  A    between atoms: C5_6  and  C6_7
REMARK    5  A    between atoms: N2_9  and  C7_10
REMARK    6  A    between atoms: C7_10  and  C8_11
REMARK    7  A    between atoms: C7_10  and  C9_13
REMARK    8  A    between atoms: C8_11  and  O2_12
REMARK    9  A    between atoms: C9_13  and  N3_14
REMARK   10  A    between atoms: C10_15  and  C11_17
REMARK   11  A    between atoms: C13_19  and  C14_20
REMARK                            x       y       z     vdW  Elec       q    Type
REMARK                         _______ _______ _______ _____ _____    ______ ____
ROOT
ATOM      1  C7  UNL     1      18.892   1.234  33.178  0.00  0.00    +0.116 C 
ENDROOT
BRANCH   1   4
ATOM      2  C6  UNL     1      18.955   3.482  34.364  0.00  0.00    +0.247 C 
ATOM      3  O1  UNL     1      17.762   3.332  34.743  0.00  0.00    -0.270 OA
ATOM      4  N2  UNL     1      19.577   2.481  33.540  0.00  0.00    -0.305 N 
ATOM      5  H9  UNL     1      20.529   2.665  33.154  0.00  0.00    +0.149 HD
BRANCH   2   8
ATOM      6  N1  UNL     1      21.218   6.267  35.003  0.00  0.00    -0.268 N 
ATOM      7  C4  UNL     1      20.944   5.110  34.371  0.00  0.00    +0.121 A 
ATOM      8  C5  UNL     1      19.689   4.694  34.771  0.00  0.00    +0.074 A 
ATOM      9  C18 UNL     1      19.257   5.660  35.662  0.00  0.00    +0.147 A 
ATOM     10  N4  UNL     1      20.206   6.607  35.787  0.00  0.00    -0.179 NA
BRANCH   6  12
ATOM     11  C1  UNL     1      22.231   8.478  35.359  0.00  0.00    +0.032 C 
ATOM     12  C2  UNL     1      22.453   7.044  34.871  0.00  0.00    +0.101 C 
ATOM     13  C3  UNL     1      23.585   6.368  35.647  0.00  0.00    +0.032 C 
ENDBRANCH   6  12
ENDBRANCH   2   8
ENDBRANCH   1   4
BRANCH   1  14
ATOM     14  C8  UNL     1      17.851   1.494  32.073  0.00  0.00    +0.179 C 
BRANCH  14  15
ATOM     15  O2  UNL     1      16.559   1.550  32.612  0.00  0.00    -0.393 OA
ATOM     16  H13 UNL     1      16.622   2.123  33.420  0.00  0.00    +0.209 HD
ENDBRANCH  14  15
ENDBRANCH   1  14
BRANCH   1  17
ATOM     17  C9  UNL     1      19.926   0.171  32.752  0.00  0.00    +0.128 C 
BRANCH  17  18
ATOM     18  N3  UNL     1      20.154   0.204  31.307  0.00  0.00    -0.313 N 
ATOM     19  C10 UNL     1      21.196   1.001  30.715  0.00  0.00    +0.217 C 
ATOM     20  O3  UNL     1      21.834   1.820  31.430  0.00  0.00    -0.275 OA
ATOM     21  H16 UNL     1      19.507  -0.358  30.713  0.00  0.00    +0.149 HD
BRANCH  19  22
ATOM     22  C11 UNL     1      21.577   0.901  29.257  0.00  0.00    +0.086 C 
ATOM     23  C12 UNL     1      23.070   0.848  28.946  0.00  0.00    +0.025 C 
ATOM     24  C13 UNL     1      22.269   2.114  28.641  0.00  0.00    +0.068 C 
BRANCH  24  25
ATOM     25  C14 UNL     1      21.984   2.369  27.183  0.00  0.00    +0.109 A 
ATOM     26  C15 UNL     1      22.630   3.246  26.325  0.00  0.00    +0.045 A 
ATOM     27  C16 UNL     1      22.003   3.111  25.107  0.00  0.00    +0.041 A 
ATOM     28  C17 UNL     1      21.016   2.164  25.288  0.00  0.00    +0.195 A 
ATOM     29  O4  UNL     1      21.030   1.742  26.532  0.00  0.00    -0.468 OA
ENDBRANCH  24  25
ENDBRANCH  19  22
ENDBRANCH  17  18
ENDBRANCH   1  17
TORSDOF 9
ENDMDL
MODEL 2
REMARK VINA RESULT:    -5.582     10.995     14.575
REMARK INTER + INTRA:          -9.500
REMARK INTER:                  -8.654
REMARK INTRA:                  -0.846
REMARK UNBOUND:                -1.145
REMARK  Name = /home/qwerty/github/datacon2025hack/step_04_hit_selection/docking/ligands/lig_93.pdb
REMARK  11 active torsions:
REMARK  status: ('A' for Active; 'I' for Inactive)
REMARK    1  A    between atoms: C1_1  and  C2_2
REMARK    2  A    between atoms: C2_2  and  C3_3
REMARK    3  A    between atoms: C2_2  and  N1_4
REMARK    4  A    between atoms: C5_6  and  C6_7
REMARK    5  A    between atoms: N2_9  and  C7_10
REMARK    6  A    between atoms: C7_10  and  C8_11
REMARK    7  A    between atoms: C7_10  and  C9_13
REMARK    8  A    between atoms: C8_11  and  O2_12
REMARK    9  A    between atoms: C9_13  and  N3_14
REMARK   10  A    between atoms: C10_15  and  C11_17
REMARK   11  A    between atoms: C13_19  and  C14_20
REMARK                            x       y       z     vdW  Elec       q    Type
REMARK                         _______ _______ _______ _____ _____    ______ ____
ROOT
ATOM      1  C7  UNL     1      10.771  14.302  34.838  0.00  0.00    +0.116 C 
ENDROOT
BRANCH   1   4
ATOM      2  C6  UNL     1      12.174  14.460  32.724  0.00  0.00    +0.247 C 
ATOM      3  O1  UNL     1      13.234  14.391  33.405  0.00  0.00    -0.270 OA
ATOM      4  N2  UNL     1      10.897  14.459  33.383  0.00  0.00    -0.305 N 
ATOM      5  H9  UNL     1      10.036  14.615  32.815  0.00  0.00    +0.149 HD
BRANCH   2   8
ATOM      6  N1  UNL     1      11.864  14.396  29.092  0.00  0.00    -0.268 N 
ATOM      7  C4  UNL     1      11.358  14.123  30.310  0.00  0.00    +0.121 A 
ATOM      8  C5  UNL     1      12.271  14.548  31.255  0.00  0.00    +0.074 A 
ATOM      9  C18 UNL     1      13.325  15.073  30.528  0.00  0.00    +0.147 A 
ATOM     10  N4  UNL     1      13.053  14.968  29.213  0.00  0.00    -0.179 NA
BRANCH   6  12
ATOM     11  C1  UNL     1      12.020  13.036  27.052  0.00  0.00    +0.032 C 
ATOM     12  C2  UNL     1      11.221  14.098  27.811  0.00  0.00    +0.101 C 
ATOM     13  C3  UNL     1       9.779  13.641  28.040  0.00  0.00    +0.032 C 
ENDBRANCH   6  12
ENDBRANCH   2   8
ENDBRANCH   1   4
BRANCH   1  14
ATOM     14  C8  UNL     1       9.447  14.917  35.331  0.00  0.00    +0.179 C 
BRANCH  14  15
ATOM     15  O2  UNL     1       8.998  15.904  34.444  0.00  0.00    -0.393 OA
ATOM     16  H13 UNL     1       9.669  16.634  34.481  0.00  0.00    +0.209 HD
ENDBRANCH  14  15
ENDBRANCH   1  14
BRANCH   1  17
ATOM     17  C9  UNL     1      10.886  12.812  35.217  0.00  0.00    +0.128 C 
BRANCH  17  18
ATOM     18  N3  UNL     1      11.933  12.599  36.216  0.00  0.00    -0.313 N 
ATOM     19  C10 UNL     1      13.089  11.782  35.952  0.00  0.00    +0.217 C 
ATOM     20  O3  UNL     1      13.137  11.099  34.894  0.00  0.00    -0.275 OA
ATOM     21  H16 UNL     1      11.794  13.043  37.150  0.00  0.00    +0.149 HD
BRANCH  19  22
ATOM     22  C11 UNL     1      14.271  11.707  36.888  0.00  0.00    +0.086 C 
ATOM     23  C12 UNL     1      15.058  12.998  37.096  0.00  0.00    +0.025 C 
ATOM     24  C13 UNL     1      15.655  11.863  36.264  0.00  0.00    +0.068 C 
BRANCH  24  25
ATOM     25  C14 UNL     1      16.770  11.089  36.920  0.00  0.00    +0.109 A 
ATOM     26  C15 UNL     1      16.674  10.132  37.918  0.00  0.00    +0.045 A 
ATOM     27  C16 UNL     1      17.964   9.724  38.173  0.00  0.00    +0.041 A 
ATOM     28  C17 UNL     1      18.770  10.449  37.320  0.00  0.00    +0.195 A 
ATOM     29  O4  UNL     1      18.031  11.252  36.589  0.00  0.00    -0.468 OA
ENDBRANCH  24  25
ENDBRANCH  19  22
ENDBRANCH  17  18
ENDBRANCH   1  17
TORSDOF 9
ENDMDL
MODEL 3
REMARK VINA RESULT:    -5.563      1.598      1.928
REMARK INTER + INTRA:          -9.472
REMARK INTER:                  -8.407
REMARK INTRA:                  -1.065
REMARK UNBOUND:                -1.145
REMARK  Name = /home/qwerty/github/datacon2025hack/step_04_hit_selection/docking/ligands/lig_93.pdb
REMARK  11 active torsions:
REMARK  status: ('A' for Active; 'I' for Inactive)
REMARK    1  A    between atoms: C1_1  and  C2_2
REMARK    2  A    between atoms: C2_2  and  C3_3
REMARK    3  A    between atoms: C2_2  and  N1_4
REMARK    4  A    between atoms: C5_6  and  C6_7
REMARK    5  A    between atoms: N2_9  and  C7_10
REMARK    6  A    between atoms: C7_10  and  C8_11
REMARK    7  A    between atoms: C7_10  and  C9_13
REMARK    8  A    between atoms: C8_11  and  O2_12
REMARK    9  A    between atoms: C9_13  and  N3_14
REMARK   10  A    between atoms: C10_15  and  C11_17
REMARK   11  A    between atoms: C13_19  and  C14_20
REMARK                            x       y       z     vdW  Elec       q    Type
REMARK                         _______ _______ _______ _____ _____    ______ ____
ROOT
ATOM      1  C7  UNL     1      19.545   1.650  32.896  0.00  0.00    +0.116 C 
ENDROOT
BRANCH   1   4
ATOM      2  C6  UNL     1      20.419   3.873  33.767  0.00  0.00    +0.247 C 
ATOM      3  O1  UNL     1      19.579   3.851  34.708  0.00  0.00    -0.270 OA
ATOM      4  N2  UNL     1      20.434   2.814  32.794  0.00  0.00    -0.305 N 
ATOM      5  H9  UNL     1      21.068   2.896  31.969  0.00  0.00    +0.149 HD
BRANCH   2   8
ATOM      6  N1  UNL     1      23.111   6.268  33.211  0.00  0.00    -0.268 N 
ATOM      7  C4  UNL     1      22.574   5.049  33.006  0.00  0.00    +0.121 A 
ATOM      8  C5  UNL     1      21.370   4.996  33.681  0.00  0.00    +0.074 A 
ATOM      9  C18 UNL     1      21.242   6.234  34.287  0.00  0.00    +0.147 A 
ATOM     10  N4  UNL     1      22.315   6.990  33.985  0.00  0.00    -0.179 NA
BRANCH   6  12
ATOM     11  C1  UNL     1      24.622   8.200  33.075  0.00  0.00    +0.032 C 
ATOM     12  C2  UNL     1      24.392   6.739  32.680  0.00  0.00    +0.101 C 
ATOM     13  C3  UNL     1      25.529   5.849  33.183  0.00  0.00    +0.032 C 
ENDBRANCH   6  12
ENDBRANCH   2   8
ENDBRANCH   1   4
BRANCH   1  14
ATOM     14  C8  UNL     1      18.247   1.895  32.104  0.00  0.00    +0.179 C 
BRANCH  14  15
ATOM     15  O2  UNL     1      17.317   0.876  32.347  0.00  0.00    -0.393 OA
ATOM     16  H13 UNL     1      17.844   0.040  32.447  0.00  0.00    +0.209 HD
ENDBRANCH  14  15
ENDBRANCH   1  14
BRANCH   1  17
ATOM     17  C9  UNL     1      20.280   0.384  32.411  0.00  0.00    +0.128 C 
BRANCH  17  18
ATOM     18  N3  UNL     1      20.378   0.353  30.952  0.00  0.00    -0.313 N 
ATOM     19  C10 UNL     1      21.459   0.987  30.244  0.00  0.00    +0.217 C 
ATOM     20  O3  UNL     1      22.263   1.727  30.872  0.00  0.00    -0.275 OA
ATOM     21  H16 UNL     1      19.609  -0.127  30.436  0.00  0.00    +0.149 HD
BRANCH  19  22
ATOM     22  C11 UNL     1      21.688   0.804  28.762  0.00  0.00    +0.086 C 
ATOM     23  C12 UNL     1      22.956   1.429  28.187  0.00  0.00    +0.025 C 
ATOM     24  C13 UNL     1      21.592   2.053  27.890  0.00  0.00    +0.068 C 
BRANCH  24  25
ATOM     25  C14 UNL     1      21.069   1.846  26.491  0.00  0.00    +0.109 A 
ATOM     26  C15 UNL     1      20.202   0.864  26.039  0.00  0.00    +0.045 A 
ATOM     27  C16 UNL     1      20.033   1.103  24.693  0.00  0.00    +0.041 A 
ATOM     28  C17 UNL     1      20.800   2.212  24.403  0.00  0.00    +0.195 A 
ATOM     29  O4  UNL     1      21.404   2.630  25.492  0.00  0.00    -0.468 OA
ENDBRANCH  24  25
ENDBRANCH  19  22
ENDBRANCH  17  18
ENDBRANCH   1  17
TORSDOF 9
ENDMDL
MODEL 4
REMARK VINA RESULT:    -5.499     12.791     14.673
REMARK INTER + INTRA:          -9.376
REMARK INTER:                  -8.153
REMARK INTRA:                  -1.223
REMARK UNBOUND:                -1.145
REMARK  Name = /home/qwerty/github/datacon2025hack/step_04_hit_selection/docking/ligands/lig_93.pdb
REMARK  11 active torsions:
REMARK  status: ('A' for Active; 'I' for Inactive)
REMARK    1  A    between atoms: C1_1  and  C2_2
REMARK    2  A    between atoms: C2_2  and  C3_3
REMARK    3  A    between atoms: C2_2  and  N1_4
REMARK    4  A    between atoms: C5_6  and  C6_7
REMARK    5  A    between atoms: N2_9  and  C7_10
REMARK    6  A    between atoms: C7_10  and  C8_11
REMARK    7  A    between atoms: C7_10  and  C9_13
REMARK    8  A    between atoms: C8_11  and  O2_12
REMARK    9  A    between atoms: C9_13  and  N3_14
REMARK   10  A    between atoms: C10_15  and  C11_17
REMARK   11  A    between atoms: C13_19  and  C14_20
REMARK                            x       y       z     vdW  Elec       q    Type
REMARK                         _______ _______ _______ _____ _____    ______ ____
ROOT
ATOM      1  C7  UNL     1      13.136  14.322  28.676  0.00  0.00    +0.116 C 
ENDROOT
BRANCH   1   4
ATOM      2  C6  UNL     1      12.850  14.309  31.202  0.00  0.00    +0.247 C 
ATOM      3  O1  UNL     1      13.014  15.559  31.242  0.00  0.00    -0.270 OA
ATOM      4  N2  UNL     1      12.937  13.614  29.946  0.00  0.00    -0.305 N 
ATOM      5  H9  UNL     1      12.897  12.571  29.943  0.00  0.00    +0.149 HD
BRANCH   2   8
ATOM      6  N1  UNL     1      11.705  12.900  34.363  0.00  0.00    -0.268 N 
ATOM      7  C4  UNL     1      11.558  13.789  33.362  0.00  0.00    +0.121 A 
ATOM      8  C5  UNL     1      12.579  13.582  32.455  0.00  0.00    +0.074 A 
ATOM      9  C18 UNL     1      13.320  12.538  32.981  0.00  0.00    +0.147 A 
ATOM     10  N4  UNL     1      12.767  12.141  34.143  0.00  0.00    -0.179 NA
BRANCH   6  12
ATOM     11  C1  UNL     1      11.635  12.247  36.730  0.00  0.00    +0.032 C 
ATOM     12  C2  UNL     1      10.839  12.783  35.538  0.00  0.00    +0.101 C 
ATOM     13  C3  UNL     1      10.206  14.137  35.862  0.00  0.00    +0.032 C 
ENDBRANCH   6  12
ENDBRANCH   2   8
ENDBRANCH   1   4
BRANCH   1  14
ATOM     14  C8  UNL     1      13.706  13.365  27.611  0.00  0.00    +0.179 C 
BRANCH  14  15
ATOM     15  O2  UNL     1      13.470  13.860  26.322  0.00  0.00    -0.393 OA
ATOM     16  H13 UNL     1      13.972  13.268  25.703  0.00  0.00    +0.209 HD
ENDBRANCH  14  15
ENDBRANCH   1  14
BRANCH   1  17
ATOM     17  C9  UNL     1      11.810  14.963  28.218  0.00  0.00    +0.128 C 
BRANCH  17  18
ATOM     18  N3  UNL     1      10.841  13.944  27.815  0.00  0.00    -0.313 N 
ATOM     19  C10 UNL     1       9.806  13.480  28.702  0.00  0.00    +0.217 C 
ATOM     20  O3  UNL     1       9.819  13.834  29.911  0.00  0.00    -0.275 OA
ATOM     21  H16 UNL     1      10.947  13.541  26.859  0.00  0.00    +0.149 HD
BRANCH  19  22
ATOM     22  C11 UNL     1       8.680  12.581  28.248  0.00  0.00    +0.086 C 
ATOM     23  C12 UNL     1       7.877  11.889  29.347  0.00  0.00    +0.025 C 
ATOM     24  C13 UNL     1       8.855  11.083  28.490  0.00  0.00    +0.068 C 
BRANCH  24  25
ATOM     25  C14 UNL     1       8.227  10.170  27.468  0.00  0.00    +0.109 A 
ATOM     26  C15 UNL     1       8.157  10.343  26.095  0.00  0.00    +0.045 A 
ATOM     27  C16 UNL     1       7.492   9.239  25.610  0.00  0.00    +0.041 A 
ATOM     28  C17 UNL     1       7.195   8.459  26.709  0.00  0.00    +0.195 A 
ATOM     29  O4  UNL     1       7.646   9.039  27.798  0.00  0.00    -0.468 OA
ENDBRANCH  24  25
ENDBRANCH  19  22
ENDBRANCH  17  18
ENDBRANCH   1  17
TORSDOF 9
ENDMDL
MODEL 5
REMARK VINA RESULT:    -5.392      3.713      6.267
REMARK INTER + INTRA:          -9.216
REMARK INTER:                  -8.409
REMARK INTRA:                  -0.806
REMARK UNBOUND:                -1.145
REMARK  Name = /home/qwerty/github/datacon2025hack/step_04_hit_selection/docking/ligands/lig_93.pdb
REMARK  11 active torsions:
REMARK  status: ('A' for Active; 'I' for Inactive)
REMARK    1  A    between atoms: C1_1  and  C2_2
REMARK    2  A    between atoms: C2_2  and  C3_3
REMARK    3  A    between atoms: C2_2  and  N1_4
REMARK    4  A    between atoms: C5_6  and  C6_7
REMARK    5  A    between atoms: N2_9  and  C7_10
REMARK    6  A    between atoms: C7_10  and  C8_11
REMARK    7  A    between atoms: C7_10  and  C9_13
REMARK    8  A    between atoms: C8_11  and  O2_12
REMARK    9  A    between atoms: C9_13  and  N3_14
REMARK   10  A    between atoms: C10_15  and  C11_17
REMARK   11  A    between atoms: C13_19  and  C14_20
REMARK                            x       y       z     vdW  Elec       q    Type
REMARK                         _______ _______ _______ _____ _____    ______ ____
ROOT
ATOM      1  C7  UNL     1      22.388   1.062  29.299  0.00  0.00    +0.116 C 
ENDROOT
BRANCH   1   4
ATOM      2  C6  UNL     1      21.004   1.326  31.416  0.00  0.00    +0.247 C 
ATOM      3  O1  UNL     1      21.785   2.224  31.832  0.00  0.00    -0.270 OA
ATOM      4  N2  UNL     1      21.268   0.669  30.164  0.00  0.00    -0.305 N 
ATOM      5  H9  UNL     1      20.669  -0.137  29.881  0.00  0.00    +0.149 HD
BRANCH   2   8
ATOM      6  N1  UNL     1      18.280   0.891  33.798  0.00  0.00    -0.268 N 
ATOM      7  C4  UNL     1      19.375   1.560  33.389  0.00  0.00    +0.121 A 
ATOM      8  C5  UNL     1      19.832   0.961  32.232  0.00  0.00    +0.074 A 
ATOM      9  C18 UNL     1      18.956  -0.084  31.997  0.00  0.00    +0.147 A 
ATOM     10  N4  UNL     1      18.020  -0.106  32.965  0.00  0.00    -0.179 NA
BRANCH   6  12
ATOM     11  C1  UNL     1      16.839  -0.085  35.533  0.00  0.00    +0.032 C 
ATOM     12  C2  UNL     1      17.488   1.192  34.993  0.00  0.00    +0.101 C 
ATOM     13  C3  UNL     1      18.369   1.852  36.055  0.00  0.00    +0.032 C 
ENDBRANCH   6  12
ENDBRANCH   2   8
ENDBRANCH   1   4
BRANCH   1  14
ATOM     14  C8  UNL     1      23.171  -0.181  28.838  0.00  0.00    +0.179 C 
BRANCH  14  15
ATOM     15  O2  UNL     1      24.552   0.047  28.911  0.00  0.00    -0.393 OA
ATOM     16  H13 UNL     1      24.974  -0.845  29.016  0.00  0.00    +0.209 HD
ENDBRANCH  14  15
ENDBRANCH   1  14
BRANCH   1  17
ATOM     17  C9  UNL     1      21.865   1.885  28.104  0.00  0.00    +0.128 C 
BRANCH  17  18
ATOM     18  N3  UNL     1      20.866   1.136  27.342  0.00  0.00    -0.313 N 
ATOM     19  C10 UNL     1      20.629   1.381  25.943  0.00  0.00    +0.217 C 
ATOM     20  O3  UNL     1      21.176   2.370  25.385  0.00  0.00    -0.275 OA
ATOM     21  H16 UNL     1      20.304   0.429  27.864  0.00  0.00    +0.149 HD
BRANCH  19  22
ATOM     22  C11 UNL     1      19.750   0.494  25.093  0.00  0.00    +0.086 C 
ATOM     23  C12 UNL     1      18.622   1.184  24.331  0.00  0.00    +0.025 C 
ATOM     24  C13 UNL     1      18.304   0.316  25.549  0.00  0.00    +0.068 C 
BRANCH  24  25
ATOM     25  C14 UNL     1      17.676  -1.022  25.252  0.00  0.00    +0.109 A 
ATOM     26  C15 UNL     1      16.333  -1.365  25.295  0.00  0.00    +0.045 A 
ATOM     27  C16 UNL     1      16.274  -2.694  24.941  0.00  0.00    +0.041 A 
ATOM     28  C17 UNL     1      17.575  -3.085  24.703  0.00  0.00    +0.195 A 
ATOM     29  O4  UNL     1      18.385  -2.069  24.895  0.00  0.00    -0.468 OA
ENDBRANCH  24  25
ENDBRANCH  19  22
ENDBRANCH  17  18
ENDBRANCH   1  17
TORSDOF 9
ENDMDL
MODEL 6
REMARK VINA RESULT:    -5.364     11.351     13.634
REMARK INTER + INTRA:          -9.174
REMARK INTER:                  -8.308
REMARK INTRA:                  -0.865
REMARK UNBOUND:                -1.145
REMARK  Name = /home/qwerty/github/datacon2025hack/step_04_hit_selection/docking/ligands/lig_93.pdb
REMARK  11 active torsions:
REMARK  status: ('A' for Active; 'I' for Inactive)
REMARK    1  A    between atoms: C1_1  and  C2_2
REMARK    2  A    between atoms: C2_2  and  C3_3
REMARK    3  A    between atoms: C2_2  and  N1_4
REMARK    4  A    between atoms: C5_6  and  C6_7
REMARK    5  A    between atoms: N2_9  and  C7_10
REMARK    6  A    between atoms: C7_10  and  C8_11
REMARK    7  A    between atoms: C7_10  and  C9_13
REMARK    8  A    between atoms: C8_11  and  O2_12
REMARK    9  A    between atoms: C9_13  and  N3_14
REMARK   10  A    between atoms: C10_15  and  C11_17
REMARK   11  A    between atoms: C13_19  and  C14_20
REMARK                            x       y       z     vdW  Elec       q    Type
REMARK                         _______ _______ _______ _____ _____    ______ ____
ROOT
ATOM      1  C7  UNL     1      11.721  13.633  33.434  0.00  0.00    +0.116 C 
ENDROOT
BRANCH   1   4
ATOM      2  C6  UNL     1      13.695  12.644  34.694  0.00  0.00    +0.247 C 
ATOM      3  O1  UNL     1      13.116  11.525  34.752  0.00  0.00    -0.270 OA
ATOM      4  N2  UNL     1      13.034  13.762  34.077  0.00  0.00    -0.305 N 
ATOM      5  H9  UNL     1      13.484  14.702  34.123  0.00  0.00    +0.149 HD
BRANCH   2   8
ATOM      6  N1  UNL     1      17.229  12.942  35.537  0.00  0.00    -0.268 N 
ATOM      7  C4  UNL     1      16.259  12.807  34.612  0.00  0.00    +0.121 A 
ATOM      8  C5  UNL     1      15.045  12.783  35.270  0.00  0.00    +0.074 A 
ATOM      9  C18 UNL     1      15.360  12.906  36.612  0.00  0.00    +0.147 A 
ATOM     10  N4  UNL     1      16.697  13.001  36.748  0.00  0.00    -0.179 NA
BRANCH   6  12
ATOM     11  C1  UNL     1      19.440  12.246  36.351  0.00  0.00    +0.032 C 
ATOM     12  C2  UNL     1      18.667  13.000  35.266  0.00  0.00    +0.101 C 
ATOM     13  C3  UNL     1      18.965  12.427  33.880  0.00  0.00    +0.032 C 
ENDBRANCH   6  12
ENDBRANCH   2   8
ENDBRANCH   1   4
BRANCH   1  14
ATOM     14  C8  UNL     1      10.615  14.176  34.359  0.00  0.00    +0.179 C 
BRANCH  14  15
ATOM     15  O2  UNL     1      10.011  15.309  33.797  0.00  0.00    -0.393 OA
ATOM     16  H13 UNL     1       9.787  15.907  34.557  0.00  0.00    +0.209 HD
ENDBRANCH  14  15
ENDBRANCH   1  14
BRANCH   1  17
ATOM     17  C9  UNL     1      11.730  14.353  32.070  0.00  0.00    +0.128 C 
BRANCH  17  18
ATOM     18  N3  UNL     1      10.603  13.930  31.239  0.00  0.00    -0.313 N 
ATOM     19  C10 UNL     1      10.717  13.782  29.812  0.00  0.00    +0.217 C 
ATOM     20  O3  UNL     1      11.762  14.175  29.229  0.00  0.00    -0.275 OA
ATOM     21  H16 UNL     1       9.693  13.766  31.724  0.00  0.00    +0.149 HD
BRANCH  19  22
ATOM     22  C11 UNL     1       9.632  13.161  28.963  0.00  0.00    +0.086 C 
ATOM     23  C12 UNL     1       8.193  13.482  29.357  0.00  0.00    +0.025 C 
ATOM     24  C13 UNL     1       8.768  12.091  29.624  0.00  0.00    +0.068 C 
BRANCH  24  25
ATOM     25  C14 UNL     1       8.267  10.993  28.721  0.00  0.00    +0.109 A 
ATOM     26  C15 UNL     1       7.414   9.947  29.038  0.00  0.00    +0.045 A 
ATOM     27  C16 UNL     1       7.261   9.222  27.877  0.00  0.00    +0.041 A 
ATOM     28  C17 UNL     1       8.025   9.862  26.923  0.00  0.00    +0.195 A 
ATOM     29  O4  UNL     1       8.610  10.911  27.455  0.00  0.00    -0.468 OA
ENDBRANCH  24  25
ENDBRANCH  19  22
ENDBRANCH  17  18
ENDBRANCH   1  17
TORSDOF 9
ENDMDL
MODEL 7
REMARK VINA RESULT:    -5.342      6.461     10.045
REMARK INTER + INTRA:          -9.141
REMARK INTER:                  -8.232
REMARK INTRA:                  -0.909
REMARK UNBOUND:                -1.145
REMARK  Name = /home/qwerty/github/datacon2025hack/step_04_hit_selection/docking/ligands/lig_93.pdb
REMARK  11 active torsions:
REMARK  status: ('A' for Active; 'I' for Inactive)
REMARK    1  A    between atoms: C1_1  and  C2_2
REMARK    2  A    between atoms: C2_2  and  C3_3
REMARK    3  A    between atoms: C2_2  and  N1_4
REMARK    4  A    between atoms: C5_6  and  C6_7
REMARK    5  A    between atoms: N2_9  and  C7_10
REMARK    6  A    between atoms: C7_10  and  C8_11
REMARK    7  A    between atoms: C7_10  and  C9_13
REMARK    8  A    between atoms: C8_11  and  O2_12
REMARK    9  A    between atoms: C9_13  and  N3_14
REMARK   10  A    between atoms: C10_15  and  C11_17
REMARK   11  A    between atoms: C13_19  and  C14_20
REMARK                            x       y       z     vdW  Elec       q    Type
REMARK                         _______ _______ _______ _____ _____    ______ ____
ROOT
ATOM      1  C7  UNL     1      19.025  11.340  36.020  0.00  0.00    +0.116 C 
ENDROOT
BRANCH   1   4
ATOM      2  C6  UNL     1      16.541  11.675  35.594  0.00  0.00    +0.247 C 
ATOM      3  O1  UNL     1      16.626  11.039  34.508  0.00  0.00    -0.270 OA
ATOM      4  N2  UNL     1      17.718  11.897  36.389  0.00  0.00    -0.305 N 
ATOM      5  H9  UNL     1      17.648  12.507  37.233  0.00  0.00    +0.149 HD
BRANCH   2   8
ATOM      6  N1  UNL     1      13.068  12.413  36.419  0.00  0.00    -0.268 N 
ATOM      7  C4  UNL     1      13.990  11.582  35.898  0.00  0.00    +0.121 A 
ATOM      8  C5  UNL     1      15.226  12.186  36.023  0.00  0.00    +0.074 A 
ATOM      9  C18 UNL     1      14.973  13.401  36.634  0.00  0.00    +0.147 A 
ATOM     10  N4  UNL     1      13.651  13.515  36.865  0.00  0.00    -0.179 NA
BRANCH   6  12
ATOM     11  C1  UNL     1      11.103  11.748  35.103  0.00  0.00    +0.032 C 
ATOM     12  C2  UNL     1      11.626  12.163  36.480  0.00  0.00    +0.101 C 
ATOM     13  C3  UNL     1      11.322  11.092  37.529  0.00  0.00    +0.032 C 
ENDBRANCH   6  12
ENDBRANCH   2   8
ENDBRANCH   1   4
BRANCH   1  14
ATOM     14  C8  UNL     1      20.006  12.470  35.655  0.00  0.00    +0.179 C 
BRANCH  14  15
ATOM     15  O2  UNL     1      21.031  12.563  36.607  0.00  0.00    -0.393 OA
ATOM     16  H13 UNL     1      20.587  12.770  37.470  0.00  0.00    +0.209 HD
ENDBRANCH  14  15
ENDBRANCH   1  14
BRANCH   1  17
ATOM     17  C9  UNL     1      19.564  10.461  37.167  0.00  0.00    +0.128 C 
BRANCH  17  18
ATOM     18  N3  UNL     1      20.607   9.552  36.693  0.00  0.00    -0.313 N 
ATOM     19  C10 UNL     1      20.542   8.131  36.910  0.00  0.00    +0.217 C 
ATOM     20  O3  UNL     1      19.648   7.659  37.664  0.00  0.00    -0.275 OA
ATOM     21  H16 UNL     1      21.426   9.982  36.209  0.00  0.00    +0.149 HD
BRANCH  19  22
ATOM     22  C11 UNL     1      21.499   7.157  36.264  0.00  0.00    +0.086 C 
ATOM     23  C12 UNL     1      22.821   6.922  36.987  0.00  0.00    +0.025 C 
ATOM     24  C13 UNL     1      22.790   7.737  35.694  0.00  0.00    +0.068 C 
BRANCH  24  25
ATOM     25  C14 UNL     1      23.345   7.046  34.474  0.00  0.00    +0.109 A 
ATOM     26  C15 UNL     1      22.693   6.176  33.614  0.00  0.00    +0.045 A 
ATOM     27  C16 UNL     1      23.623   5.822  32.662  0.00  0.00    +0.041 A 
ATOM     28  C17 UNL     1      24.782   6.494  32.992  0.00  0.00    +0.195 A 
ATOM     29  O4  UNL     1      24.585   7.213  34.073  0.00  0.00    -0.468 OA
ENDBRANCH  24  25
ENDBRANCH  19  22
ENDBRANCH  17  18
ENDBRANCH   1  17
TORSDOF 9
ENDMDL
MODEL 8
REMARK VINA RESULT:    -5.295     12.909     15.254
REMARK INTER + INTRA:          -9.070
REMARK INTER:                  -7.692
REMARK INTRA:                  -1.378
REMARK UNBOUND:                -1.145
REMARK  Name = /home/qwerty/github/datacon2025hack/step_04_hit_selection/docking/ligands/lig_93.pdb
REMARK  11 active torsions:
REMARK  status: ('A' for Active; 'I' for Inactive)
REMARK    1  A    between atoms: C1_1  and  C2_2
REMARK    2  A    between atoms: C2_2  and  C3_3
REMARK    3  A    between atoms: C2_2  and  N1_4
REMARK    4  A    between atoms: C5_6  and  C6_7
REMARK    5  A    between atoms: N2_9  and  C7_10
REMARK    6  A    between atoms: C7_10  and  C8_11
REMARK    7  A    between atoms: C7_10  and  C9_13
REMARK    8  A    between atoms: C8_11  and  O2_12
REMARK    9  A    between atoms: C9_13  and  N3_14
REMARK   10  A    between atoms: C10_15  and  C11_17
REMARK   11  A    between atoms: C13_19  and  C14_20
REMARK                            x       y       z     vdW  Elec       q    Type
REMARK                         _______ _______ _______ _____ _____    ______ ____
ROOT
ATOM      1  C7  UNL     1      14.152   2.190  20.279  0.00  0.00    +0.116 C 
ENDROOT
BRANCH   1   4
ATOM      2  C6  UNL     1      12.671   4.213  19.862  0.00  0.00    +0.247 C 
ATOM      3  O1  UNL     1      13.203   4.389  18.732  0.00  0.00    -0.270 OA
ATOM      4  N2  UNL     1      13.126   3.146  20.712  0.00  0.00    -0.305 N 
ATOM      5  H9  UNL     1      12.744   3.075  21.680  0.00  0.00    +0.149 HD
BRANCH   2   8
ATOM      6  N1  UNL     1       9.682   5.933  21.045  0.00  0.00    -0.268 N 
ATOM      7  C4  UNL     1      10.346   4.788  20.794  0.00  0.00    +0.121 A 
ATOM      8  C5  UNL     1      11.589   5.118  20.292  0.00  0.00    +0.074 A 
ATOM      9  C18 UNL     1      11.610   6.501  20.262  0.00  0.00    +0.147 A 
ATOM     10  N4  UNL     1      10.437   6.974  20.725  0.00  0.00    -0.179 NA
BRANCH   6  12
ATOM     11  C1  UNL     1       7.374   5.133  20.784  0.00  0.00    +0.032 C 
ATOM     12  C2  UNL     1       8.322   6.036  21.577  0.00  0.00    +0.101 C 
ATOM     13  C3  UNL     1       8.310   5.675  23.064  0.00  0.00    +0.032 C 
ENDBRANCH   6  12
ENDBRANCH   2   8
ENDBRANCH   1   4
BRANCH   1  14
ATOM     14  C8  UNL     1      15.556   2.810  20.414  0.00  0.00    +0.179 C 
BRANCH  14  15
ATOM     15  O2  UNL     1      16.077   3.136  19.155  0.00  0.00    -0.393 OA
ATOM     16  H13 UNL     1      15.647   2.516  18.510  0.00  0.00    +0.209 HD
ENDBRANCH  14  15
ENDBRANCH   1  14
BRANCH   1  17
ATOM     17  C9  UNL     1      14.025   0.882  21.086  0.00  0.00    +0.128 C 
BRANCH  17  18
ATOM     18  N3  UNL     1      12.639   0.640  21.488  0.00  0.00    -0.313 N 
ATOM     19  C10 UNL     1      12.220   0.696  22.864  0.00  0.00    +0.217 C 
ATOM     20  O3  UNL     1      13.087   0.799  23.773  0.00  0.00    -0.275 OA
ATOM     21  H16 UNL     1      11.963   0.393  20.732  0.00  0.00    +0.149 HD
BRANCH  19  22
ATOM     22  C11 UNL     1      10.769   0.646  23.282  0.00  0.00    +0.086 C 
ATOM     23  C12 UNL     1       9.785   1.429  22.417  0.00  0.00    +0.025 C 
ATOM     24  C13 UNL     1      10.159   1.943  23.807  0.00  0.00    +0.068 C 
BRANCH  24  25
ATOM     25  C14 UNL     1       9.096   1.793  24.866  0.00  0.00    +0.109 A 
ATOM     26  C15 UNL     1       8.234   2.762  25.356  0.00  0.00    +0.045 A 
ATOM     27  C16 UNL     1       7.459   2.131  26.303  0.00  0.00    +0.041 A 
ATOM     28  C17 UNL     1       7.888   0.820  26.337  0.00  0.00    +0.195 A 
ATOM     29  O4  UNL     1       8.862   0.651  25.472  0.00  0.00    -0.468 OA
ENDBRANCH  24  25
ENDBRANCH  19  22
ENDBRANCH  17  18
ENDBRANCH   1  17
TORSDOF 9
ENDMDL
MODEL 9
REMARK VINA RESULT:    -5.239     13.620     16.039
REMARK INTER + INTRA:          -8.987
REMARK INTER:                  -7.720
REMARK INTRA:                  -1.267
REMARK UNBOUND:                -1.145
REMARK  Name = /home/qwerty/github/datacon2025hack/step_04_hit_selection/docking/ligands/lig_93.pdb
REMARK  11 active torsions:
REMARK  status: ('A' for Active; 'I' for Inactive)
REMARK    1  A    between atoms: C1_1  and  C2_2
REMARK    2  A    between atoms: C2_2  and  C3_3
REMARK    3  A    between atoms: C2_2  and  N1_4
REMARK    4  A    between atoms: C5_6  and  C6_7
REMARK    5  A    between atoms: N2_9  and  C7_10
REMARK    6  A    between atoms: C7_10  and  C8_11
REMARK    7  A    between atoms: C7_10  and  C9_13
REMARK    8  A    between atoms: C8_11  and  O2_12
REMARK    9  A    between atoms: C9_13  and  N3_14
REMARK   10  A    between atoms: C10_15  and  C11_17
REMARK   11  A    between atoms: C13_19  and  C14_20
REMARK                            x       y       z     vdW  Elec       q    Type
REMARK                         _______ _______ _______ _____ _____    ______ ____
ROOT
ATOM      1  C7  UNL     1       7.652   7.869  28.450  0.00  0.00    +0.116 C 
ENDROOT
BRANCH   1   4
ATOM      2  C6  UNL     1       8.170   6.992  26.121  0.00  0.00    +0.247 C 
ATOM      3  O1  UNL     1       7.757   5.845  26.445  0.00  0.00    -0.270 OA
ATOM      4  N2  UNL     1       8.181   8.052  27.093  0.00  0.00    -0.305 N 
ATOM      5  H9  UNL     1       8.615   8.966  26.838  0.00  0.00    +0.149 HD
BRANCH   2   8
ATOM      6  N1  UNL     1       9.364   8.151  22.877  0.00  0.00    -0.268 N 
ATOM      7  C4  UNL     1       9.009   8.413  24.150  0.00  0.00    +0.121 A 
ATOM      8  C5  UNL     1       8.642   7.221  24.743  0.00  0.00    +0.074 A 
ATOM      9  C18 UNL     1       8.796   6.264  23.755  0.00  0.00    +0.147 A 
ATOM     10  N4  UNL     1       9.237   6.856  22.628  0.00  0.00    -0.179 NA
BRANCH   6  12
ATOM     11  C1  UNL     1      10.565  10.275  22.587  0.00  0.00    +0.032 C 
ATOM     12  C2  UNL     1       9.811   9.138  21.892  0.00  0.00    +0.101 C 
ATOM     13  C3  UNL     1      10.685   8.465  20.833  0.00  0.00    +0.032 C 
ENDBRANCH   6  12
ENDBRANCH   2   8
ENDBRANCH   1   4
BRANCH   1  14
ATOM     14  C8  UNL     1       8.804   7.650  29.450  0.00  0.00    +0.179 C 
BRANCH  14  15
ATOM     15  O2  UNL     1       8.350   7.791  30.768  0.00  0.00    -0.393 OA
ATOM     16  H13 UNL     1       9.161   7.781  31.341  0.00  0.00    +0.209 HD
ENDBRANCH  14  15
ENDBRANCH   1  14
BRANCH   1  17
ATOM     17  C9  UNL     1       6.779   9.079  28.841  0.00  0.00    +0.128 C 
BRANCH  17  18
ATOM     18  N3  UNL     1       7.602  10.212  29.263  0.00  0.00    -0.313 N 
ATOM     19  C10 UNL     1       8.065  11.210  28.335  0.00  0.00    +0.217 C 
ATOM     20  O3  UNL     1       7.900  11.032  27.098  0.00  0.00    -0.275 OA
ATOM     21  H16 UNL     1       7.867  10.255  30.271  0.00  0.00    +0.149 HD
BRANCH  19  22
ATOM     22  C11 UNL     1       8.744  12.486  28.774  0.00  0.00    +0.086 C 
ATOM     23  C12 UNL     1       8.285  13.771  28.089  0.00  0.00    +0.025 C 
ATOM     24  C13 UNL     1       9.650  13.170  27.753  0.00  0.00    +0.068 C 
BRANCH  24  25
ATOM     25  C14 UNL     1      10.842  13.904  28.312  0.00  0.00    +0.109 A 
ATOM     26  C15 UNL     1      11.752  14.700  27.634  0.00  0.00    +0.045 A 
ATOM     27  C16 UNL     1      12.647  15.140  28.583  0.00  0.00    +0.041 A 
ATOM     28  C17 UNL     1      12.235  14.592  29.780  0.00  0.00    +0.195 A 
ATOM     29  O4  UNL     1      11.160  13.863  29.586  0.00  0.00    -0.468 OA
ENDBRANCH  24  25
ENDBRANCH  19  22
ENDBRANCH  17  18
ENDBRANCH   1  17
TORSDOF 9
ENDMDL
