MODEL 1
REMARK VINA RESULT:    -7.105      0.000      0.000
REMARK INTER + INTRA:          -9.810
REMARK INTER:                  -8.766
REMARK INTRA:                  -1.044
REMARK UNBOUND:                -1.044
REMARK  Name = /home/qwerty/github/datacon2025hack/step_04_hit_selection/docking/ligands/lig_691.pdb
REMARK  6 active torsions:
REMARK  status: ('A' for Active; 'I' for Inactive)
REMARK    1  A    between atoms: C1_1  and  C2_2
REMARK    2  A    between atoms: C6_6  and  C7_7
REMARK    3  A    between atoms: C8_9  and  C9_11
REMARK    4  A    between atoms: C9_11  and  O2_12
REMARK    5  A    between atoms: O2_12  and  C10_13
REMARK    6  A    between atoms: C13_16  and  C14_17
REMARK                            x       y       z     vdW  Elec       q    Type
REMARK                         _______ _______ _______ _____ _____    ______ ____
ROOT
ATOM      1  C10 UNL     1      23.528  13.554  22.909  0.00  0.00    +0.121 A 
ATOM      2  C11 UNL     1      24.431  14.366  23.619  0.00  0.00    +0.046 A 
ATOM      3  C12 UNL     1      24.065  14.916  24.852  0.00  0.00    +0.012 A 
ATOM      4  C13 UNL     1      22.793  14.666  25.398  0.00  0.00    -0.018 A 
ATOM      5  C22 UNL     1      21.896  13.854  24.682  0.00  0.00    +0.012 A 
ATOM      6  C23 UNL     1      22.263  13.305  23.450  0.00  0.00    +0.046 A 
ENDROOT
BRANCH   4   7
ATOM      7  C14 UNL     1      22.406  15.250  26.708  0.00  0.00    -0.016 A 
ATOM      8  C15 UNL     1      22.014  16.609  26.802  0.00  0.00    +0.009 A 
ATOM      9  C16 UNL     1      21.646  17.165  28.038  0.00  0.00    +0.006 A 
ATOM     10  C17 UNL     1      21.673  16.350  29.168  0.00  0.00    -0.025 A 
ATOM     11  C18 UNL     1      22.047  15.041  29.087  0.00  0.00    +0.031 A 
ATOM     12  C19 UNL     1      22.420  14.456  27.877  0.00  0.00    +0.031 A 
ATOM     13  N2  UNL     1      22.005  14.408  30.347  0.00  0.00    -0.343 N 
ATOM     14  C20 UNL     1      21.561  15.380  31.343  0.00  0.00    +0.106 C 
ATOM     15  C21 UNL     1      21.330  16.706  30.574  0.00  0.00    +0.055 C 
ATOM     16  H22 UNL     1      22.247  13.411  30.537  0.00  0.00    +0.146 HD
ENDBRANCH   4   7
BRANCH   1  17
ATOM     17  O2  UNL     1      23.847  12.979  21.671  0.00  0.00    -0.483 OA
BRANCH  17  18
ATOM     18  C9  UNL     1      23.019  12.050  20.977  0.00  0.00    +0.324 C 
BRANCH  18  27
ATOM     19  C1  UNL     1      23.728  15.227  19.419  0.00  0.00    +0.028 C 
ATOM     20  C2  UNL     1      22.221  14.933  19.343  0.00  0.00    +0.073 C 
ATOM     21  C3  UNL     1      21.488  15.480  20.581  0.00  0.00    +0.022 C 
ATOM     22  C4  UNL     1      19.982  15.187  20.492  0.00  0.00    +0.004 C 
ATOM     23  C5  UNL     1      19.705  13.691  20.265  0.00  0.00    +0.022 C 
ATOM     24  C6  UNL     1      20.478  13.172  19.039  0.00  0.00    +0.073 C 
ATOM     25  C7  UNL     1      20.215  11.674  18.817  0.00  0.00    +0.028 C 
ATOM     26  N1  UNL     1      21.910  13.498  19.191  0.00  0.00    -0.293 N 
ATOM     27  C8  UNL     1      22.868  12.487  19.555  0.00  0.00    +0.254 C 
ATOM     28  O1  UNL     1      23.584  11.960  18.662  0.00  0.00    -0.272 OA
ENDBRANCH  18  27
ENDBRANCH  17  18
ENDBRANCH   1  17
TORSDOF 4
ENDMDL
MODEL 2
REMARK VINA RESULT:    -6.855     13.107     15.221
REMARK INTER + INTRA:          -9.501
REMARK INTER:                  -8.427
REMARK INTRA:                  -1.074
REMARK UNBOUND:                -1.044
REMARK  Name = /home/qwerty/github/datacon2025hack/step_04_hit_selection/docking/ligands/lig_691.pdb
REMARK  6 active torsions:
REMARK  status: ('A' for Active; 'I' for Inactive)
REMARK    1  A    between atoms: C1_1  and  C2_2
REMARK    2  A    between atoms: C6_6  and  C7_7
REMARK    3  A    between atoms: C8_9  and  C9_11
REMARK    4  A    between atoms: C9_11  and  O2_12
REMARK    5  A    between atoms: O2_12  and  C10_13
REMARK    6  A    between atoms: C13_16  and  C14_17
REMARK                            x       y       z     vdW  Elec       q    Type
REMARK                         _______ _______ _______ _____ _____    ______ ____
ROOT
ATOM      1  C10 UNL     1      16.141  13.713  35.777  0.00  0.00    +0.121 A 
ATOM      2  C11 UNL     1      17.169  13.660  34.819  0.00  0.00    +0.046 A 
ATOM      3  C12 UNL     1      18.163  12.680  34.906  0.00  0.00    +0.012 A 
ATOM      4  C13 UNL     1      18.148  11.735  35.947  0.00  0.00    -0.018 A 
ATOM      5  C22 UNL     1      17.117  11.794  36.901  0.00  0.00    +0.012 A 
ATOM      6  C23 UNL     1      16.125  12.775  36.814  0.00  0.00    +0.046 A 
ENDROOT
BRANCH   4   7
ATOM      7  C14 UNL     1      19.204  10.693  36.038  0.00  0.00    -0.016 A 
ATOM      8  C15 UNL     1      20.239  10.632  35.071  0.00  0.00    +0.009 A 
ATOM      9  C16 UNL     1      21.239   9.650  35.154  0.00  0.00    +0.006 A 
ATOM     10  C17 UNL     1      21.191   8.738  36.207  0.00  0.00    -0.025 A 
ATOM     11  C18 UNL     1      20.199   8.790  37.142  0.00  0.00    +0.031 A 
ATOM     12  C19 UNL     1      19.189   9.751  37.091  0.00  0.00    +0.031 A 
ATOM     13  N2  UNL     1      20.343   7.775  38.111  0.00  0.00    -0.343 N 
ATOM     14  C20 UNL     1      21.533   6.991  37.791  0.00  0.00    +0.106 C 
ATOM     15  C21 UNL     1      22.127   7.619  36.505  0.00  0.00    +0.055 C 
ATOM     16  H22 UNL     1      19.708   7.613  38.924  0.00  0.00    +0.146 HD
ENDBRANCH   4   7
BRANCH   1  17
ATOM     17  O2  UNL     1      15.122  14.675  35.733  0.00  0.00    -0.483 OA
BRANCH  17  18
ATOM     18  C9  UNL     1      13.788  14.455  36.182  0.00  0.00    +0.324 C 
BRANCH  18  27
ATOM     19  C1  UNL     1      10.201  14.257  35.835  0.00  0.00    +0.028 C 
ATOM     20  C2  UNL     1      10.809  12.846  35.786  0.00  0.00    +0.073 C 
ATOM     21  C3  UNL     1      10.904  12.235  37.195  0.00  0.00    +0.022 C 
ATOM     22  C4  UNL     1      11.508  10.823  37.133  0.00  0.00    +0.004 C 
ATOM     23  C5  UNL     1      12.860  10.812  36.401  0.00  0.00    +0.022 C 
ATOM     24  C6  UNL     1      12.734  11.458  35.009  0.00  0.00    +0.073 C 
ATOM     25  C7  UNL     1      14.086  11.462  34.279  0.00  0.00    +0.028 C 
ATOM     26  N1  UNL     1      12.139  12.802  35.147  0.00  0.00    -0.293 N 
ATOM     27  C8  UNL     1      12.949  13.988  35.035  0.00  0.00    +0.254 C 
ATOM     28  O1  UNL     1      12.955  14.635  33.955  0.00  0.00    -0.272 OA
ENDBRANCH  18  27
ENDBRANCH  17  18
ENDBRANCH   1  17
TORSDOF 4
ENDMDL
MODEL 3
REMARK VINA RESULT:    -6.845     11.148     13.629
REMARK INTER + INTRA:          -9.489
REMARK INTER:                  -8.481
REMARK INTRA:                  -1.008
REMARK UNBOUND:                -1.044
REMARK  Name = /home/qwerty/github/datacon2025hack/step_04_hit_selection/docking/ligands/lig_691.pdb
REMARK  6 active torsions:
REMARK  status: ('A' for Active; 'I' for Inactive)
REMARK    1  A    between atoms: C1_1  and  C2_2
REMARK    2  A    between atoms: C6_6  and  C7_7
REMARK    3  A    between atoms: C8_9  and  C9_11
REMARK    4  A    between atoms: C9_11  and  O2_12
REMARK    5  A    between atoms: O2_12  and  C10_13
REMARK    6  A    between atoms: C13_16  and  C14_17
REMARK                            x       y       z     vdW  Elec       q    Type
REMARK                         _______ _______ _______ _____ _____    ______ ____
ROOT
ATOM      1  C10 UNL     1      20.687   8.403  36.700  0.00  0.00    +0.121 A 
ATOM      2  C11 UNL     1      19.475   7.995  37.284  0.00  0.00    +0.046 A 
ATOM      3  C12 UNL     1      18.378   8.862  37.312  0.00  0.00    +0.012 A 
ATOM      4  C13 UNL     1      18.471  10.151  36.757  0.00  0.00    -0.018 A 
ATOM      5  C22 UNL     1      19.686  10.553  36.175  0.00  0.00    +0.012 A 
ATOM      6  C23 UNL     1      20.781   9.685  36.149  0.00  0.00    +0.046 A 
ENDROOT
BRANCH   4   7
ATOM      7  C14 UNL     1      17.305  11.072  36.785  0.00  0.00    -0.016 A 
ATOM      8  C15 UNL     1      16.014  10.587  37.112  0.00  0.00    +0.009 A 
ATOM      9  C16 UNL     1      14.910  11.455  37.141  0.00  0.00    +0.006 A 
ATOM     10  C17 UNL     1      15.112  12.801  36.842  0.00  0.00    -0.025 A 
ATOM     11  C18 UNL     1      16.352  13.275  36.527  0.00  0.00    +0.031 A 
ATOM     12  C19 UNL     1      17.471  12.444  36.488  0.00  0.00    +0.031 A 
ATOM     13  N2  UNL     1      16.326  14.661  36.259  0.00  0.00    -0.343 N 
ATOM     14  C20 UNL     1      14.955  15.140  36.414  0.00  0.00    +0.106 C 
ATOM     15  C21 UNL     1      14.111  13.903  36.808  0.00  0.00    +0.055 C 
ATOM     16  H22 UNL     1      17.149  15.246  35.996  0.00  0.00    +0.146 HD
ENDBRANCH   4   7
BRANCH   1  17
ATOM     17  O2  UNL     1      21.814   7.571  36.647  0.00  0.00    -0.483 OA
BRANCH  17  18
ATOM     18  C9  UNL     1      22.889   7.728  35.726  0.00  0.00    +0.324 C 
BRANCH  18  27
ATOM     19  C1  UNL     1      25.268   6.206  33.479  0.00  0.00    +0.028 C 
ATOM     20  C2  UNL     1      24.376   7.191  32.706  0.00  0.00    +0.073 C 
ATOM     21  C3  UNL     1      24.982   8.605  32.706  0.00  0.00    +0.022 C 
ATOM     22  C4  UNL     1      24.086   9.579  31.926  0.00  0.00    +0.004 C 
ATOM     23  C5  UNL     1      22.640   9.567  32.448  0.00  0.00    +0.022 C 
ATOM     24  C6  UNL     1      22.076   8.134  32.463  0.00  0.00    +0.073 C 
ATOM     25  C7  UNL     1      20.635   8.114  32.997  0.00  0.00    +0.028 C 
ATOM     26  N1  UNL     1      22.993   7.257  33.218  0.00  0.00    -0.293 N 
ATOM     27  C8  UNL     1      22.674   6.824  34.554  0.00  0.00    +0.254 C 
ATOM     28  O1  UNL     1      22.203   5.670  34.736  0.00  0.00    -0.272 OA
ENDBRANCH  18  27
ENDBRANCH  17  18
ENDBRANCH   1  17
TORSDOF 4
ENDMDL
MODEL 4
REMARK VINA RESULT:    -6.826     12.768     15.932
REMARK INTER + INTRA:          -9.465
REMARK INTER:                  -8.398
REMARK INTRA:                  -1.067
REMARK UNBOUND:                -1.044
REMARK  Name = /home/qwerty/github/datacon2025hack/step_04_hit_selection/docking/ligands/lig_691.pdb
REMARK  6 active torsions:
REMARK  status: ('A' for Active; 'I' for Inactive)
REMARK    1  A    between atoms: C1_1  and  C2_2
REMARK    2  A    between atoms: C6_6  and  C7_7
REMARK    3  A    between atoms: C8_9  and  C9_11
REMARK    4  A    between atoms: C9_11  and  O2_12
REMARK    5  A    between atoms: O2_12  and  C10_13
REMARK    6  A    between atoms: C13_16  and  C14_17
REMARK                            x       y       z     vdW  Elec       q    Type
REMARK                         _______ _______ _______ _____ _____    ______ ____
ROOT
ATOM      1  C10 UNL     1       9.903   4.788  20.838  0.00  0.00    +0.121 A 
ATOM      2  C11 UNL     1       9.847   3.551  21.505  0.00  0.00    +0.046 A 
ATOM      3  C12 UNL     1      10.959   2.703  21.514  0.00  0.00    +0.012 A 
ATOM      4  C13 UNL     1      12.147   3.074  20.859  0.00  0.00    -0.018 A 
ATOM      5  C22 UNL     1      12.196   4.312  20.194  0.00  0.00    +0.012 A 
ATOM      6  C23 UNL     1      11.084   5.157  20.185  0.00  0.00    +0.046 A 
ENDROOT
BRANCH   4   7
ATOM      7  C14 UNL     1      13.328   2.173  20.870  0.00  0.00    -0.016 A 
ATOM      8  C15 UNL     1      14.422   2.412  20.001  0.00  0.00    +0.009 A 
ATOM      9  C16 UNL     1      15.542   1.563  20.008  0.00  0.00    +0.006 A 
ATOM     10  C17 UNL     1      15.553   0.484  20.890  0.00  0.00    -0.025 A 
ATOM     11  C18 UNL     1      14.505   0.248  21.731  0.00  0.00    +0.031 A 
ATOM     12  C19 UNL     1      13.377   1.068  21.750  0.00  0.00    +0.031 A 
ATOM     13  N2  UNL     1      14.726  -0.893  22.531  0.00  0.00    -0.343 N 
ATOM     14  C20 UNL     1      16.031  -1.455  22.192  0.00  0.00    +0.106 C 
ATOM     15  C21 UNL     1      16.614  -0.543  21.082  0.00  0.00    +0.055 C 
ATOM     16  H22 UNL     1      14.068  -1.272  23.247  0.00  0.00    +0.146 HD
ENDBRANCH   4   7
BRANCH   1  17
ATOM     17  O2  UNL     1       8.816   5.673  20.800  0.00  0.00    -0.483 OA
BRANCH  17  18
ATOM     18  C9  UNL     1       8.919   7.062  20.507  0.00  0.00    +0.324 C 
BRANCH  18  27
ATOM     19  C1  UNL     1       8.352  10.575  21.110  0.00  0.00    +0.028 C 
ATOM     20  C2  UNL     1       9.796  10.208  21.487  0.00  0.00    +0.073 C 
ATOM     21  C3  UNL     1      10.739  10.365  20.281  0.00  0.00    +0.022 C 
ATOM     22  C4  UNL     1      12.181  10.001  20.671  0.00  0.00    +0.004 C 
ATOM     23  C5  UNL     1      12.266   8.599  21.296  0.00  0.00    +0.022 C 
ATOM     24  C6  UNL     1      11.288   8.468  22.478  0.00  0.00    +0.073 C 
ATOM     25  C7  UNL     1      11.359   7.064  23.099  0.00  0.00    +0.028 C 
ATOM     26  N1  UNL     1       9.931   8.842  22.033  0.00  0.00    -0.293 N 
ATOM     27  C8  UNL     1       8.927   7.840  21.784  0.00  0.00    +0.254 C 
ATOM     28  O1  UNL     1       8.049   7.612  22.658  0.00  0.00    -0.272 OA
ENDBRANCH  18  27
ENDBRANCH  17  18
ENDBRANCH   1  17
TORSDOF 4
ENDMDL
MODEL 5
REMARK VINA RESULT:    -6.614      3.965      8.866
REMARK INTER + INTRA:          -9.204
REMARK INTER:                  -8.318
REMARK INTRA:                  -0.886
REMARK UNBOUND:                -1.044
REMARK  Name = /home/qwerty/github/datacon2025hack/step_04_hit_selection/docking/ligands/lig_691.pdb
REMARK  6 active torsions:
REMARK  status: ('A' for Active; 'I' for Inactive)
REMARK    1  A    between atoms: C1_1  and  C2_2
REMARK    2  A    between atoms: C6_6  and  C7_7
REMARK    3  A    between atoms: C8_9  and  C9_11
REMARK    4  A    between atoms: C9_11  and  O2_12
REMARK    5  A    between atoms: O2_12  and  C10_13
REMARK    6  A    between atoms: C13_16  and  C14_17
REMARK                            x       y       z     vdW  Elec       q    Type
REMARK                         _______ _______ _______ _____ _____    ______ ____
ROOT
ATOM      1  C10 UNL     1      20.929  12.893  18.830  0.00  0.00    +0.121 A 
ATOM      2  C11 UNL     1      19.562  12.806  19.148  0.00  0.00    +0.046 A 
ATOM      3  C12 UNL     1      18.934  11.558  19.226  0.00  0.00    +0.012 A 
ATOM      4  C13 UNL     1      19.658  10.377  18.987  0.00  0.00    -0.018 A 
ATOM      5  C22 UNL     1      21.024  10.472  18.668  0.00  0.00    +0.012 A 
ATOM      6  C23 UNL     1      21.650  11.719  18.591  0.00  0.00    +0.046 A 
ENDROOT
BRANCH   4   7
ATOM      7  C14 UNL     1      18.991   9.052  19.071  0.00  0.00    -0.016 A 
ATOM      8  C15 UNL     1      19.544   7.926  18.411  0.00  0.00    +0.009 A 
ATOM      9  C16 UNL     1      18.918   6.671  18.488  0.00  0.00    +0.006 A 
ATOM     10  C17 UNL     1      17.741   6.559  19.228  0.00  0.00    -0.025 A 
ATOM     11  C18 UNL     1      17.203   7.637  19.866  0.00  0.00    +0.031 A 
ATOM     12  C19 UNL     1      17.797   8.898  19.811  0.00  0.00    +0.031 A 
ATOM     13  N2  UNL     1      16.016   7.299  20.549  0.00  0.00    -0.343 N 
ATOM     14  C20 UNL     1      15.752   5.876  20.348  0.00  0.00    +0.106 C 
ATOM     15  C21 UNL     1      16.903   5.349  19.456  0.00  0.00    +0.055 C 
ATOM     16  H22 UNL     1      15.426   7.954  21.108  0.00  0.00    +0.146 HD
ENDBRANCH   4   7
BRANCH   1  17
ATOM     17  O2  UNL     1      21.603  14.119  18.741  0.00  0.00    -0.483 OA
BRANCH  17  18
ATOM     18  C9  UNL     1      22.846  14.402  19.376  0.00  0.00    +0.324 C 
BRANCH  18  27
ATOM     19  C1  UNL     1      25.283  16.158  21.377  0.00  0.00    +0.028 C 
ATOM     20  C2  UNL     1      24.137  15.657  22.271  0.00  0.00    +0.073 C 
ATOM     21  C3  UNL     1      24.427  14.243  22.803  0.00  0.00    +0.022 C 
ATOM     22  C4  UNL     1      23.278  13.755  23.700  0.00  0.00    +0.004 C 
ATOM     23  C5  UNL     1      21.921  13.840  22.983  0.00  0.00    +0.022 C 
ATOM     24  C6  UNL     1      21.677  15.259  22.438  0.00  0.00    +0.073 C 
ATOM     25  C7  UNL     1      20.327  15.345  21.709  0.00  0.00    +0.028 C 
ATOM     26  N1  UNL     1      22.823  15.661  21.598  0.00  0.00    -0.293 N 
ATOM     27  C8  UNL     1      22.724  15.670  20.161  0.00  0.00    +0.254 C 
ATOM     28  O1  UNL     1      22.526  16.758  19.559  0.00  0.00    -0.272 OA
ENDBRANCH  18  27
ENDBRANCH  17  18
ENDBRANCH   1  17
TORSDOF 4
ENDMDL
MODEL 6
REMARK VINA RESULT:    -6.582     13.597     15.424
REMARK INTER + INTRA:          -9.165
REMARK INTER:                  -8.088
REMARK INTRA:                  -1.077
REMARK UNBOUND:                -1.044
REMARK  Name = /home/qwerty/github/datacon2025hack/step_04_hit_selection/docking/ligands/lig_691.pdb
REMARK  6 active torsions:
REMARK  status: ('A' for Active; 'I' for Inactive)
REMARK    1  A    between atoms: C1_1  and  C2_2
REMARK    2  A    between atoms: C6_6  and  C7_7
REMARK    3  A    between atoms: C8_9  and  C9_11
REMARK    4  A    between atoms: C9_11  and  O2_12
REMARK    5  A    between atoms: O2_12  and  C10_13
REMARK    6  A    between atoms: C13_16  and  C14_17
REMARK                            x       y       z     vdW  Elec       q    Type
REMARK                         _______ _______ _______ _____ _____    ______ ____
ROOT
ATOM      1  C10 UNL     1      17.025  12.098  36.898  0.00  0.00    +0.121 A 
ATOM      2  C11 UNL     1      18.185  12.324  36.137  0.00  0.00    +0.046 A 
ATOM      3  C12 UNL     1      19.185  11.349  36.068  0.00  0.00    +0.012 A 
ATOM      4  C13 UNL     1      19.045  10.130  36.757  0.00  0.00    -0.018 A 
ATOM      5  C22 UNL     1      17.882   9.911  37.516  0.00  0.00    +0.012 A 
ATOM      6  C23 UNL     1      16.884  10.887  37.584  0.00  0.00    +0.046 A 
ENDROOT
BRANCH   4   7
ATOM      7  C14 UNL     1      20.107   9.094  36.683  0.00  0.00    -0.016 A 
ATOM      8  C15 UNL     1      20.113   8.004  37.589  0.00  0.00    +0.009 A 
ATOM      9  C16 UNL     1      21.114   7.022  37.522  0.00  0.00    +0.006 A 
ATOM     10  C17 UNL     1      22.101   7.143  36.544  0.00  0.00    -0.025 A 
ATOM     11  C18 UNL     1      22.102   8.188  35.668  0.00  0.00    +0.031 A 
ATOM     12  C19 UNL     1      21.125   9.182  35.705  0.00  0.00    +0.031 A 
ATOM     13  N2  UNL     1      23.188   8.113  34.770  0.00  0.00    -0.343 N 
ATOM     14  C20 UNL     1      23.966   6.915  35.078  0.00  0.00    +0.106 C 
ATOM     15  C21 UNL     1      23.254   6.239  36.276  0.00  0.00    +0.055 C 
ATOM     16  H22 UNL     1      23.400   8.797  34.010  0.00  0.00    +0.146 HD
ENDBRANCH   4   7
BRANCH   1  17
ATOM     17  O2  UNL     1      15.994  13.043  36.998  0.00  0.00    -0.483 OA
BRANCH  17  18
ATOM     18  C9  UNL     1      14.607  12.721  37.032  0.00  0.00    +0.324 C 
BRANCH  18  27
ATOM     19  C1  UNL     1      11.268  13.471  35.886  0.00  0.00    +0.028 C 
ATOM     20  C2  UNL     1      11.629  12.020  35.528  0.00  0.00    +0.073 C 
ATOM     21  C3  UNL     1      11.237  11.056  36.661  0.00  0.00    +0.022 C 
ATOM     22  C4  UNL     1      11.597   9.609  36.290  0.00  0.00    +0.004 C 
ATOM     23  C5  UNL     1      13.077   9.472  35.897  0.00  0.00    +0.022 C 
ATOM     24  C6  UNL     1      13.442  10.471  34.784  0.00  0.00    +0.073 C 
ATOM     25  C7  UNL     1      14.924  10.348  34.397  0.00  0.00    +0.028 C 
ATOM     26  N1  UNL     1      13.058  11.833  35.206  0.00  0.00    -0.293 N 
ATOM     27  C8  UNL     1      14.049  12.782  35.646  0.00  0.00    +0.254 C 
ATOM     28  O1  UNL     1      14.454  13.669  34.850  0.00  0.00    -0.272 OA
ENDBRANCH  18  27
ENDBRANCH  17  18
ENDBRANCH   1  17
TORSDOF 4
ENDMDL
MODEL 7
REMARK VINA RESULT:    -6.579      1.814      2.994
REMARK INTER + INTRA:          -9.161
REMARK INTER:                  -8.085
REMARK INTRA:                  -1.076
REMARK UNBOUND:                -1.044
REMARK  Name = /home/qwerty/github/datacon2025hack/step_04_hit_selection/docking/ligands/lig_691.pdb
REMARK  6 active torsions:
REMARK  status: ('A' for Active; 'I' for Inactive)
REMARK    1  A    between atoms: C1_1  and  C2_2
REMARK    2  A    between atoms: C6_6  and  C7_7
REMARK    3  A    between atoms: C8_9  and  C9_11
REMARK    4  A    between atoms: C9_11  and  O2_12
REMARK    5  A    between atoms: O2_12  and  C10_13
REMARK    6  A    between atoms: C13_16  and  C14_17
REMARK                            x       y       z     vdW  Elec       q    Type
REMARK                         _______ _______ _______ _____ _____    ______ ____
ROOT
ATOM      1  C10 UNL     1      23.586  15.727  25.214  0.00  0.00    +0.121 A 
ATOM      2  C11 UNL     1      23.716  14.611  26.060  0.00  0.00    +0.046 A 
ATOM      3  C12 UNL     1      22.927  14.503  27.210  0.00  0.00    +0.012 A 
ATOM      4  C13 UNL     1      21.995  15.504  27.536  0.00  0.00    -0.018 A 
ATOM      5  C22 UNL     1      21.871  16.618  26.686  0.00  0.00    +0.012 A 
ATOM      6  C23 UNL     1      22.660  16.724  25.537  0.00  0.00    +0.046 A 
ENDROOT
BRANCH   4   7
ATOM      7  C14 UNL     1      21.158  15.388  28.757  0.00  0.00    -0.016 A 
ATOM      8  C15 UNL     1      20.255  16.422  29.111  0.00  0.00    +0.009 A 
ATOM      9  C16 UNL     1      19.461  16.316  30.264  0.00  0.00    +0.006 A 
ATOM     10  C17 UNL     1      19.579  15.172  31.051  0.00  0.00    -0.025 A 
ATOM     11  C18 UNL     1      20.444  14.172  30.717  0.00  0.00    +0.031 A 
ATOM     12  C19 UNL     1      21.249  14.243  29.581  0.00  0.00    +0.031 A 
ATOM     13  N2  UNL     1      20.403  13.115  31.651  0.00  0.00    -0.343 N 
ATOM     14  C20 UNL     1      19.425  13.444  32.685  0.00  0.00    +0.106 C 
ATOM     15  C21 UNL     1      18.851  14.832  32.306  0.00  0.00    +0.055 C 
ATOM     16  H22 UNL     1      20.974  12.241  31.609  0.00  0.00    +0.146 HD
ENDBRANCH   4   7
BRANCH   1  17
ATOM     17  O2  UNL     1      24.352  15.881  24.050  0.00  0.00    -0.483 OA
BRANCH  17  18
ATOM     18  C9  UNL     1      23.817  15.892  22.729  0.00  0.00    +0.324 C 
BRANCH  18  27
ATOM     19  C1  UNL     1      23.999  14.597  19.366  0.00  0.00    +0.028 C 
ATOM     20  C2  UNL     1      22.600  14.341  19.948  0.00  0.00    +0.073 C 
ATOM     21  C3  UNL     1      21.655  15.519  19.655  0.00  0.00    +0.022 C 
ATOM     22  C4  UNL     1      20.258  15.250  20.236  0.00  0.00    +0.004 C 
ATOM     23  C5  UNL     1      20.319  14.913  21.735  0.00  0.00    +0.022 C 
ATOM     24  C6  UNL     1      21.296  13.752  21.995  0.00  0.00    +0.073 C 
ATOM     25  C7  UNL     1      21.372  13.420  23.494  0.00  0.00    +0.028 C 
ATOM     26  N1  UNL     1      22.608  14.076  21.401  0.00  0.00    -0.293 N 
ATOM     27  C8  UNL     1      23.716  14.487  22.225  0.00  0.00    +0.254 C 
ATOM     28  O1  UNL     1      24.607  13.651  22.528  0.00  0.00    -0.272 OA
ENDBRANCH  18  27
ENDBRANCH  17  18
ENDBRANCH   1  17
TORSDOF 4
ENDMDL
MODEL 8
REMARK VINA RESULT:    -6.554     12.868     15.034
REMARK INTER + INTRA:          -9.130
REMARK INTER:                  -8.020
REMARK INTRA:                  -1.110
REMARK UNBOUND:                -1.044
REMARK  Name = /home/qwerty/github/datacon2025hack/step_04_hit_selection/docking/ligands/lig_691.pdb
REMARK  6 active torsions:
REMARK  status: ('A' for Active; 'I' for Inactive)
REMARK    1  A    between atoms: C1_1  and  C2_2
REMARK    2  A    between atoms: C6_6  and  C7_7
REMARK    3  A    between atoms: C8_9  and  C9_11
REMARK    4  A    between atoms: C9_11  and  O2_12
REMARK    5  A    between atoms: O2_12  and  C10_13
REMARK    6  A    between atoms: C13_16  and  C14_17
REMARK                            x       y       z     vdW  Elec       q    Type
REMARK                         _______ _______ _______ _____ _____    ______ ____
ROOT
ATOM      1  C10 UNL     1      16.659  12.768  34.642  0.00  0.00    +0.121 A 
ATOM      2  C11 UNL     1      16.643  11.492  34.051  0.00  0.00    +0.046 A 
ATOM      3  C12 UNL     1      17.672  10.581  34.312  0.00  0.00    +0.012 A 
ATOM      4  C13 UNL     1      18.733  10.926  35.168  0.00  0.00    -0.018 A 
ATOM      5  C22 UNL     1      18.742  12.204  35.755  0.00  0.00    +0.012 A 
ATOM      6  C23 UNL     1      17.714  13.113  35.493  0.00  0.00    +0.046 A 
ENDROOT
BRANCH   4   7
ATOM      7  C14 UNL     1      19.824   9.958  35.446  0.00  0.00    -0.016 A 
ATOM      8  C15 UNL     1      20.764   9.624  34.438  0.00  0.00    +0.009 A 
ATOM      9  C16 UNL     1      21.798   8.710  34.698  0.00  0.00    +0.006 A 
ATOM     10  C17 UNL     1      21.880   8.139  35.967  0.00  0.00    -0.025 A 
ATOM     11  C18 UNL     1      20.981   8.456  36.942  0.00  0.00    +0.031 A 
ATOM     12  C19 UNL     1      19.941   9.358  36.721  0.00  0.00    +0.031 A 
ATOM     13  N2  UNL     1      21.249   7.763  38.142  0.00  0.00    -0.343 N 
ATOM     14  C20 UNL     1      22.427   6.923  37.942  0.00  0.00    +0.106 C 
ATOM     15  C21 UNL     1      22.875   7.156  36.477  0.00  0.00    +0.055 C 
ATOM     16  H22 UNL     1      20.700   7.840  39.027  0.00  0.00    +0.146 HD
ENDBRANCH   4   7
BRANCH   1  17
ATOM     17  O2  UNL     1      15.652  13.716  34.413  0.00  0.00    -0.483 OA
BRANCH  17  18
ATOM     18  C9  UNL     1      14.256  13.432  34.442  0.00  0.00    +0.324 C 
BRANCH  18  27
ATOM     19  C1  UNL     1      14.883  11.316  37.298  0.00  0.00    +0.028 C 
ATOM     20  C2  UNL     1      13.393  11.259  36.923  0.00  0.00    +0.073 C 
ATOM     21  C3  UNL     1      13.121  10.139  35.904  0.00  0.00    +0.022 C 
ATOM     22  C4  UNL     1      11.628  10.088  35.541  0.00  0.00    +0.004 C 
ATOM     23  C5  UNL     1      11.112  11.452  35.057  0.00  0.00    +0.022 C 
ATOM     24  C6  UNL     1      11.428  12.553  36.086  0.00  0.00    +0.073 C 
ATOM     25  C7  UNL     1      10.926  13.922  35.600  0.00  0.00    +0.028 C 
ATOM     26  N1  UNL     1      12.872  12.534  36.392  0.00  0.00    -0.293 N 
ATOM     27  C8  UNL     1      13.760  13.531  35.850  0.00  0.00    +0.254 C 
ATOM     28  O1  UNL     1      14.116  14.501  36.569  0.00  0.00    -0.272 OA
ENDBRANCH  18  27
ENDBRANCH  17  18
ENDBRANCH   1  17
TORSDOF 4
ENDMDL
MODEL 9
REMARK VINA RESULT:    -6.285      1.658      2.699
REMARK INTER + INTRA:          -8.798
REMARK INTER:                  -7.803
REMARK INTRA:                  -0.995
REMARK UNBOUND:                -1.044
REMARK  Name = /home/qwerty/github/datacon2025hack/step_04_hit_selection/docking/ligands/lig_691.pdb
REMARK  6 active torsions:
REMARK  status: ('A' for Active; 'I' for Inactive)
REMARK    1  A    between atoms: C1_1  and  C2_2
REMARK    2  A    between atoms: C6_6  and  C7_7
REMARK    3  A    between atoms: C8_9  and  C9_11
REMARK    4  A    between atoms: C9_11  and  O2_12
REMARK    5  A    between atoms: O2_12  and  C10_13
REMARK    6  A    between atoms: C13_16  and  C14_17
REMARK                            x       y       z     vdW  Elec       q    Type
REMARK                         _______ _______ _______ _____ _____    ______ ____
ROOT
ATOM      1  C10 UNL     1      23.285  16.047  23.496  0.00  0.00    +0.121 A 
ATOM      2  C11 UNL     1      24.173  15.529  24.456  0.00  0.00    +0.046 A 
ATOM      3  C12 UNL     1      23.746  15.322  25.772  0.00  0.00    +0.012 A 
ATOM      4  C13 UNL     1      22.428  15.626  26.153  0.00  0.00    -0.018 A 
ATOM      5  C22 UNL     1      21.545  16.144  25.189  0.00  0.00    +0.012 A 
ATOM      6  C23 UNL     1      21.973  16.351  23.874  0.00  0.00    +0.046 A 
ENDROOT
BRANCH   4   7
ATOM      7  C14 UNL     1      21.975  15.404  27.551  0.00  0.00    -0.016 A 
ATOM      8  C15 UNL     1      22.536  14.363  28.332  0.00  0.00    +0.009 A 
ATOM      9  C16 UNL     1      22.112  14.150  29.653  0.00  0.00    +0.006 A 
ATOM     10  C17 UNL     1      21.128  14.986  30.180  0.00  0.00    -0.025 A 
ATOM     11  C18 UNL     1      20.584  15.992  29.435  0.00  0.00    +0.031 A 
ATOM     12  C19 UNL     1      20.980  16.231  28.120  0.00  0.00    +0.031 A 
ATOM     13  N2  UNL     1      19.610  16.708  30.162  0.00  0.00    -0.343 N 
ATOM     14  C20 UNL     1      19.506  16.130  31.499  0.00  0.00    +0.106 C 
ATOM     15  C21 UNL     1      20.522  14.961  31.540  0.00  0.00    +0.055 C 
ATOM     16  H22 UNL     1      19.057  17.519  29.806  0.00  0.00    +0.146 HD
ENDBRANCH   4   7
BRANCH   1  17
ATOM     17  O2  UNL     1      23.663  16.272  22.165  0.00  0.00    -0.483 OA
BRANCH  17  18
ATOM     18  C9  UNL     1      22.780  16.185  21.051  0.00  0.00    +0.324 C 
BRANCH  18  27
ATOM     19  C1  UNL     1      20.949  14.544  18.409  0.00  0.00    +0.028 C 
ATOM     20  C2  UNL     1      21.085  13.600  19.615  0.00  0.00    +0.073 C 
ATOM     21  C3  UNL     1      19.908  13.775  20.590  0.00  0.00    +0.022 C 
ATOM     22  C4  UNL     1      20.051  12.823  21.788  0.00  0.00    +0.004 C 
ATOM     23  C5  UNL     1      21.412  12.983  22.484  0.00  0.00    +0.022 C 
ATOM     24  C6  UNL     1      22.564  12.832  21.474  0.00  0.00    +0.073 C 
ATOM     25  C7  UNL     1      23.927  13.004  22.163  0.00  0.00    +0.028 C 
ATOM     26  N1  UNL     1      22.353  13.767  20.351  0.00  0.00    -0.293 N 
ATOM     27  C8  UNL     1      23.125  14.978  20.238  0.00  0.00    +0.254 C 
ATOM     28  O1  UNL     1      24.105  15.018  19.449  0.00  0.00    -0.272 OA
ENDBRANCH  18  27
ENDBRANCH  17  18
ENDBRANCH   1  17
TORSDOF 4
ENDMDL
