MODEL 1
REMARK VINA RESULT:    -5.735      0.000      0.000
REMARK INTER + INTRA:          -8.194
REMARK INTER:                  -7.412
REMARK INTRA:                  -0.782
REMARK UNBOUND:                -0.782
REMARK  Name = /home/qwerty/github/datacon2025hack/step_04_hit_selection/docking/ligands/lig_233.pdb
REMARK  8 active torsions:
REMARK  status: ('A' for Active; 'I' for Inactive)
REMARK    1  A    between atoms: C1_1  and  C2_2
REMARK    2  A    between atoms: C2_2  and  N1_3
REMARK    3  A    between atoms: N1_3  and  C3_4
REMARK    4  A    between atoms: N1_3  and  C4_5
REMARK    5  A    between atoms: C4_5  and  C5_6
REMARK    6  A    between atoms: C5_6  and  C6_7
REMARK    7  A    between atoms: C14_18  and  C15_20
REMARK    8  A    between atoms: C17_22  and  C18_23
REMARK                            x       y       z     vdW  Elec       q    Type
REMARK                         _______ _______ _______ _____ _____    ______ ____
ROOT
ATOM      1  C6  UNL     1      20.664   1.572  32.259  0.00  0.00    +0.217 C 
ATOM      2  O1  UNL     1      21.175   2.296  33.155  0.00  0.00    -0.276 OA
ATOM      3  N2  UNL     1      20.676   2.024  30.890  0.00  0.00    -0.297 N 
ATOM      4  C7  UNL     1      20.814   3.432  30.558  0.00  0.00    +0.110 C 
ATOM      5  C8  UNL     1      20.624   3.545  29.052  0.00  0.00    +0.043 C 
ATOM      6  C9  UNL     1      20.517   2.114  28.502  0.00  0.00    +0.098 C 
ATOM      7  C10 UNL     1      20.566   1.164  29.716  0.00  0.00    +0.097 C 
ATOM      8  C11 UNL     1      21.750   0.179  29.642  0.00  0.00    +0.026 C 
ATOM      9  C12 UNL     1      23.054   0.918  29.333  0.00  0.00    +0.021 C 
ATOM     10  C13 UNL     1      22.981   1.659  27.987  0.00  0.00    +0.108 C 
ATOM     11  N3  UNL     1      21.595   1.841  27.529  0.00  0.00    -0.290 N 
ATOM     12  C14 UNL     1      21.362   2.042  26.123  0.00  0.00    +0.285 C 
ATOM     13  O2  UNL     1      22.175   2.729  25.447  0.00  0.00    -0.267 OA
ENDROOT
BRANCH  12  14
ATOM     14  C15 UNL     1      20.210   1.419  25.451  0.00  0.00    +0.222 A 
ATOM     15  C16 UNL     1      19.779   0.116  25.602  0.00  0.00    +0.080 A 
ATOM     16  C17 UNL     1      18.675   0.049  24.777  0.00  0.00    +0.081 A 
ATOM     17  C18 UNL     1      17.775  -1.129  24.615  0.00  0.00    +0.069 C 
ATOM     18  N4  UNL     1      18.466   1.246  24.193  0.00  0.00    -0.083 NA
ATOM     19  O3  UNL     1      19.405   2.040  24.618  0.00  0.00    -0.350 OA
ENDBRANCH  12  14
BRANCH   1  20
ATOM     20  C5  UNL     1      20.026   0.272  32.670  0.00  0.00    +0.111 C 
BRANCH  20  21
ATOM     21  C4  UNL     1      18.499   0.357  32.551  0.00  0.00    +0.093 C 
BRANCH  21  22
ATOM     22  N1  UNL     1      17.997   1.609  33.159  0.00  0.00    -0.305 NA
ATOM     23  C3  UNL     1      16.968   2.259  32.326  0.00  0.00    +0.104 C 
BRANCH  22  25
ATOM     24  C1  UNL     1      18.462   2.080  35.604  0.00  0.00    +0.020 C 
ATOM     25  C2  UNL     1      17.548   1.421  34.559  0.00  0.00    +0.081 C 
ENDBRANCH  22  25
ENDBRANCH  21  22
ENDBRANCH  20  21
ENDBRANCH   1  20
TORSDOF 5
ENDMDL
MODEL 2
REMARK VINA RESULT:    -5.701      2.556      7.779
REMARK INTER + INTRA:          -8.150
REMARK INTER:                  -7.425
REMARK INTRA:                  -0.725
REMARK UNBOUND:                -0.782
REMARK  Name = /home/qwerty/github/datacon2025hack/step_04_hit_selection/docking/ligands/lig_233.pdb
REMARK  8 active torsions:
REMARK  status: ('A' for Active; 'I' for Inactive)
REMARK    1  A    between atoms: C1_1  and  C2_2
REMARK    2  A    between atoms: C2_2  and  N1_3
REMARK    3  A    between atoms: N1_3  and  C3_4
REMARK    4  A    between atoms: N1_3  and  C4_5
REMARK    5  A    between atoms: C4_5  and  C5_6
REMARK    6  A    between atoms: C5_6  and  C6_7
REMARK    7  A    between atoms: C14_18  and  C15_20
REMARK    8  A    between atoms: C17_22  and  C18_23
REMARK                            x       y       z     vdW  Elec       q    Type
REMARK                         _______ _______ _______ _____ _____    ______ ____
ROOT
ATOM      1  C6  UNL     1      21.340   2.462  25.764  0.00  0.00    +0.217 C 
ATOM      2  O1  UNL     1      20.709   1.859  24.855  0.00  0.00    -0.276 OA
ATOM      3  N2  UNL     1      20.895   2.349  27.130  0.00  0.00    -0.297 N 
ATOM      4  C7  UNL     1      19.528   1.978  27.454  0.00  0.00    +0.110 C 
ATOM      5  C8  UNL     1      19.384   2.117  28.963  0.00  0.00    +0.043 C 
ATOM      6  C9  UNL     1      20.778   2.443  29.521  0.00  0.00    +0.098 C 
ATOM      7  C10 UNL     1      21.725   2.573  28.310  0.00  0.00    +0.097 C 
ATOM      8  C11 UNL     1      22.889   1.562  28.364  0.00  0.00    +0.026 C 
ATOM      9  C12 UNL     1      22.370   0.150  28.644  0.00  0.00    +0.021 C 
ATOM     10  C13 UNL     1      21.626   0.074  29.989  0.00  0.00    +0.108 C 
ATOM     11  N3  UNL     1      21.222   1.404  30.473  0.00  0.00    -0.290 N 
ATOM     12  C14 UNL     1      20.985   1.572  31.883  0.00  0.00    +0.285 C 
ATOM     13  O2  UNL     1      20.438   0.645  32.539  0.00  0.00    -0.267 OA
ENDROOT
BRANCH  12  14
ATOM     14  C15 UNL     1      21.413   2.796  32.581  0.00  0.00    +0.222 A 
ATOM     15  C16 UNL     1      22.557   3.526  32.328  0.00  0.00    +0.080 A 
ATOM     16  C17 UNL     1      22.477   4.564  33.232  0.00  0.00    +0.081 A 
ATOM     17  C18 UNL     1      23.434   5.703  33.343  0.00  0.00    +0.069 C 
ATOM     18  N4  UNL     1      21.346   4.455  33.957  0.00  0.00    -0.083 NA
ATOM     19  O3  UNL     1      20.736   3.384  33.541  0.00  0.00    -0.350 OA
ENDBRANCH  12  14
BRANCH   1  20
ATOM     20  C5  UNL     1      22.520   3.310  25.371  0.00  0.00    +0.111 C 
BRANCH  20  21
ATOM     21  C4  UNL     1      22.184   4.801  25.505  0.00  0.00    +0.093 C 
BRANCH  21  22
ATOM     22  N1  UNL     1      21.021   5.151  24.660  0.00  0.00    -0.305 NA
ATOM     23  C3  UNL     1      20.256   6.287  25.209  0.00  0.00    +0.104 C 
BRANCH  22  25
ATOM     24  C1  UNL     1      20.626   4.463  22.255  0.00  0.00    +0.020 C 
ATOM     25  C2  UNL     1      21.391   5.359  23.240  0.00  0.00    +0.081 C 
ENDBRANCH  22  25
ENDBRANCH  21  22
ENDBRANCH  20  21
ENDBRANCH   1  20
TORSDOF 5
ENDMDL
MODEL 3
REMARK VINA RESULT:    -5.600     13.539     15.398
REMARK INTER + INTRA:          -8.020
REMARK INTER:                  -7.349
REMARK INTRA:                  -0.671
REMARK UNBOUND:                -0.782
REMARK  Name = /home/qwerty/github/datacon2025hack/step_04_hit_selection/docking/ligands/lig_233.pdb
REMARK  8 active torsions:
REMARK  status: ('A' for Active; 'I' for Inactive)
REMARK    1  A    between atoms: C1_1  and  C2_2
REMARK    2  A    between atoms: C2_2  and  N1_3
REMARK    3  A    between atoms: N1_3  and  C3_4
REMARK    4  A    between atoms: N1_3  and  C4_5
REMARK    5  A    between atoms: C4_5  and  C5_6
REMARK    6  A    between atoms: C5_6  and  C6_7
REMARK    7  A    between atoms: C14_18  and  C15_20
REMARK    8  A    between atoms: C17_22  and  C18_23
REMARK                            x       y       z     vdW  Elec       q    Type
REMARK                         _______ _______ _______ _____ _____    ______ ____
ROOT
ATOM      1  C6  UNL     1      11.855  14.410  29.043  0.00  0.00    +0.217 C 
ATOM      2  O1  UNL     1      12.312  14.796  30.152  0.00  0.00    -0.276 OA
ATOM      3  N2  UNL     1      11.182  13.138  28.958  0.00  0.00    -0.297 N 
ATOM      4  C7  UNL     1      11.408  12.094  29.942  0.00  0.00    +0.110 C 
ATOM      5  C8  UNL     1      10.667  10.859  29.447  0.00  0.00    +0.043 C 
ATOM      6  C9  UNL     1       9.875  11.280  28.199  0.00  0.00    +0.098 C 
ATOM      7  C10 UNL     1      10.225  12.757  27.924  0.00  0.00    +0.097 C 
ATOM      8  C11 UNL     1       8.983  13.671  27.961  0.00  0.00    +0.026 C 
ATOM      9  C12 UNL     1       8.157  13.416  29.223  0.00  0.00    +0.021 C 
ATOM     10  C13 UNL     1       7.664  11.960  29.295  0.00  0.00    +0.108 C 
ATOM     11  N3  UNL     1       8.426  11.073  28.400  0.00  0.00    -0.290 N 
ATOM     12  C14 UNL     1       7.808   9.846  27.970  0.00  0.00    +0.285 C 
ATOM     13  O2  UNL     1       7.084   9.197  28.771  0.00  0.00    -0.267 OA
ENDROOT
BRANCH  12  14
ATOM     14  C15 UNL     1       7.974   9.360  26.590  0.00  0.00    +0.222 A 
ATOM     15  C16 UNL     1       8.007  10.133  25.446  0.00  0.00    +0.080 A 
ATOM     16  C17 UNL     1       8.193   9.206  24.442  0.00  0.00    +0.081 A 
ATOM     17  C18 UNL     1       8.373   9.512  22.993  0.00  0.00    +0.069 C 
ATOM     18  N4  UNL     1       8.281   7.969  24.970  0.00  0.00    -0.083 NA
ATOM     19  O3  UNL     1       8.143   8.100  26.257  0.00  0.00    -0.350 OA
ENDBRANCH  12  14
BRANCH   1  20
ATOM     20  C5  UNL     1      12.067  15.289  27.839  0.00  0.00    +0.111 C 
BRANCH  20  21
ATOM     21  C4  UNL     1      13.125  14.683  26.907  0.00  0.00    +0.093 C 
BRANCH  21  22
ATOM     22  N1  UNL     1      14.384  14.430  27.641  0.00  0.00    -0.305 NA
ATOM     23  C3  UNL     1      14.906  13.071  27.399  0.00  0.00    +0.104 C 
BRANCH  22  25
ATOM     24  C1  UNL     1      16.110  15.974  28.665  0.00  0.00    +0.020 C 
ATOM     25  C2  UNL     1      15.406  15.475  27.395  0.00  0.00    +0.081 C 
ENDBRANCH  22  25
ENDBRANCH  21  22
ENDBRANCH  20  21
ENDBRANCH   1  20
TORSDOF 5
ENDMDL
MODEL 4
REMARK VINA RESULT:    -5.483      7.354     11.169
REMARK INTER + INTRA:          -7.868
REMARK INTER:                  -6.992
REMARK INTRA:                  -0.876
REMARK UNBOUND:                -0.782
REMARK  Name = /home/qwerty/github/datacon2025hack/step_04_hit_selection/docking/ligands/lig_233.pdb
REMARK  8 active torsions:
REMARK  status: ('A' for Active; 'I' for Inactive)
REMARK    1  A    between atoms: C1_1  and  C2_2
REMARK    2  A    between atoms: C2_2  and  N1_3
REMARK    3  A    between atoms: N1_3  and  C3_4
REMARK    4  A    between atoms: N1_3  and  C4_5
REMARK    5  A    between atoms: C4_5  and  C5_6
REMARK    6  A    between atoms: C5_6  and  C6_7
REMARK    7  A    between atoms: C14_18  and  C15_20
REMARK    8  A    between atoms: C17_22  and  C18_23
REMARK                            x       y       z     vdW  Elec       q    Type
REMARK                         _______ _______ _______ _____ _____    ______ ____
ROOT
ATOM      1  C6  UNL     1      22.262   5.384  33.544  0.00  0.00    +0.217 C 
ATOM      2  O1  UNL     1      22.154   4.129  33.585  0.00  0.00    -0.276 OA
ATOM      3  N2  UNL     1      21.282   6.201  34.214  0.00  0.00    -0.297 N 
ATOM      4  C7  UNL     1      19.956   5.694  34.525  0.00  0.00    +0.110 C 
ATOM      5  C8  UNL     1      19.157   6.867  35.075  0.00  0.00    +0.043 C 
ATOM      6  C9  UNL     1      20.129   8.050  35.209  0.00  0.00    +0.098 C 
ATOM      7  C10 UNL     1      21.489   7.577  34.655  0.00  0.00    +0.097 C 
ATOM      8  C11 UNL     1      22.611   7.654  35.711  0.00  0.00    +0.026 C 
ATOM      9  C12 UNL     1      22.171   6.998  37.021  0.00  0.00    +0.021 C 
ATOM     10  C13 UNL     1      20.929   7.687  37.612  0.00  0.00    +0.108 C 
ATOM     11  N3  UNL     1      20.219   8.502  36.613  0.00  0.00    -0.290 N 
ATOM     12  C14 UNL     1      19.377   9.572  37.080  0.00  0.00    +0.285 C 
ATOM     13  O2  UNL     1      18.698   9.419  38.131  0.00  0.00    -0.267 OA
ENDROOT
BRANCH  12  14
ATOM     14  C15 UNL     1      19.331  10.861  36.371  0.00  0.00    +0.222 A 
ATOM     15  C16 UNL     1      18.202  11.492  35.889  0.00  0.00    +0.080 A 
ATOM     16  C17 UNL     1      18.699  12.653  35.334  0.00  0.00    +0.081 A 
ATOM     17  C18 UNL     1      17.889  13.748  34.727  0.00  0.00    +0.069 C 
ATOM     18  N4  UNL     1      20.036  12.704  35.499  0.00  0.00    -0.083 NA
ATOM     19  O3  UNL     1      20.379  11.614  36.121  0.00  0.00    -0.350 OA
ENDBRANCH  12  14
BRANCH   1  20
ATOM     20  C5  UNL     1      23.401   5.977  32.759  0.00  0.00    +0.111 C 
BRANCH  20  21
ATOM     21  C4  UNL     1      22.879   6.704  31.513  0.00  0.00    +0.093 C 
BRANCH  21  22
ATOM     22  N1  UNL     1      23.475   8.055  31.408  0.00  0.00    -0.305 NA
ATOM     23  C3  UNL     1      22.449   9.107  31.283  0.00  0.00    +0.104 C 
BRANCH  22  25
ATOM     24  C1  UNL     1      25.263   9.616  32.289  0.00  0.00    +0.020 C 
ATOM     25  C2  UNL     1      24.439   8.338  32.498  0.00  0.00    +0.081 C 
ENDBRANCH  22  25
ENDBRANCH  21  22
ENDBRANCH  20  21
ENDBRANCH   1  20
TORSDOF 5
ENDMDL
MODEL 5
REMARK VINA RESULT:    -5.367     12.485     14.132
REMARK INTER + INTRA:          -7.718
REMARK INTER:                  -7.188
REMARK INTRA:                  -0.531
REMARK UNBOUND:                -0.782
REMARK  Name = /home/qwerty/github/datacon2025hack/step_04_hit_selection/docking/ligands/lig_233.pdb
REMARK  8 active torsions:
REMARK  status: ('A' for Active; 'I' for Inactive)
REMARK    1  A    between atoms: C1_1  and  C2_2
REMARK    2  A    between atoms: C2_2  and  N1_3
REMARK    3  A    between atoms: N1_3  and  C3_4
REMARK    4  A    between atoms: N1_3  and  C4_5
REMARK    5  A    between atoms: C4_5  and  C5_6
REMARK    6  A    between atoms: C5_6  and  C6_7
REMARK    7  A    between atoms: C14_18  and  C15_20
REMARK    8  A    between atoms: C17_22  and  C18_23
REMARK                            x       y       z     vdW  Elec       q    Type
REMARK                         _______ _______ _______ _____ _____    ______ ____
ROOT
ATOM      1  C6  UNL     1      22.763  15.061  25.242  0.00  0.00    +0.217 C 
ATOM      2  O1  UNL     1      23.140  16.152  25.747  0.00  0.00    -0.276 OA
ATOM      3  N2  UNL     1      22.052  15.068  23.988  0.00  0.00    -0.297 N 
ATOM      4  C7  UNL     1      21.351  16.251  23.521  0.00  0.00    +0.110 C 
ATOM      5  C8  UNL     1      20.595  15.844  22.264  0.00  0.00    +0.043 C 
ATOM      6  C9  UNL     1      21.010  14.401  21.937  0.00  0.00    +0.098 C 
ATOM      7  C10 UNL     1      21.957  13.941  23.065  0.00  0.00    +0.097 C 
ATOM      8  C11 UNL     1      23.350  13.545  22.536  0.00  0.00    +0.026 C 
ATOM      9  C12 UNL     1      23.909  14.627  21.609  0.00  0.00    +0.021 C 
ATOM     10  C13 UNL     1      22.997  14.857  20.391  0.00  0.00    +0.108 C 
ATOM     11  N3  UNL     1      21.642  14.323  20.604  0.00  0.00    -0.290 N 
ATOM     12  C14 UNL     1      20.847  14.002  19.449  0.00  0.00    +0.285 C 
ATOM     13  O2  UNL     1      20.908  14.736  18.425  0.00  0.00    -0.267 OA
ENDROOT
BRANCH  12  14
ATOM     14  C15 UNL     1      19.994  12.802  19.427  0.00  0.00    +0.222 A 
ATOM     15  C16 UNL     1      20.378  11.531  19.048  0.00  0.00    +0.080 A 
ATOM     16  C17 UNL     1      19.228  10.788  19.222  0.00  0.00    +0.081 A 
ATOM     17  C18 UNL     1      19.102   9.315  19.023  0.00  0.00    +0.069 C 
ATOM     18  N4  UNL     1      18.240  11.575  19.690  0.00  0.00    -0.083 NA
ATOM     19  O3  UNL     1      18.734  12.774  19.798  0.00  0.00    -0.350 OA
ENDBRANCH  12  14
BRANCH   1  20
ATOM     20  C5  UNL     1      23.044  13.790  25.999  0.00  0.00    +0.111 C 
BRANCH  20  21
ATOM     21  C4  UNL     1      23.550  14.102  27.413  0.00  0.00    +0.093 C 
BRANCH  21  22
ATOM     22  N1  UNL     1      22.493  13.840  28.415  0.00  0.00    -0.305 NA
ATOM     23  C3  UNL     1      22.985  13.028  29.544  0.00  0.00    +0.104 C 
BRANCH  22  25
ATOM     24  C1  UNL     1      21.829  15.278  30.391  0.00  0.00    +0.020 C 
ATOM     25  C2  UNL     1      21.819  15.080  28.868  0.00  0.00    +0.081 C 
ENDBRANCH  22  25
ENDBRANCH  21  22
ENDBRANCH  20  21
ENDBRANCH   1  20
TORSDOF 5
ENDMDL
MODEL 6
REMARK VINA RESULT:    -5.348     13.291     14.553
REMARK INTER + INTRA:          -7.694
REMARK INTER:                  -6.705
REMARK INTRA:                  -0.989
REMARK UNBOUND:                -0.782
REMARK  Name = /home/qwerty/github/datacon2025hack/step_04_hit_selection/docking/ligands/lig_233.pdb
REMARK  8 active torsions:
REMARK  status: ('A' for Active; 'I' for Inactive)
REMARK    1  A    between atoms: C1_1  and  C2_2
REMARK    2  A    between atoms: C2_2  and  N1_3
REMARK    3  A    between atoms: N1_3  and  C3_4
REMARK    4  A    between atoms: N1_3  and  C4_5
REMARK    5  A    between atoms: C4_5  and  C5_6
REMARK    6  A    between atoms: C5_6  and  C6_7
REMARK    7  A    between atoms: C14_18  and  C15_20
REMARK    8  A    between atoms: C17_22  and  C18_23
REMARK                            x       y       z     vdW  Elec       q    Type
REMARK                         _______ _______ _______ _____ _____    ______ ____
ROOT
ATOM      1  C6  UNL     1      14.125  12.565  34.632  0.00  0.00    +0.217 C 
ATOM      2  O1  UNL     1      15.013  13.247  35.209  0.00  0.00    -0.276 OA
ATOM      3  N2  UNL     1      13.301  13.183  33.622  0.00  0.00    -0.297 N 
ATOM      4  C7  UNL     1      13.123  14.623  33.567  0.00  0.00    +0.110 C 
ATOM      5  C8  UNL     1      12.079  14.893  32.493  0.00  0.00    +0.043 C 
ATOM      6  C9  UNL     1      11.767  13.547  31.820  0.00  0.00    +0.098 C 
ATOM      7  C10 UNL     1      12.582  12.473  32.569  0.00  0.00    +0.097 C 
ATOM      8  C11 UNL     1      13.562  11.727  31.640  0.00  0.00    +0.026 C 
ATOM      9  C12 UNL     1      14.384  12.716  30.809  0.00  0.00    +0.021 C 
ATOM     10  C13 UNL     1      13.486  13.598  29.925  0.00  0.00    +0.108 C 
ATOM     11  N3  UNL     1      12.085  13.592  30.377  0.00  0.00    -0.290 N 
ATOM     12  C14 UNL     1      11.060  13.927  29.425  0.00  0.00    +0.285 C 
ATOM     13  O2  UNL     1      11.274  14.826  28.567  0.00  0.00    -0.267 OA
ENDROOT
BRANCH  12  14
ATOM     14  C15 UNL     1       9.778  13.203  29.408  0.00  0.00    +0.222 A 
ATOM     15  C16 UNL     1       9.610  11.834  29.345  0.00  0.00    +0.080 A 
ATOM     16  C17 UNL     1       8.240  11.681  29.371  0.00  0.00    +0.081 A 
ATOM     17  C18 UNL     1       7.506  10.383  29.397  0.00  0.00    +0.069 C 
ATOM     18  N4  UNL     1       7.645  12.887  29.462  0.00  0.00    -0.083 NA
ATOM     19  O3  UNL     1       8.596  13.774  29.479  0.00  0.00    -0.350 OA
ENDBRANCH  12  14
BRANCH   1  20
ATOM     20  C5  UNL     1      13.938  11.132  35.053  0.00  0.00    +0.111 C 
BRANCH  20  21
ATOM     21  C4  UNL     1      13.177  11.053  36.383  0.00  0.00    +0.093 C 
BRANCH  21  22
ATOM     22  N1  UNL     1      11.717  11.129  36.154  0.00  0.00    -0.305 NA
ATOM     23  C3  UNL     1      11.040   9.852  36.452  0.00  0.00    +0.104 C 
BRANCH  22  25
ATOM     24  C1  UNL     1      10.553  13.365  35.919  0.00  0.00    +0.020 C 
ATOM     25  C2  UNL     1      11.090  12.273  36.856  0.00  0.00    +0.081 C 
ENDBRANCH  22  25
ENDBRANCH  21  22
ENDBRANCH  20  21
ENDBRANCH   1  20
TORSDOF 5
ENDMDL
MODEL 7
REMARK VINA RESULT:    -5.333     13.240     15.602
REMARK INTER + INTRA:          -7.674
REMARK INTER:                  -7.062
REMARK INTRA:                  -0.612
REMARK UNBOUND:                -0.782
REMARK  Name = /home/qwerty/github/datacon2025hack/step_04_hit_selection/docking/ligands/lig_233.pdb
REMARK  8 active torsions:
REMARK  status: ('A' for Active; 'I' for Inactive)
REMARK    1  A    between atoms: C1_1  and  C2_2
REMARK    2  A    between atoms: C2_2  and  N1_3
REMARK    3  A    between atoms: N1_3  and  C3_4
REMARK    4  A    between atoms: N1_3  and  C4_5
REMARK    5  A    between atoms: C4_5  and  C5_6
REMARK    6  A    between atoms: C5_6  and  C6_7
REMARK    7  A    between atoms: C14_18  and  C15_20
REMARK    8  A    between atoms: C17_22  and  C18_23
REMARK                            x       y       z     vdW  Elec       q    Type
REMARK                         _______ _______ _______ _____ _____    ______ ____
ROOT
ATOM      1  C6  UNL     1       7.748   9.624  28.178  0.00  0.00    +0.217 C 
ATOM      2  O1  UNL     1       7.570   9.112  27.041  0.00  0.00    -0.276 OA
ATOM      3  N2  UNL     1       8.913  10.439  28.415  0.00  0.00    -0.297 N 
ATOM      4  C7  UNL     1      10.100  10.322  27.586  0.00  0.00    +0.110 C 
ATOM      5  C8  UNL     1      11.165  11.206  28.221  0.00  0.00    +0.043 C 
ATOM      6  C9  UNL     1      10.492  11.960  29.378  0.00  0.00    +0.098 C 
ATOM      7  C10 UNL     1       9.040  11.446  29.463  0.00  0.00    +0.097 C 
ATOM      8  C11 UNL     1       8.007  12.575  29.270  0.00  0.00    +0.026 C 
ATOM      9  C12 UNL     1       8.337  13.409  28.031  0.00  0.00    +0.021 C 
ATOM     10  C13 UNL     1       9.725  14.064  28.141  0.00  0.00    +0.108 C 
ATOM     11  N3  UNL     1      10.562  13.421  29.167  0.00  0.00    -0.290 N 
ATOM     12  C14 UNL     1      11.642  14.180  29.740  0.00  0.00    +0.285 C 
ATOM     13  O2  UNL     1      12.309  14.964  29.013  0.00  0.00    -0.267 OA
ENDROOT
BRANCH  12  14
ATOM     14  C15 UNL     1      11.951  14.088  31.177  0.00  0.00    +0.222 A 
ATOM     15  C16 UNL     1      13.197  13.887  31.736  0.00  0.00    +0.080 A 
ATOM     16  C17 UNL     1      12.941  13.896  33.092  0.00  0.00    +0.081 A 
ATOM     17  C18 UNL     1      13.962  13.790  34.174  0.00  0.00    +0.069 C 
ATOM     18  N4  UNL     1      11.628  14.106  33.309  0.00  0.00    -0.083 NA
ATOM     19  O3  UNL     1      11.066  14.214  32.141  0.00  0.00    -0.350 OA
ENDBRANCH  12  14
BRANCH   1  20
ATOM     20  C5  UNL     1       6.743   9.327  29.259  0.00  0.00    +0.111 C 
BRANCH  20  21
ATOM     21  C4  UNL     1       7.261   8.225  30.193  0.00  0.00    +0.093 C 
BRANCH  21  22
ATOM     22  N1  UNL     1       7.784   7.083  29.411  0.00  0.00    -0.305 NA
ATOM     23  C3  UNL     1       8.992   6.496  30.023  0.00  0.00    +0.104 C 
BRANCH  22  25
ATOM     24  C1  UNL     1       6.290   5.275  30.367  0.00  0.00    +0.020 C 
ATOM     25  C2  UNL     1       6.747   6.063  29.130  0.00  0.00    +0.081 C 
ENDBRANCH  22  25
ENDBRANCH  21  22
ENDBRANCH  20  21
ENDBRANCH   1  20
TORSDOF 5
ENDMDL
MODEL 8
REMARK VINA RESULT:    -5.226     12.727     14.453
REMARK INTER + INTRA:          -7.536
REMARK INTER:                  -6.513
REMARK INTRA:                  -1.023
REMARK UNBOUND:                -0.782
REMARK  Name = /home/qwerty/github/datacon2025hack/step_04_hit_selection/docking/ligands/lig_233.pdb
REMARK  8 active torsions:
REMARK  status: ('A' for Active; 'I' for Inactive)
REMARK    1  A    between atoms: C1_1  and  C2_2
REMARK    2  A    between atoms: C2_2  and  N1_3
REMARK    3  A    between atoms: N1_3  and  C3_4
REMARK    4  A    between atoms: N1_3  and  C4_5
REMARK    5  A    between atoms: C4_5  and  C5_6
REMARK    6  A    between atoms: C5_6  and  C6_7
REMARK    7  A    between atoms: C14_18  and  C15_20
REMARK    8  A    between atoms: C17_22  and  C18_23
REMARK                            x       y       z     vdW  Elec       q    Type
REMARK                         _______ _______ _______ _____ _____    ______ ____
ROOT
ATOM      1  C6  UNL     1       8.663   9.750  29.299  0.00  0.00    +0.217 C 
ATOM      2  O1  UNL     1       9.077   9.303  30.402  0.00  0.00    -0.276 OA
ATOM      3  N2  UNL     1       9.182   9.200  28.072  0.00  0.00    -0.297 N 
ATOM      4  C7  UNL     1      10.461   8.512  28.031  0.00  0.00    +0.110 C 
ATOM      5  C8  UNL     1      10.752   8.218  26.566  0.00  0.00    +0.043 C 
ATOM      6  C9  UNL     1       9.507   8.636  25.767  0.00  0.00    +0.098 C 
ATOM      7  C10 UNL     1       8.516   9.253  26.774  0.00  0.00    +0.097 C 
ATOM      8  C11 UNL     1       7.173   8.496  26.814  0.00  0.00    +0.026 C 
ATOM      9  C12 UNL     1       7.401   6.990  26.956  0.00  0.00    +0.021 C 
ATOM     10  C13 UNL     1       8.218   6.426  25.780  0.00  0.00    +0.108 C 
ATOM     11  N3  UNL     1       8.932   7.483  25.045  0.00  0.00    -0.290 N 
ATOM     12  C14 UNL     1       9.312   7.227  23.680  0.00  0.00    +0.285 C 
ATOM     13  O2  UNL     1       9.701   6.075  23.346  0.00  0.00    -0.267 OA
ENDROOT
BRANCH  12  14
ATOM     14  C15 UNL     1       9.210   8.280  22.657  0.00  0.00    +0.222 A 
ATOM     15  C16 UNL     1      10.227   8.730  21.839  0.00  0.00    +0.080 A 
ATOM     16  C17 UNL     1       9.611   9.693  21.068  0.00  0.00    +0.081 A 
ATOM     17  C18 UNL     1      10.244  10.459  19.955  0.00  0.00    +0.069 C 
ATOM     18  N4  UNL     1       8.309   9.787  21.404  0.00  0.00    -0.083 NA
ATOM     19  O3  UNL     1       8.106   8.928  22.360  0.00  0.00    -0.350 OA
ENDBRANCH  12  14
BRANCH   1  20
ATOM     20  C5  UNL     1       7.661  10.873  29.315  0.00  0.00    +0.111 C 
BRANCH  20  21
ATOM     21  C4  UNL     1       8.371  12.230  29.408  0.00  0.00    +0.093 C 
BRANCH  21  22
ATOM     22  N1  UNL     1       8.782  12.696  28.065  0.00  0.00    -0.305 NA
ATOM     23  C3  UNL     1       7.939  13.806  27.579  0.00  0.00    +0.104 C 
BRANCH  22  25
ATOM     24  C1  UNL     1      11.026  12.095  27.057  0.00  0.00    +0.020 C 
ATOM     25  C2  UNL     1      10.227  13.016  27.991  0.00  0.00    +0.081 C 
ENDBRANCH  22  25
ENDBRANCH  21  22
ENDBRANCH  20  21
ENDBRANCH   1  20
TORSDOF 5
ENDMDL
MODEL 9
REMARK VINA RESULT:    -5.155     12.474     14.118
REMARK INTER + INTRA:          -7.445
REMARK INTER:                  -6.782
REMARK INTRA:                  -0.662
REMARK UNBOUND:                -0.782
REMARK  Name = /home/qwerty/github/datacon2025hack/step_04_hit_selection/docking/ligands/lig_233.pdb
REMARK  8 active torsions:
REMARK  status: ('A' for Active; 'I' for Inactive)
REMARK    1  A    between atoms: C1_1  and  C2_2
REMARK    2  A    between atoms: C2_2  and  N1_3
REMARK    3  A    between atoms: N1_3  and  C3_4
REMARK    4  A    between atoms: N1_3  and  C4_5
REMARK    5  A    between atoms: C4_5  and  C5_6
REMARK    6  A    between atoms: C5_6  and  C6_7
REMARK    7  A    between atoms: C14_18  and  C15_20
REMARK    8  A    between atoms: C17_22  and  C18_23
REMARK                            x       y       z     vdW  Elec       q    Type
REMARK                         _______ _______ _______ _____ _____    ______ ____
ROOT
ATOM      1  C6  UNL     1      22.442  15.667  26.257  0.00  0.00    +0.217 C 
ATOM      2  O1  UNL     1      22.147  16.793  26.742  0.00  0.00    -0.276 OA
ATOM      3  N2  UNL     1      22.286  15.443  24.841  0.00  0.00    -0.297 N 
ATOM      4  C7  UNL     1      21.391  16.258  24.039  0.00  0.00    +0.110 C 
ATOM      5  C8  UNL     1      21.363  15.638  22.649  0.00  0.00    +0.043 C 
ATOM      6  C9  UNL     1      22.403  14.507  22.640  0.00  0.00    +0.098 C 
ATOM      7  C10 UNL     1      22.983  14.421  24.067  0.00  0.00    +0.097 C 
ATOM      8  C11 UNL     1      24.507  14.653  24.095  0.00  0.00    +0.026 C 
ATOM      9  C12 UNL     1      24.881  15.911  23.309  0.00  0.00    +0.021 C 
ATOM     10  C13 UNL     1      24.454  15.807  21.834  0.00  0.00    +0.108 C 
ATOM     11  N3  UNL     1      23.445  14.756  21.623  0.00  0.00    -0.290 N 
ATOM     12  C14 UNL     1      23.312  14.194  20.305  0.00  0.00    +0.285 C 
ATOM     13  O2  UNL     1      23.438  14.936  19.293  0.00  0.00    -0.267 OA
ENDROOT
BRANCH  12  14
ATOM     14  C15 UNL     1      23.076  12.753  20.118  0.00  0.00    +0.222 A 
ATOM     15  C16 UNL     1      23.800  11.723  20.684  0.00  0.00    +0.080 A 
ATOM     16  C17 UNL     1      23.169  10.592  20.207  0.00  0.00    +0.081 A 
ATOM     17  C18 UNL     1      23.507   9.186  20.569  0.00  0.00    +0.069 C 
ATOM     18  N4  UNL     1      22.130  10.943  19.425  0.00  0.00    -0.083 NA
ATOM     19  O3  UNL     1      22.106  12.243  19.392  0.00  0.00    -0.350 OA
ENDBRANCH  12  14
BRANCH   1  20
ATOM     20  C5  UNL     1      22.914  14.588  27.194  0.00  0.00    +0.111 C 
BRANCH  20  21
ATOM     21  C4  UNL     1      21.724  13.784  27.737  0.00  0.00    +0.093 C 
BRANCH  21  22
ATOM     22  N1  UNL     1      21.875  13.546  29.189  0.00  0.00    -0.305 NA
ATOM     23  C3  UNL     1      23.291  13.437  29.591  0.00  0.00    +0.104 C 
BRANCH  22  25
ATOM     24  C1  UNL     1      22.033  15.517  30.771  0.00  0.00    +0.020 C 
ATOM     25  C2  UNL     1      21.134  14.534  30.008  0.00  0.00    +0.081 C 
ENDBRANCH  22  25
ENDBRANCH  21  22
ENDBRANCH  20  21
ENDBRANCH   1  20
TORSDOF 5
ENDMDL
