REMARK  Name = /home/qwerty/github/datacon2025hack/step_04_hit_selection/docking/ligands/lig_665.pdb
REMARK  11 active torsions:
REMARK  status: ('A' for Active; 'I' for Inactive)
REMARK    1  A    between atoms: C1_1  and  C2_2
REMARK    2  A    between atoms: C2_2  and  C3_3
REMARK    3  A    between atoms: C2_2  and  C4_4
REMARK    4  A    between atoms: C4_4  and  C5_5
REMARK    5  A    between atoms: C5_5  and  C6_6
REMARK    6  A    between atoms: C5_5  and  C13_20
REMARK    7  A    between atoms: C6_6  and  N1_7
REMARK    8  A    between atoms: C7_8  and  C8_10
REMARK    9  A    between atoms: N2_12  and  C10_13
REMARK   10  A    between atoms: C11_15  and  C12_16
REMARK   11  A    between atoms: C13_20  and  O3_22
REMARK                            x       y       z     vdW  Elec       q    Type
REMARK                         _______ _______ _______ _____ _____    ______ ____
ROOT
ATOM      1  N1  UNL     1       0.258  -0.392   1.310  0.00  0.00    -0.310 N 
ATOM      2  C7  UNL     1       1.400  -1.074   0.769  0.00  0.00    +0.248 C 
ATOM      3  O1  UNL     1       1.371  -2.326   0.630  0.00  0.00    -0.270 OA
ATOM      4  H13 UNL     1       0.357   0.596   1.631  0.00  0.00    +0.149 HD
ENDROOT
BRANCH   2   5
ATOM      5  C8  UNL     1       2.609  -0.319   0.373  0.00  0.00    +0.086 A 
ATOM      6  C9  UNL     1       2.734   1.056   0.286  0.00  0.00    +0.121 A 
ATOM      7  N2  UNL     1       3.981   1.339  -0.131  0.00  0.00    -0.273 N 
ATOM      8  C10 UNL     1       4.540   2.674  -0.298  0.00  0.00    +0.172 C 
ATOM      9  N3  UNL     1       4.673   0.224  -0.301  0.00  0.00    -0.167 NA
ATOM     10  C11 UNL     1       3.857  -0.809  -0.008  0.00  0.00    +0.177 A 
BRANCH  10  11
ATOM     11  C12 UNL     1       4.286  -2.243  -0.093  0.00  0.00    +0.437 C 
ATOM     12  F1  UNL     1       3.544  -2.896  -1.060  0.00  0.00    -0.164 F 
ATOM     13  F2  UNL     1       4.100  -2.862   1.130  0.00  0.00    -0.164 F 
ATOM     14  F3  UNL     1       5.625  -2.319  -0.431  0.00  0.00    -0.164 F 
ENDBRANCH  10  11
ENDBRANCH   2   5
BRANCH   1  15
ATOM     15  C6  UNL     1      -1.026  -1.058   1.526  0.00  0.00    +0.119 C 
BRANCH  15  16
ATOM     16  C5  UNL     1      -1.735  -1.354   0.186  0.00  0.00    +0.115 C 
BRANCH  16  17
ATOM     17  C13 UNL     1      -2.969  -2.200   0.373  0.00  0.00    +0.309 C 
ATOM     18  O2  UNL     1      -3.637  -2.146   1.441  0.00  0.00    -0.251 OA
BRANCH  17  19
ATOM     19  O3  UNL     1      -3.398  -3.020  -0.666  0.00  0.00    -0.480 OA
ATOM     20  H18 UNL     1      -4.234  -3.586  -0.571  0.00  0.00    +0.295 HD
ENDBRANCH  17  19
ENDBRANCH  16  17
BRANCH  16  21
ATOM     21  C4  UNL     1      -2.051  -0.081  -0.636  0.00  0.00    +0.019 C 
BRANCH  21  23
ATOM     22  C1  UNL     1      -4.183   1.277  -0.958  0.00  0.00    +0.007 C 
ATOM     23  C2  UNL     1      -3.072   0.893   0.027  0.00  0.00    -0.016 C 
ATOM     24  C3  UNL     1      -2.380   2.161   0.548  0.00  0.00    +0.007 C 
ENDBRANCH  21  23
ENDBRANCH  16  21
ENDBRANCH  15  16
ENDBRANCH   1  15
TORSDOF 8
