REMARK  Name = /home/qwerty/github/datacon2025hack/step_04_hit_selection/docking/ligands/lig_53.pdb
REMARK  8 active torsions:
REMARK  status: ('A' for Active; 'I' for Inactive)
REMARK    1  A    between atoms: C1_1  and  C2_2
REMARK    2  A    between atoms: C2_2  and  C3_3
REMARK    3  A    between atoms: C2_2  and  N8_17
REMARK    4  A    between atoms: C3_3  and  N1_4
REMARK    5  A    between atoms: N1_4  and  C4_5
REMARK    6  A    between atoms: N1_4  and  C5_6
REMARK    7  A    between atoms: C7_9  and  C8_10
REMARK    8  A    between atoms: C10_18  and  C11_20
REMARK                            x       y       z     vdW  Elec       q    Type
REMARK                         _______ _______ _______ _____ _____    ______ ____
ROOT
ATOM      1  C1  UNL     1       1.358   3.069  -0.159  0.00  0.00    +0.029 C 
ATOM      2  C2  UNL     1       0.197   2.638  -1.065  0.00  0.00    +0.087 C 
ENDROOT
BRANCH   2   3
ATOM      3  N8  UNL     1      -0.799   1.880  -0.299  0.00  0.00    -0.307 N 
ATOM      4  C10 UNL     1      -2.126   1.639  -0.798  0.00  0.00    +0.244 C 
ATOM      5  O1  UNL     1      -2.536   2.278  -1.805  0.00  0.00    -0.270 OA
ATOM      6  H13 UNL     1      -0.558   1.562   0.667  0.00  0.00    +0.149 HD
BRANCH   4   7
ATOM      7  C11 UNL     1      -3.026   0.658  -0.143  0.00  0.00    +0.037 A 
ATOM      8  C12 UNL     1      -4.423   0.735  -0.350  0.00  0.00    +0.013 A 
ATOM      9  C13 UNL     1      -5.287  -0.194   0.249  0.00  0.00    +0.004 A 
ATOM     10  C14 UNL     1      -4.744  -1.199   1.049  0.00  0.00    -0.044 A 
ATOM     11  C15 UNL     1      -3.392  -1.290   1.250  0.00  0.00    -0.043 A 
ATOM     12  C16 UNL     1      -2.510  -0.378   0.667  0.00  0.00    +0.017 A 
ATOM     13  C17 UNL     1      -3.033  -2.435   2.116  0.00  0.00    +0.036 C 
ATOM     14  C18 UNL     1      -4.386  -3.097   2.443  0.00  0.00    +0.009 C 
ATOM     15  C19 UNL     1      -5.487  -2.268   1.753  0.00  0.00    +0.036 C 
ENDBRANCH   4   7
ENDBRANCH   2   3
BRANCH   2  16
ATOM     16  C3  UNL     1       0.678   1.832  -2.291  0.00  0.00    +0.128 C 
BRANCH  16  17
ATOM     17  N1  UNL     1       1.062   0.451  -1.939  0.00  0.00    -0.315 N 
ATOM     18  C4  UNL     1       0.128  -0.649  -2.206  0.00  0.00    +0.131 C 
BRANCH  17  19
ATOM     19  C5  UNL     1       2.322   0.134  -1.307  0.00  0.00    +0.139 A 
ATOM     20  C6  UNL     1       3.496   0.860  -1.575  0.00  0.00    +0.155 A 
ATOM     21  N2  UNL     1       4.653   0.519  -0.950  0.00  0.00    -0.247 NA
ATOM     22  C7  UNL     1       4.712  -0.517  -0.071  0.00  0.00    +0.130 A 
ATOM     23  C9  UNL     1       3.549  -1.252   0.186  0.00  0.00    +0.144 A 
ATOM     24  N7  UNL     1       2.392  -0.911  -0.436  0.00  0.00    -0.237 NA
BRANCH  22  25
ATOM     25  C8  UNL     1       5.988  -0.846   0.583  0.00  0.00    +0.224 A 
ATOM     26  N3  UNL     1       6.164  -1.855   1.459  0.00  0.00    -0.106 NA
ATOM     27  N4  UNL     1       7.442  -1.793   1.796  0.00  0.00    -0.048 NA
ATOM     28  N5  UNL     1       8.011  -0.789   1.151  0.00  0.00    -0.176 N 
ATOM     29  N6  UNL     1       7.135  -0.169   0.380  0.00  0.00    -0.131 NA
ATOM     30  H11 UNL     1       9.016  -0.524   1.239  0.00  0.00    +0.214 HD
ENDBRANCH  22  25
ENDBRANCH  17  19
ENDBRANCH  16  17
ENDBRANCH   2  16
TORSDOF 6
