REMARK  Name = /home/qwerty/github/datacon2025hack/step_04_hit_selection/docking/ligands/lig_167.pdb
REMARK  7 active torsions:
REMARK  status: ('A' for Active; 'I' for Inactive)
REMARK    1  A    between atoms: C1_1  and  C2_2
REMARK    2  A    between atoms: C2_2  and  C3_3
REMARK    3  A    between atoms: C3_3  and  C4_4
REMARK    4  A    between atoms: C3_3  and  C5_5
REMARK    5  A    between atoms: N5_19  and  C15_20
REMARK    6  A    between atoms: C15_20  and  C16_21
REMARK    7  A    between atoms: C20_25  and  C21_26
REMARK                            x       y       z     vdW  Elec       q    Type
REMARK                         _______ _______ _______ _____ _____    ______ ____
ROOT
ATOM      1  C5  UNL     1       1.793   1.639   0.472  0.00  0.00    +0.138 A 
ATOM      2  N1  UNL     1       1.330   2.171   1.623  0.00  0.00    -0.132 NA
ATOM      3  N2  UNL     1       0.140   1.638   1.853  0.00  0.00    -0.113 NA
ATOM      4  C6  UNL     1      -0.108   0.796   0.833  0.00  0.00    +0.220 A 
ATOM      5  N3  UNL     1      -1.294  -0.007   0.749  0.00  0.00    -0.297 N 
ATOM      6  C7  UNL     1      -1.762  -0.753   1.916  0.00  0.00    +0.123 C 
ATOM      7  C8  UNL     1      -3.110  -0.188   2.388  0.00  0.00    +0.103 C 
ATOM      8  N4  UNL     1      -4.092  -0.070   1.286  0.00  0.00    -0.296 NA
ATOM      9  C9  UNL     1      -4.633  -1.385   0.879  0.00  0.00    +0.085 C 
ATOM     10  C10 UNL     1      -5.745  -1.209  -0.156  0.00  0.00    +0.015 C 
ATOM     11  C11 UNL     1      -5.222  -0.455  -1.379  0.00  0.00    +0.003 C 
ATOM     12  C12 UNL     1      -4.605   0.884  -0.965  0.00  0.00    +0.020 C 
ATOM     13  C13 UNL     1      -3.553   0.723   0.152  0.00  0.00    +0.074 C 
ATOM     14  C14 UNL     1      -2.219   0.154  -0.374  0.00  0.00    +0.126 C 
ATOM     15  N5  UNL     1       0.900   0.773  -0.063  0.00  0.00    -0.293 N 
ENDROOT
BRANCH   1  16
ATOM     16  C3  UNL     1       3.151   1.974  -0.102  0.00  0.00    +0.054 C 
ATOM     17  C4  UNL     1       4.245   1.613   0.909  0.00  0.00    +0.015 C 
BRANCH  16  19
ATOM     18  C1  UNL     1       2.282   3.821  -1.626  0.00  0.00    +0.004 C 
ATOM     19  C2  UNL     1       3.235   3.465  -0.484  0.00  0.00    +0.007 C 
ENDBRANCH  16  19
ENDBRANCH   1  16
BRANCH  15  20
ATOM     20  C15 UNL     1       1.088  -0.154  -1.183  0.00  0.00    +0.181 C 
BRANCH  20  21
ATOM     21  C16 UNL     1       1.871  -1.350  -0.730  0.00  0.00    +0.062 A 
ATOM     22  C17 UNL     1       1.229  -2.437  -0.121  0.00  0.00    +0.025 A 
ATOM     23  C18 UNL     1       1.993  -3.508   0.344  0.00  0.00    +0.004 A 
ATOM     24  C19 UNL     1       3.382  -3.484   0.210  0.00  0.00    +0.032 A 
ATOM     25  C20 UNL     1       3.996  -2.378  -0.396  0.00  0.00    +0.144 A 
ATOM     26  N6  UNL     1       3.227  -1.346  -0.842  0.00  0.00    -0.246 NA
BRANCH  25  27
ATOM     27  C21 UNL     1       5.489  -2.313  -0.528  0.00  0.00    +0.434 C 
ATOM     28  F1  UNL     1       5.868  -1.163  -1.198  0.00  0.00    -0.164 F 
ATOM     29  F2  UNL     1       6.065  -2.310   0.729  0.00  0.00    -0.164 F 
ATOM     30  F3  UNL     1       5.942  -3.413  -1.234  0.00  0.00    -0.164 F 
ENDBRANCH  25  27
ENDBRANCH  20  21
ENDBRANCH  15  20
TORSDOF 5
