REMARK  Name = /home/qwerty/github/datacon2025hack/step_04_hit_selection/docking/ligands/lig_62.pdb
REMARK  8 active torsions:
REMARK  status: ('A' for Active; 'I' for Inactive)
REMARK    1  A    between atoms: C1_1  and  N1_2
REMARK    2  A    between atoms: N1_2  and  C2_3
REMARK    3  A    between atoms: C3_4  and  C4_6
REMARK    4  A    between atoms: C7_9  and  N2_10
REMARK    5  A    between atoms: N3_13  and  C9_14
REMARK    6  A    between atoms: C9_14  and  C10_15
REMARK    7  A    between atoms: C9_14  and  C11_17
REMARK    8  A    between atoms: C10_15  and  O3_16
REMARK                            x       y       z     vdW  Elec       q    Type
REMARK                         _______ _______ _______ _____ _____    ______ ____
ROOT
ATOM      1  N2  UNL     1       0.144   0.314   0.904  0.00  0.00    -0.269 N 
ATOM      2  C8  UNL     1      -0.690   0.833  -0.143  0.00  0.00    +0.304 C 
ATOM      3  O2  UNL     1      -0.382   0.649  -1.352  0.00  0.00    -0.252 OA
ATOM      4  N3  UNL     1      -1.900   1.525   0.197  0.00  0.00    -0.294 N 
ATOM      5  H9  UNL     1      -0.272   0.236   1.860  0.00  0.00    +0.156 HD
ATOM      6  H10 UNL     1      -2.106   1.670   1.210  0.00  0.00    +0.151 HD
ENDROOT
BRANCH   1  10
ATOM      7  C4  UNL     1       4.059  -1.271   0.374  0.00  0.00    +0.037 A 
ATOM      8  C5  UNL     1       3.187  -1.814   1.331  0.00  0.00    +0.015 A 
ATOM      9  C6  UNL     1       1.905  -1.284   1.500  0.00  0.00    +0.024 A 
ATOM     10  C7  UNL     1       1.460  -0.225   0.695  0.00  0.00    +0.035 A 
ATOM     11  C17 UNL     1       2.333   0.319  -0.263  0.00  0.00    +0.024 A 
ATOM     12  C18 UNL     1       3.617  -0.209  -0.430  0.00  0.00    +0.015 A 
BRANCH   7  16
ATOM     13  C1  UNL     1       7.730  -1.564  -0.706  0.00  0.00    +0.132 C 
ATOM     14  N1  UNL     1       6.569  -1.014  -0.002  0.00  0.00    -0.304 N 
ATOM     15  C2  UNL     1       6.651   0.305   0.636  0.00  0.00    +0.132 C 
ATOM     16  C3  UNL     1       5.408  -1.847   0.191  0.00  0.00    +0.246 C 
ATOM     17  O1  UNL     1       5.540  -3.101   0.214  0.00  0.00    -0.270 OA
ENDBRANCH   7  16
ENDBRANCH   1  10
BRANCH   4  18
ATOM     18  C9  UNL     1      -2.898   1.940  -0.799  0.00  0.00    +0.103 C 
BRANCH  18  19
ATOM     19  C11 UNL     1      -4.128   0.980  -0.820  0.00  0.00    +0.012 C 
ATOM     20  C12 UNL     1      -4.700   0.633   0.590  0.00  0.00    +0.005 C 
ATOM     21  C13 UNL     1      -4.275  -0.760   1.070  0.00  0.00    +0.000 C 
ATOM     22  C14 UNL     1      -4.756  -1.865   0.110  0.00  0.00    +0.000 C 
ATOM     23  C15 UNL     1      -4.810  -1.414  -1.364  0.00  0.00    +0.000 C 
ATOM     24  C16 UNL     1      -3.806  -0.293  -1.647  0.00  0.00    +0.005 C 
ENDBRANCH  18  19
BRANCH  18  25
ATOM     25  C10 UNL     1      -3.283   3.421  -0.600  0.00  0.00    +0.178 C 
BRANCH  25  26
ATOM     26  O3  UNL     1      -3.892   3.648   0.642  0.00  0.00    -0.393 OA
ATOM     27  H14 UNL     1      -3.165   3.840   1.290  0.00  0.00    +0.209 HD
ENDBRANCH  25  26
ENDBRANCH  18  25
ENDBRANCH   4  18
TORSDOF 6
