MODEL 1
REMARK VINA RESULT:    -5.298      0.000      0.000
REMARK INTER + INTRA:          -8.608
REMARK INTER:                  -7.776
REMARK INTRA:                  -0.832
REMARK UNBOUND:                -0.832
REMARK  Name = /home/qwerty/github/datacon2025hack/step_04_hit_selection/docking/ligands/lig_129.pdb
REMARK  11 active torsions:
REMARK  status: ('A' for Active; 'I' for Inactive)
REMARK    1  A    between atoms: C2_2  and  C3_3
REMARK    2  A    between atoms: C2_2  and  C4_4
REMARK    3  A    between atoms: C4_4  and  C5_5
REMARK    4  A    between atoms: C5_5  and  N1_6
REMARK    5  A    between atoms: C5_5  and  C8_10
REMARK    6  A    between atoms: C6_7  and  C7_8
REMARK    7  A    between atoms: N2_12  and  C9_13
REMARK    8  A    between atoms: C9_13  and  C10_14
REMARK    9  A    between atoms: N3_17  and  C13_18
REMARK   10  A    between atoms: C13_18  and  C14_19
REMARK   11  A    between atoms: N5_23  and  C17_24
REMARK                            x       y       z     vdW  Elec       q    Type
REMARK                         _______ _______ _______ _____ _____    ______ ____
ROOT
ATOM      1  C8  UNL     1      13.348  13.709  33.632  0.00  0.00    +0.234 C 
ATOM      2  O2  UNL     1      14.560  13.548  33.319  0.00  0.00    -0.274 OA
ATOM      3  N2  UNL     1      12.331  13.650  32.623  0.00  0.00    -0.312 N 
ATOM      4  H13 UNL     1      11.361  13.952  32.864  0.00  0.00    +0.149 HD
ENDROOT
BRANCH   1   5
ATOM      5  C5  UNL     1      12.946  13.922  35.071  0.00  0.00    +0.163 C 
BRANCH   5   6
ATOM      6  N1  UNL     1      13.277  15.291  35.486  0.00  0.00    -0.304 N 
ATOM      7  C6  UNL     1      14.493  15.655  36.156  0.00  0.00    +0.211 C 
ATOM      8  C7  UNL     1      14.699  17.064  36.607  0.00  0.00    +0.109 C 
ATOM      9  O1  UNL     1      15.396  14.800  36.362  0.00  0.00    -0.276 OA
ATOM     10  H9  UNL     1      12.563  16.036  35.326  0.00  0.00    +0.149 HD
ENDBRANCH   5   6
BRANCH   5  11
ATOM     11  C4  UNL     1      11.460  13.600  35.338  0.00  0.00    +0.061 C 
BRANCH  11  13
ATOM     12  C1  UNL     1      11.267  11.864  37.097  0.00  0.00    +0.007 C 
ATOM     13  C2  UNL     1      11.280  12.168  35.791  0.00  0.00    -0.077 C 
ATOM     14  C3  UNL     1      11.169  11.067  34.772  0.00  0.00    +0.038 C 
ENDBRANCH  11  13
ENDBRANCH   5  11
ENDBRANCH   1   5
BRANCH   3  15
ATOM     15  C9  UNL     1      12.583  13.121  31.285  0.00  0.00    +0.123 C 
BRANCH  15  16
ATOM     16  C10 UNL     1      12.282  14.185  30.220  0.00  0.00    +0.075 C 
ATOM     17  C11 UNL     1      13.514  14.942  29.742  0.00  0.00    +0.036 C 
ATOM     18  C12 UNL     1      13.242  14.280  28.405  0.00  0.00    +0.087 C 
ATOM     19  N3  UNL     1      12.058  13.561  28.906  0.00  0.00    -0.291 NA
BRANCH  19  20
ATOM     20  C13 UNL     1      10.812  14.047  28.285  0.00  0.00    +0.159 C 
BRANCH  20  21
ATOM     21  C14 UNL     1       9.944  12.886  27.892  0.00  0.00    +0.124 A 
ATOM     22  N4  UNL     1      10.372  11.903  27.072  0.00  0.00    -0.239 NA
ATOM     23  C15 UNL     1       9.328  11.051  27.000  0.00  0.00    +0.130 A 
ATOM     24  C16 UNL     1       8.293  11.521  27.775  0.00  0.00    +0.106 A 
ATOM     25  N5  UNL     1       8.686  12.676  28.338  0.00  0.00    -0.336 N 
ATOM     26  C17 UNL     1       7.899  13.511  29.241  0.00  0.00    +0.150 C 
ENDBRANCH  20  21
ENDBRANCH  19  20
ENDBRANCH  15  16
ENDBRANCH   3  15
TORSDOF 8
ENDMDL
MODEL 2
REMARK VINA RESULT:    -5.262      1.571      2.079
REMARK INTER + INTRA:          -8.555
REMARK INTER:                  -7.683
REMARK INTRA:                  -0.872
REMARK UNBOUND:                -0.832
REMARK  Name = /home/qwerty/github/datacon2025hack/step_04_hit_selection/docking/ligands/lig_129.pdb
REMARK  11 active torsions:
REMARK  status: ('A' for Active; 'I' for Inactive)
REMARK    1  A    between atoms: C2_2  and  C3_3
REMARK    2  A    between atoms: C2_2  and  C4_4
REMARK    3  A    between atoms: C4_4  and  C5_5
REMARK    4  A    between atoms: C5_5  and  N1_6
REMARK    5  A    between atoms: C5_5  and  C8_10
REMARK    6  A    between atoms: C6_7  and  C7_8
REMARK    7  A    between atoms: N2_12  and  C9_13
REMARK    8  A    between atoms: C9_13  and  C10_14
REMARK    9  A    between atoms: N3_17  and  C13_18
REMARK   10  A    between atoms: C13_18  and  C14_19
REMARK   11  A    between atoms: N5_23  and  C17_24
REMARK                            x       y       z     vdW  Elec       q    Type
REMARK                         _______ _______ _______ _____ _____    ______ ____
ROOT
ATOM      1  C8  UNL     1      12.475  14.452  32.671  0.00  0.00    +0.234 C 
ATOM      2  O2  UNL     1      12.433  15.679  32.380  0.00  0.00    -0.274 OA
ATOM      3  N2  UNL     1      12.518  13.468  31.630  0.00  0.00    -0.312 N 
ATOM      4  H13 UNL     1      12.380  12.463  31.878  0.00  0.00    +0.149 HD
ENDROOT
BRANCH   1   5
ATOM      5  C5  UNL     1      12.525  14.004  34.111  0.00  0.00    +0.163 C 
BRANCH   5   6
ATOM      6  N1  UNL     1      13.142  15.047  34.939  0.00  0.00    -0.304 N 
ATOM      7  C6  UNL     1      14.327  14.851  35.727  0.00  0.00    +0.211 C 
ATOM      8  C7  UNL     1      14.830  15.954  36.598  0.00  0.00    +0.109 C 
ATOM      9  O1  UNL     1      14.954  13.758  35.686  0.00  0.00    -0.276 OA
ATOM     10  H9  UNL     1      12.664  15.973  34.996  0.00  0.00    +0.149 HD
ENDBRANCH   5   6
BRANCH   5  11
ATOM     11  C4  UNL     1      11.143  13.595  34.666  0.00  0.00    +0.061 C 
BRANCH  11  13
ATOM     12  C1  UNL     1      11.118  11.123  34.488  0.00  0.00    +0.007 C 
ATOM     13  C2  UNL     1      11.182  12.210  35.272  0.00  0.00    -0.077 C 
ATOM     14  C3  UNL     1      11.237  12.045  36.766  0.00  0.00    +0.038 C 
ENDBRANCH  11  13
ENDBRANCH   5  11
ENDBRANCH   1   5
BRANCH   3  15
ATOM     15  C9  UNL     1      12.812  13.808  30.240  0.00  0.00    +0.123 C 
BRANCH  15  16
ATOM     16  C10 UNL     1      11.521  14.158  29.487  0.00  0.00    +0.075 C 
ATOM     17  C11 UNL     1      11.755  14.889  28.172  0.00  0.00    +0.036 C 
ATOM     18  C12 UNL     1      11.174  13.646  27.527  0.00  0.00    +0.087 C 
ATOM     19  N3  UNL     1      10.967  12.969  28.818  0.00  0.00    -0.291 NA
BRANCH  19  20
ATOM     20  C13 UNL     1       9.535  12.796  29.129  0.00  0.00    +0.159 C 
BRANCH  20  21
ATOM     21  C14 UNL     1       9.205  11.336  29.244  0.00  0.00    +0.124 A 
ATOM     22  N4  UNL     1       9.391  10.636  30.384  0.00  0.00    -0.239 NA
ATOM     23  C15 UNL     1       8.947   9.396  30.090  0.00  0.00    +0.130 A 
ATOM     24  C16 UNL     1       8.496   9.362  28.790  0.00  0.00    +0.106 A 
ATOM     25  N5  UNL     1       8.656  10.587  28.262  0.00  0.00    -0.336 N 
ATOM     26  C17 UNL     1       8.304  10.999  26.906  0.00  0.00    +0.150 C 
ENDBRANCH  20  21
ENDBRANCH  19  20
ENDBRANCH  15  16
ENDBRANCH   3  15
TORSDOF 8
ENDMDL
MODEL 3
REMARK VINA RESULT:    -5.233      7.171     10.362
REMARK INTER + INTRA:          -8.513
REMARK INTER:                  -7.590
REMARK INTRA:                  -0.922
REMARK UNBOUND:                -0.832
REMARK  Name = /home/qwerty/github/datacon2025hack/step_04_hit_selection/docking/ligands/lig_129.pdb
REMARK  11 active torsions:
REMARK  status: ('A' for Active; 'I' for Inactive)
REMARK    1  A    between atoms: C2_2  and  C3_3
REMARK    2  A    between atoms: C2_2  and  C4_4
REMARK    3  A    between atoms: C4_4  and  C5_5
REMARK    4  A    between atoms: C5_5  and  N1_6
REMARK    5  A    between atoms: C5_5  and  C8_10
REMARK    6  A    between atoms: C6_7  and  C7_8
REMARK    7  A    between atoms: N2_12  and  C9_13
REMARK    8  A    between atoms: C9_13  and  C10_14
REMARK    9  A    between atoms: N3_17  and  C13_18
REMARK   10  A    between atoms: C13_18  and  C14_19
REMARK   11  A    between atoms: N5_23  and  C17_24
REMARK                            x       y       z     vdW  Elec       q    Type
REMARK                         _______ _______ _______ _____ _____    ______ ____
ROOT
ATOM      1  C8  UNL     1      15.770  11.062  36.866  0.00  0.00    +0.234 C 
ATOM      2  O2  UNL     1      15.498   9.844  36.679  0.00  0.00    -0.274 OA
ATOM      3  N2  UNL     1      17.090  11.450  37.269  0.00  0.00    -0.312 N 
ATOM      4  H13 UNL     1      17.255  12.432  37.584  0.00  0.00    +0.149 HD
ENDROOT
BRANCH   1   5
ATOM      5  C5  UNL     1      14.729  12.128  36.630  0.00  0.00    +0.163 C 
BRANCH   5   6
ATOM      6  N1  UNL     1      13.526  11.838  37.418  0.00  0.00    -0.304 N 
ATOM      7  C6  UNL     1      12.292  11.361  36.857  0.00  0.00    +0.211 C 
ATOM      8  C7  UNL     1      11.101  11.171  37.737  0.00  0.00    +0.109 C 
ATOM      9  O1  UNL     1      12.205  11.092  35.629  0.00  0.00    -0.276 OA
ATOM     10  H9  UNL     1      13.554  12.035  38.443  0.00  0.00    +0.149 HD
ENDBRANCH   5   6
BRANCH   5  11
ATOM     11  C4  UNL     1      15.249  13.555  36.909  0.00  0.00    +0.061 C 
BRANCH  11  13
ATOM     12  C1  UNL     1      13.997  14.176  34.861  0.00  0.00    +0.007 C 
ATOM     13  C2  UNL     1      14.592  14.568  35.998  0.00  0.00    -0.077 C 
ATOM     14  C3  UNL     1      14.652  16.032  36.337  0.00  0.00    +0.038 C 
ENDBRANCH  11  13
ENDBRANCH   5  11
ENDBRANCH   1   5
BRANCH   3  15
ATOM     15  C9  UNL     1      18.232  10.542  37.194  0.00  0.00    +0.123 C 
BRANCH  15  16
ATOM     16  C10 UNL     1      18.995  10.744  35.877  0.00  0.00    +0.075 C 
ATOM     17  C11 UNL     1      19.127  12.203  35.461  0.00  0.00    +0.036 C 
ATOM     18  C12 UNL     1      20.613  11.996  35.682  0.00  0.00    +0.087 C 
ATOM     19  N3  UNL     1      20.444  10.589  36.084  0.00  0.00    -0.291 NA
BRANCH  19  20
ATOM     20  C13 UNL     1      21.031   9.659  35.101  0.00  0.00    +0.159 C 
BRANCH  20  21
ATOM     21  C14 UNL     1      21.739   8.540  35.808  0.00  0.00    +0.124 A 
ATOM     22  N4  UNL     1      21.365   8.099  37.028  0.00  0.00    -0.239 NA
ATOM     23  C15 UNL     1      22.214   7.083  37.290  0.00  0.00    +0.130 A 
ATOM     24  C16 UNL     1      23.079   6.918  36.232  0.00  0.00    +0.106 A 
ATOM     25  N5  UNL     1      22.774   7.836  35.299  0.00  0.00    -0.336 N 
ATOM     26  C17 UNL     1      23.438   8.015  34.011  0.00  0.00    +0.150 C 
ENDBRANCH  20  21
ENDBRANCH  19  20
ENDBRANCH  15  16
ENDBRANCH   3  15
TORSDOF 8
ENDMDL
MODEL 4
REMARK VINA RESULT:    -5.214     13.098     15.314
REMARK INTER + INTRA:          -8.484
REMARK INTER:                  -7.681
REMARK INTRA:                  -0.804
REMARK UNBOUND:                -0.832
REMARK  Name = /home/qwerty/github/datacon2025hack/step_04_hit_selection/docking/ligands/lig_129.pdb
REMARK  11 active torsions:
REMARK  status: ('A' for Active; 'I' for Inactive)
REMARK    1  A    between atoms: C2_2  and  C3_3
REMARK    2  A    between atoms: C2_2  and  C4_4
REMARK    3  A    between atoms: C4_4  and  C5_5
REMARK    4  A    between atoms: C5_5  and  N1_6
REMARK    5  A    between atoms: C5_5  and  C8_10
REMARK    6  A    between atoms: C6_7  and  C7_8
REMARK    7  A    between atoms: N2_12  and  C9_13
REMARK    8  A    between atoms: C9_13  and  C10_14
REMARK    9  A    between atoms: N3_17  and  C13_18
REMARK   10  A    between atoms: C13_18  and  C14_19
REMARK   11  A    between atoms: N5_23  and  C17_24
REMARK                            x       y       z     vdW  Elec       q    Type
REMARK                         _______ _______ _______ _____ _____    ______ ____
ROOT
ATOM      1  C8  UNL     1      21.548   3.262  30.858  0.00  0.00    +0.234 C 
ATOM      2  O2  UNL     1      20.762   3.959  30.159  0.00  0.00    -0.274 OA
ATOM      3  N2  UNL     1      22.269   3.862  31.942  0.00  0.00    -0.312 N 
ATOM      4  H13 UNL     1      23.038   3.321  32.399  0.00  0.00    +0.149 HD
ENDROOT
BRANCH   1   5
ATOM      5  C5  UNL     1      21.710   1.785  30.593  0.00  0.00    +0.163 C 
BRANCH   5   6
ATOM      6  N1  UNL     1      20.484   1.071  30.970  0.00  0.00    -0.304 N 
ATOM      7  C6  UNL     1      20.047   0.884  32.325  0.00  0.00    +0.211 C 
ATOM      8  C7  UNL     1      18.824   0.075  32.606  0.00  0.00    +0.109 C 
ATOM      9  O1  UNL     1      20.679   1.405  33.283  0.00  0.00    -0.276 OA
ATOM     10  H9  UNL     1      19.921   0.632  30.208  0.00  0.00    +0.149 HD
ENDBRANCH   5   6
BRANCH   5  11
ATOM     11  C4  UNL     1      22.114   1.472  29.137  0.00  0.00    +0.061 C 
BRANCH  11  13
ATOM     12  C1  UNL     1      24.466   0.693  29.210  0.00  0.00    +0.007 C 
ATOM     13  C2  UNL     1      23.166   0.387  29.079  0.00  0.00    -0.077 C 
ATOM     14  C3  UNL     1      22.763  -1.038  28.817  0.00  0.00    +0.038 C 
ENDBRANCH  11  13
ENDBRANCH   5  11
ENDBRANCH   1   5
BRANCH   3  15
ATOM     15  C9  UNL     1      21.928   5.176  32.479  0.00  0.00    +0.123 C 
BRANCH  15  16
ATOM     16  C10 UNL     1      22.821   5.515  33.681  0.00  0.00    +0.075 C 
ATOM     17  C11 UNL     1      24.170   6.110  33.297  0.00  0.00    +0.036 C 
ATOM     18  C12 UNL     1      23.665   7.364  33.985  0.00  0.00    +0.087 C 
ATOM     19  N3  UNL     1      22.371   6.755  34.334  0.00  0.00    -0.291 NA
BRANCH  19  20
ATOM     20  C13 UNL     1      22.221   6.572  35.790  0.00  0.00    +0.159 C 
BRANCH  20  21
ATOM     21  C14 UNL     1      21.017   7.323  36.283  0.00  0.00    +0.124 A 
ATOM     22  N4  UNL     1      21.103   8.552  36.836  0.00  0.00    -0.239 NA
ATOM     23  C15 UNL     1      19.824   8.886  37.107  0.00  0.00    +0.130 A 
ATOM     24  C16 UNL     1      18.987   7.867  36.712  0.00  0.00    +0.106 A 
ATOM     25  N5  UNL     1      19.742   6.887  36.190  0.00  0.00    -0.336 N 
ATOM     26  C17 UNL     1      19.261   5.621  35.643  0.00  0.00    +0.150 C 
ENDBRANCH  20  21
ENDBRANCH  19  20
ENDBRANCH  15  16
ENDBRANCH   3  15
TORSDOF 8
ENDMDL
MODEL 5
REMARK VINA RESULT:    -5.200      6.481      9.797
REMARK INTER + INTRA:          -8.464
REMARK INTER:                  -7.619
REMARK INTRA:                  -0.845
REMARK UNBOUND:                -0.832
REMARK  Name = /home/qwerty/github/datacon2025hack/step_04_hit_selection/docking/ligands/lig_129.pdb
REMARK  11 active torsions:
REMARK  status: ('A' for Active; 'I' for Inactive)
REMARK    1  A    between atoms: C2_2  and  C3_3
REMARK    2  A    between atoms: C2_2  and  C4_4
REMARK    3  A    between atoms: C4_4  and  C5_5
REMARK    4  A    between atoms: C5_5  and  N1_6
REMARK    5  A    between atoms: C5_5  and  C8_10
REMARK    6  A    between atoms: C6_7  and  C7_8
REMARK    7  A    between atoms: N2_12  and  C9_13
REMARK    8  A    between atoms: C9_13  and  C10_14
REMARK    9  A    between atoms: N3_17  and  C13_18
REMARK   10  A    between atoms: C13_18  and  C14_19
REMARK   11  A    between atoms: N5_23  and  C17_24
REMARK                            x       y       z     vdW  Elec       q    Type
REMARK                         _______ _______ _______ _____ _____    ______ ____
ROOT
ATOM      1  C8  UNL     1       8.981  10.640  26.388  0.00  0.00    +0.234 C 
ATOM      2  O2  UNL     1      10.216  10.734  26.143  0.00  0.00    -0.274 OA
ATOM      3  N2  UNL     1       8.147   9.811  25.569  0.00  0.00    -0.312 N 
ATOM      4  H13 UNL     1       7.110   9.875  25.675  0.00  0.00    +0.149 HD
ENDROOT
BRANCH   1   5
ATOM      5  C5  UNL     1       8.374  11.359  27.568  0.00  0.00    +0.163 C 
BRANCH   5   6
ATOM      6  N1  UNL     1       8.535  10.553  28.784  0.00  0.00    -0.304 N 
ATOM      7  C6  UNL     1       7.698   9.437  29.125  0.00  0.00    +0.211 C 
ATOM      8  C7  UNL     1       7.897   8.731  30.425  0.00  0.00    +0.109 C 
ATOM      9  O1  UNL     1       6.801   9.039  28.334  0.00  0.00    -0.276 OA
ATOM     10  H9  UNL     1       9.273  10.839  29.465  0.00  0.00    +0.149 HD
ENDBRANCH   5   6
BRANCH   5  11
ATOM     11  C4  UNL     1       8.936  12.784  27.762  0.00  0.00    +0.061 C 
BRANCH  11  13
ATOM     12  C1  UNL     1       7.235  14.519  27.273  0.00  0.00    +0.007 C 
ATOM     13  C2  UNL     1       7.851  13.750  28.183  0.00  0.00    -0.077 C 
ATOM     14  C3  UNL     1       7.496  13.894  29.638  0.00  0.00    +0.038 C 
ENDBRANCH  11  13
ENDBRANCH   5  11
ENDBRANCH   1   5
BRANCH   3  15
ATOM     15  C9  UNL     1       8.692   8.830  24.634  0.00  0.00    +0.123 C 
BRANCH  15  16
ATOM     16  C10 UNL     1       8.018   8.962  23.261  0.00  0.00    +0.075 C 
ATOM     17  C11 UNL     1       8.208  10.326  22.612  0.00  0.00    +0.036 C 
ATOM     18  C12 UNL     1       9.005   9.572  21.564  0.00  0.00    +0.087 C 
ATOM     19  N3  UNL     1       8.803   8.271  22.225  0.00  0.00    -0.291 NA
BRANCH  19  20
ATOM     20  C13 UNL     1       7.956   7.369  21.421  0.00  0.00    +0.159 C 
BRANCH  20  21
ATOM     21  C14 UNL     1       8.295   5.937  21.724  0.00  0.00    +0.124 A 
ATOM     22  N4  UNL     1       7.558   5.177  22.562  0.00  0.00    -0.239 NA
ATOM     23  C15 UNL     1       8.162   3.971  22.535  0.00  0.00    +0.130 A 
ATOM     24  C16 UNL     1       9.243   4.013  21.684  0.00  0.00    +0.106 A 
ATOM     25  N5  UNL     1       9.321   5.253  21.173  0.00  0.00    -0.336 N 
ATOM     26  C17 UNL     1      10.317   5.735  20.220  0.00  0.00    +0.150 C 
ENDBRANCH  20  21
ENDBRANCH  19  20
ENDBRANCH  15  16
ENDBRANCH   3  15
TORSDOF 8
ENDMDL
MODEL 6
REMARK VINA RESULT:    -5.174     12.656     15.751
REMARK INTER + INTRA:          -8.426
REMARK INTER:                  -7.449
REMARK INTRA:                  -0.977
REMARK UNBOUND:                -0.832
REMARK  Name = /home/qwerty/github/datacon2025hack/step_04_hit_selection/docking/ligands/lig_129.pdb
REMARK  11 active torsions:
REMARK  status: ('A' for Active; 'I' for Inactive)
REMARK    1  A    between atoms: C2_2  and  C3_3
REMARK    2  A    between atoms: C2_2  and  C4_4
REMARK    3  A    between atoms: C4_4  and  C5_5
REMARK    4  A    between atoms: C5_5  and  N1_6
REMARK    5  A    between atoms: C5_5  and  C8_10
REMARK    6  A    between atoms: C6_7  and  C7_8
REMARK    7  A    between atoms: N2_12  and  C9_13
REMARK    8  A    between atoms: C9_13  and  C10_14
REMARK    9  A    between atoms: N3_17  and  C13_18
REMARK   10  A    between atoms: C13_18  and  C14_19
REMARK   11  A    between atoms: N5_23  and  C17_24
REMARK                            x       y       z     vdW  Elec       q    Type
REMARK                         _______ _______ _______ _____ _____    ______ ____
ROOT
ATOM      1  C8  UNL     1      11.447   5.521  20.481  0.00  0.00    +0.234 C 
ATOM      2  O2  UNL     1      12.649   5.897  20.411  0.00  0.00    -0.274 OA
ATOM      3  N2  UNL     1      11.115   4.139  20.291  0.00  0.00    -0.312 N 
ATOM      4  H13 UNL     1      10.111   3.871  20.182  0.00  0.00    +0.149 HD
ENDROOT
BRANCH   1   5
ATOM      5  C5  UNL     1      10.350   6.505  20.807  0.00  0.00    +0.163 C 
BRANCH   5   6
ATOM      6  N1  UNL     1      10.454   7.679  19.933  0.00  0.00    -0.304 N 
ATOM      7  C6  UNL     1      10.902   8.971  20.373  0.00  0.00    +0.211 C 
ATOM      8  C7  UNL     1      10.897  10.122  19.422  0.00  0.00    +0.109 C 
ATOM      9  O1  UNL     1      11.309   9.144  21.554  0.00  0.00    -0.276 OA
ATOM     10  H9  UNL     1      10.138   7.581  18.943  0.00  0.00    +0.149 HD
ENDBRANCH   5   6
BRANCH   5  11
ATOM     11  C4  UNL     1       8.939   5.882  20.740  0.00  0.00    +0.061 C 
BRANCH  11  13
ATOM     12  C1  UNL     1       8.494   6.733  23.025  0.00  0.00    +0.007 C 
ATOM     13  C2  UNL     1       8.325   5.760  22.117  0.00  0.00    -0.077 C 
ATOM     14  C3  UNL     1       7.565   4.518  22.494  0.00  0.00    +0.038 C 
ENDBRANCH  11  13
ENDBRANCH   5  11
ENDBRANCH   1   5
BRANCH   3  15
ATOM     15  C9  UNL     1      12.120   3.080  20.309  0.00  0.00    +0.123 C 
BRANCH  15  16
ATOM     16  C10 UNL     1      12.388   2.617  21.748  0.00  0.00    +0.075 C 
ATOM     17  C11 UNL     1      11.126   2.276  22.529  0.00  0.00    +0.036 C 
ATOM     18  C12 UNL     1      11.666   0.858  22.529  0.00  0.00    +0.087 C 
ATOM     19  N3  UNL     1      12.872   1.227  21.768  0.00  0.00    -0.291 NA
BRANCH  19  20
ATOM     20  C13 UNL     1      14.098   1.096  22.578  0.00  0.00    +0.159 C 
BRANCH  20  21
ATOM     21  C14 UNL     1      15.103   0.244  21.857  0.00  0.00    +0.124 A 
ATOM     22  N4  UNL     1      15.548   0.537  20.616  0.00  0.00    -0.239 NA
ATOM     23  C15 UNL     1      16.448  -0.432  20.348  0.00  0.00    +0.130 A 
ATOM     24  C16 UNL     1      16.542  -1.287  21.422  0.00  0.00    +0.106 A 
ATOM     25  N5  UNL     1      15.696  -0.855  22.373  0.00  0.00    -0.336 N 
ATOM     26  C17 UNL     1      15.480  -1.465  23.682  0.00  0.00    +0.150 C 
ENDBRANCH  20  21
ENDBRANCH  19  20
ENDBRANCH  15  16
ENDBRANCH   3  15
TORSDOF 8
ENDMDL
MODEL 7
REMARK VINA RESULT:    -5.163     15.043     16.163
REMARK INTER + INTRA:          -8.410
REMARK INTER:                  -7.562
REMARK INTRA:                  -0.848
REMARK UNBOUND:                -0.832
REMARK  Name = /home/qwerty/github/datacon2025hack/step_04_hit_selection/docking/ligands/lig_129.pdb
REMARK  11 active torsions:
REMARK  status: ('A' for Active; 'I' for Inactive)
REMARK    1  A    between atoms: C2_2  and  C3_3
REMARK    2  A    between atoms: C2_2  and  C4_4
REMARK    3  A    between atoms: C4_4  and  C5_5
REMARK    4  A    between atoms: C5_5  and  N1_6
REMARK    5  A    between atoms: C5_5  and  C8_10
REMARK    6  A    between atoms: C6_7  and  C7_8
REMARK    7  A    between atoms: N2_12  and  C9_13
REMARK    8  A    between atoms: C9_13  and  C10_14
REMARK    9  A    between atoms: N3_17  and  C13_18
REMARK   10  A    between atoms: C13_18  and  C14_19
REMARK   11  A    between atoms: N5_23  and  C17_24
REMARK                            x       y       z     vdW  Elec       q    Type
REMARK                         _______ _______ _______ _____ _____    ______ ____
ROOT
ATOM      1  C8  UNL     1      19.970   1.391  27.114  0.00  0.00    +0.234 C 
ATOM      2  O2  UNL     1      19.125   1.967  27.853  0.00  0.00    -0.274 OA
ATOM      3  N2  UNL     1      19.544   0.723  25.919  0.00  0.00    -0.312 N 
ATOM      4  H13 UNL     1      20.222   0.110  25.413  0.00  0.00    +0.149 HD
ENDROOT
BRANCH   1   5
ATOM      5  C5  UNL     1      21.441   1.433  27.449  0.00  0.00    +0.163 C 
BRANCH   5   6
ATOM      6  N1  UNL     1      21.987   2.761  27.145  0.00  0.00    -0.304 N 
ATOM      7  C6  UNL     1      22.162   3.273  25.815  0.00  0.00    +0.211 C 
ATOM      8  C7  UNL     1      22.800   4.607  25.611  0.00  0.00    +0.109 C 
ATOM      9  O1  UNL     1      21.775   2.611  24.814  0.00  0.00    -0.276 OA
ATOM     10  H9  UNL     1      22.311   3.350  27.944  0.00  0.00    +0.149 HD
ENDBRANCH   5   6
BRANCH   5  11
ATOM     11  C4  UNL     1      21.741   1.025  28.908  0.00  0.00    +0.061 C 
BRANCH  11  13
ATOM     12  C1  UNL     1      24.181   0.744  29.242  0.00  0.00    +0.007 C 
ATOM     13  C2  UNL     1      22.990   0.177  28.997  0.00  0.00    -0.077 C 
ATOM     14  C3  UNL     1      22.910  -1.305  28.755  0.00  0.00    +0.038 C 
ENDBRANCH  11  13
ENDBRANCH   5  11
ENDBRANCH   1   5
BRANCH   3  15
ATOM     15  C9  UNL     1      18.215   0.915  25.344  0.00  0.00    +0.123 C 
BRANCH  15  16
ATOM     16  C10 UNL     1      17.865  -0.243  24.398  0.00  0.00    +0.075 C 
ATOM     17  C11 UNL     1      17.759  -1.594  25.093  0.00  0.00    +0.036 C 
ATOM     18  C12 UNL     1      16.293  -1.529  24.710  0.00  0.00    +0.087 C 
ATOM     19  N3  UNL     1      16.435  -0.220  24.051  0.00  0.00    -0.291 NA
BRANCH  19  20
ATOM     20  C13 UNL     1      16.235  -0.310  22.592  0.00  0.00    +0.159 C 
BRANCH  20  21
ATOM     21  C14 UNL     1      15.250   0.731  22.142  0.00  0.00    +0.124 A 
ATOM     22  N4  UNL     1      13.926   0.486  22.044  0.00  0.00    -0.239 NA
ATOM     23  C15 UNL     1      13.397   1.662  21.649  0.00  0.00    +0.130 A 
ATOM     24  C16 UNL     1      14.397   2.599  21.520  0.00  0.00    +0.106 A 
ATOM     25  N5  UNL     1      15.563   2.009  21.835  0.00  0.00    -0.336 N 
ATOM     26  C17 UNL     1      16.880   2.640  21.837  0.00  0.00    +0.150 C 
ENDBRANCH  20  21
ENDBRANCH  19  20
ENDBRANCH  15  16
ENDBRANCH   3  15
TORSDOF 8
ENDMDL
MODEL 8
REMARK VINA RESULT:    -5.163     13.993     16.365
REMARK INTER + INTRA:          -8.409
REMARK INTER:                  -7.567
REMARK INTRA:                  -0.842
REMARK UNBOUND:                -0.832
REMARK  Name = /home/qwerty/github/datacon2025hack/step_04_hit_selection/docking/ligands/lig_129.pdb
REMARK  11 active torsions:
REMARK  status: ('A' for Active; 'I' for Inactive)
REMARK    1  A    between atoms: C2_2  and  C3_3
REMARK    2  A    between atoms: C2_2  and  C4_4
REMARK    3  A    between atoms: C4_4  and  C5_5
REMARK    4  A    between atoms: C5_5  and  N1_6
REMARK    5  A    between atoms: C5_5  and  C8_10
REMARK    6  A    between atoms: C6_7  and  C7_8
REMARK    7  A    between atoms: N2_12  and  C9_13
REMARK    8  A    between atoms: C9_13  and  C10_14
REMARK    9  A    between atoms: N3_17  and  C13_18
REMARK   10  A    between atoms: C13_18  and  C14_19
REMARK   11  A    between atoms: N5_23  and  C17_24
REMARK                            x       y       z     vdW  Elec       q    Type
REMARK                         _______ _______ _______ _____ _____    ______ ____
ROOT
ATOM      1  C8  UNL     1      20.984   1.422  30.210  0.00  0.00    +0.234 C 
ATOM      2  O2  UNL     1      19.945   0.755  30.469  0.00  0.00    -0.274 OA
ATOM      3  N2  UNL     1      21.512   2.336  31.180  0.00  0.00    -0.312 N 
ATOM      4  H13 UNL     1      22.263   3.002  30.891  0.00  0.00    +0.149 HD
ENDROOT
BRANCH   1   5
ATOM      5  C5  UNL     1      21.710   1.239  28.899  0.00  0.00    +0.163 C 
BRANCH   5   6
ATOM      6  N1  UNL     1      22.398  -0.058  28.885  0.00  0.00    -0.304 N 
ATOM      7  C6  UNL     1      23.820  -0.214  29.010  0.00  0.00    +0.211 C 
ATOM      8  C7  UNL     1      24.430  -1.573  28.904  0.00  0.00    +0.109 C 
ATOM      9  O1  UNL     1      24.562   0.784  29.218  0.00  0.00    -0.276 OA
ATOM     10  H9  UNL     1      21.823  -0.914  28.726  0.00  0.00    +0.149 HD
ENDBRANCH   5   6
BRANCH   5  11
ATOM     11  C4  UNL     1      20.789   1.396  27.670  0.00  0.00    +0.061 C 
BRANCH  11  13
ATOM     12  C1  UNL     1      22.546   2.939  26.847  0.00  0.00    +0.007 C 
ATOM     13  C2  UNL     1      21.462   2.196  26.577  0.00  0.00    -0.077 C 
ATOM     14  C3  UNL     1      20.884   2.205  25.188  0.00  0.00    +0.038 C 
ENDBRANCH  11  13
ENDBRANCH   5  11
ENDBRANCH   1   5
BRANCH   3  15
ATOM     15  C9  UNL     1      21.085   2.331  32.576  0.00  0.00    +0.123 C 
BRANCH  15  16
ATOM     16  C10 UNL     1      20.151   3.517  32.858  0.00  0.00    +0.075 C 
ATOM     17  C11 UNL     1      18.738   3.107  33.250  0.00  0.00    +0.036 C 
ATOM     18  C12 UNL     1      19.071   3.726  34.594  0.00  0.00    +0.087 C 
ATOM     19  N3  UNL     1      20.433   4.102  34.180  0.00  0.00    -0.291 NA
BRANCH  19  20
ATOM     20  C13 UNL     1      20.601   5.565  34.095  0.00  0.00    +0.159 C 
BRANCH  20  21
ATOM     21  C14 UNL     1      21.873   5.979  34.779  0.00  0.00    +0.124 A 
ATOM     22  N4  UNL     1      23.089   5.802  34.222  0.00  0.00    -0.239 NA
ATOM     23  C15 UNL     1      23.947   6.328  35.121  0.00  0.00    +0.130 A 
ATOM     24  C16 UNL     1      23.245   6.818  36.199  0.00  0.00    +0.106 A 
ATOM     25  N5  UNL     1      21.938   6.599  35.978  0.00  0.00    -0.336 N 
ATOM     26  C17 UNL     1      20.837   6.965  36.864  0.00  0.00    +0.150 C 
ENDBRANCH  20  21
ENDBRANCH  19  20
ENDBRANCH  15  16
ENDBRANCH   3  15
TORSDOF 8
ENDMDL
MODEL 9
REMARK VINA RESULT:    -5.153     13.876     16.043
REMARK INTER + INTRA:          -8.395
REMARK INTER:                  -6.963
REMARK INTRA:                  -1.432
REMARK UNBOUND:                -0.832
REMARK  Name = /home/qwerty/github/datacon2025hack/step_04_hit_selection/docking/ligands/lig_129.pdb
REMARK  11 active torsions:
REMARK  status: ('A' for Active; 'I' for Inactive)
REMARK    1  A    between atoms: C2_2  and  C3_3
REMARK    2  A    between atoms: C2_2  and  C4_4
REMARK    3  A    between atoms: C4_4  and  C5_5
REMARK    4  A    between atoms: C5_5  and  N1_6
REMARK    5  A    between atoms: C5_5  and  C8_10
REMARK    6  A    between atoms: C6_7  and  C7_8
REMARK    7  A    between atoms: N2_12  and  C9_13
REMARK    8  A    between atoms: C9_13  and  C10_14
REMARK    9  A    between atoms: N3_17  and  C13_18
REMARK   10  A    between atoms: C13_18  and  C14_19
REMARK   11  A    between atoms: N5_23  and  C17_24
REMARK                            x       y       z     vdW  Elec       q    Type
REMARK                         _______ _______ _______ _____ _____    ______ ____
ROOT
ATOM      1  C8  UNL     1      19.503   0.990  30.276  0.00  0.00    +0.234 C 
ATOM      2  O2  UNL     1      18.321   1.219  29.898  0.00  0.00    -0.274 OA
ATOM      3  N2  UNL     1      19.769   0.673  31.648  0.00  0.00    -0.312 N 
ATOM      4  H13 UNL     1      20.759   0.655  31.980  0.00  0.00    +0.149 HD
ENDROOT
BRANCH   1   5
ATOM      5  C5  UNL     1      20.644   1.004  29.288  0.00  0.00    +0.163 C 
BRANCH   5   6
ATOM      6  N1  UNL     1      20.444   2.078  28.308  0.00  0.00    -0.304 N 
ATOM      7  C6  UNL     1      20.520   1.893  26.885  0.00  0.00    +0.211 C 
ATOM      8  C7  UNL     1      20.379   3.068  25.975  0.00  0.00    +0.109 C 
ATOM      9  O1  UNL     1      20.694   0.745  26.394  0.00  0.00    -0.276 OA
ATOM     10  H9  UNL     1      20.285   3.045  28.668  0.00  0.00    +0.149 HD
ENDBRANCH   5   6
BRANCH   5  11
ATOM     11  C4  UNL     1      22.027   1.113  29.963  0.00  0.00    +0.061 C 
BRANCH  11  13
ATOM     12  C1  UNL     1      22.686  -0.975  28.801  0.00  0.00    +0.007 C 
ATOM     13  C2  UNL     1      23.044   0.226  29.280  0.00  0.00    -0.077 C 
ATOM     14  C3  UNL     1      24.480   0.665  29.184  0.00  0.00    +0.038 C 
ENDBRANCH  11  13
ENDBRANCH   5  11
ENDBRANCH   1   5
BRANCH   3  15
ATOM     15  C9  UNL     1      18.713   0.308  32.589  0.00  0.00    +0.123 C 
BRANCH  15  16
ATOM     16  C10 UNL     1      18.206   1.549  33.336  0.00  0.00    +0.075 C 
ATOM     17  C11 UNL     1      17.369   1.226  34.567  0.00  0.00    +0.036 C 
ATOM     18  C12 UNL     1      18.503   1.867  35.345  0.00  0.00    +0.087 C 
ATOM     19  N3  UNL     1      19.284   2.158  34.131  0.00  0.00    -0.291 NA
BRANCH  19  20
ATOM     20  C13 UNL     1      19.389   3.607  33.875  0.00  0.00    +0.159 C 
BRANCH  20  21
ATOM     21  C14 UNL     1      20.753   3.940  33.341  0.00  0.00    +0.124 A 
ATOM     22  N4  UNL     1      21.636   2.992  32.961  0.00  0.00    -0.239 NA
ATOM     23  C15 UNL     1      22.702   3.690  32.518  0.00  0.00    +0.130 A 
ATOM     24  C16 UNL     1      22.451   5.038  32.627  0.00  0.00    +0.106 A 
ATOM     25  N5  UNL     1      21.220   5.192  33.142  0.00  0.00    -0.336 N 
ATOM     26  C17 UNL     1      20.550   6.459  33.421  0.00  0.00    +0.150 C 
ENDBRANCH  20  21
ENDBRANCH  19  20
ENDBRANCH  15  16
ENDBRANCH   3  15
TORSDOF 8
ENDMDL
