MODEL 1
REMARK VINA RESULT:    -6.268      0.000      0.000
REMARK INTER + INTRA:          -7.681
REMARK INTER:                  -7.368
REMARK INTRA:                  -0.313
REMARK UNBOUND:                -0.313
REMARK  Name = /home/qwerty/github/datacon2025hack/step_04_hit_selection/docking/ligands/lig_23.pdb
REMARK  5 active torsions:
REMARK  status: ('A' for Active; 'I' for Inactive)
REMARK    1  A    between atoms: C1_1  and  N1_2
REMARK    2  A    between atoms: N1_2  and  C2_3
REMARK    3  A    between atoms: N1_2  and  C3_4
REMARK    4  A    between atoms: C7_9  and  C8_10
REMARK    5  A    between atoms: C13_15  and  C14_16
REMARK                            x       y       z     vdW  Elec       q    Type
REMARK                         _______ _______ _______ _____ _____    ______ ____
ROOT
ATOM      1  C3  UNL     1       8.777   9.907  21.733  0.00  0.00    +0.031 A 
ATOM      2  C4  UNL     1       9.566  10.426  20.664  0.00  0.00    +0.025 A 
ATOM      3  C5  UNL     1      10.539   9.635  20.027  0.00  0.00    +0.029 A 
ATOM      4  C6  UNL     1      10.704   8.331  20.475  0.00  0.00    +0.067 A 
ATOM      5  N2  UNL     1      11.558   7.401  20.029  0.00  0.00    -0.338 N 
ATOM      6  C7  UNL     1      11.303   6.318  20.813  0.00  0.00    +0.139 A 
ATOM      7  N5  UNL     1      10.321   6.542  21.730  0.00  0.00    -0.228 NA
ATOM      8  C18 UNL     1       9.966   7.817  21.491  0.00  0.00    +0.091 A 
ATOM      9  C19 UNL     1       8.993   8.564  22.149  0.00  0.00    +0.053 A 
ATOM     10  H9  UNL     1      12.259   7.512  19.264  0.00  0.00    +0.167 HD
ENDROOT
BRANCH   6  11
ATOM     11  C8  UNL     1      12.013   5.018  20.703  0.00  0.00    +0.019 A 
ATOM     12  C9  UNL     1      11.354   3.800  20.958  0.00  0.00    +0.012 A 
ATOM     13  C10 UNL     1      12.036   2.583  20.852  0.00  0.00    +0.011 A 
ATOM     14  C11 UNL     1      13.388   2.565  20.491  0.00  0.00    +0.002 A 
ATOM     15  C12 UNL     1      14.095   1.360  20.377  0.00  0.00    +0.030 A 
ATOM     16  C13 UNL     1      15.446   1.378  20.014  0.00  0.00    +0.070 A 
ATOM     17  C15 UNL     1      16.074   2.606  19.769  0.00  0.00    +0.130 A 
ATOM     18  N4  UNL     1      15.374   3.766  19.884  0.00  0.00    -0.254 NA
ATOM     19  C16 UNL     1      14.060   3.779  20.236  0.00  0.00    +0.072 A 
ATOM     20  C17 UNL     1      13.374   4.994  20.344  0.00  0.00    +0.039 A 
BRANCH  16  21
ATOM     21  C14 UNL     1      16.184   0.149  19.893  0.00  0.00    +0.101 C 
ATOM     22  N3  UNL     1      16.777  -0.840  19.796  0.00  0.00    -0.191 NA
ENDBRANCH  16  21
ENDBRANCH   6  11
BRANCH   1  24
ATOM     23  C1  UNL     1       7.231  11.917  21.713  0.00  0.00    +0.129 C 
ATOM     24  N1  UNL     1       7.774  10.731  22.385  0.00  0.00    -0.336 N 
ATOM     25  C2  UNL     1       7.285  10.389  23.726  0.00  0.00    +0.129 C 
ENDBRANCH   1  24
TORSDOF 3
ENDMDL
MODEL 2
REMARK VINA RESULT:    -6.114     16.131     17.201
REMARK INTER + INTRA:          -7.500
REMARK INTER:                  -7.187
REMARK INTRA:                  -0.313
REMARK UNBOUND:                -0.313
REMARK  Name = /home/qwerty/github/datacon2025hack/step_04_hit_selection/docking/ligands/lig_23.pdb
REMARK  5 active torsions:
REMARK  status: ('A' for Active; 'I' for Inactive)
REMARK    1  A    between atoms: C1_1  and  N1_2
REMARK    2  A    between atoms: N1_2  and  C2_3
REMARK    3  A    between atoms: N1_2  and  C3_4
REMARK    4  A    between atoms: C7_9  and  C8_10
REMARK    5  A    between atoms: C13_15  and  C14_16
REMARK                            x       y       z     vdW  Elec       q    Type
REMARK                         _______ _______ _______ _____ _____    ______ ____
ROOT
ATOM      1  C3  UNL     1      11.538  13.021  35.725  0.00  0.00    +0.031 A 
ATOM      2  C4  UNL     1      11.098  12.038  36.660  0.00  0.00    +0.025 A 
ATOM      3  C5  UNL     1      11.997  11.116  37.224  0.00  0.00    +0.029 A 
ATOM      4  C6  UNL     1      13.330  11.196  36.839  0.00  0.00    +0.067 A 
ATOM      5  N2  UNL     1      14.357  10.435  37.235  0.00  0.00    -0.338 N 
ATOM      6  C7  UNL     1      15.421  10.938  36.554  0.00  0.00    +0.139 A 
ATOM      7  N5  UNL     1      15.093  11.986  35.748  0.00  0.00    -0.228 NA
ATOM      8  C18 UNL     1      13.770  12.123  35.950  0.00  0.00    +0.091 A 
ATOM      9  C19 UNL     1      12.914  13.053  35.368  0.00  0.00    +0.053 A 
ATOM     10  H9  UNL     1      14.319   9.635  37.904  0.00  0.00    +0.167 HD
ENDROOT
BRANCH   6  11
ATOM     11  C8  UNL     1      16.807  10.413  36.657  0.00  0.00    +0.019 A 
ATOM     12  C9  UNL     1      17.920  11.217  36.345  0.00  0.00    +0.012 A 
ATOM     13  C10 UNL     1      19.219  10.709  36.446  0.00  0.00    +0.011 A 
ATOM     14  C11 UNL     1      19.427   9.387  36.858  0.00  0.00    +0.002 A 
ATOM     15  C12 UNL     1      20.718   8.853  36.967  0.00  0.00    +0.030 A 
ATOM     16  C13 UNL     1      20.888   7.528  37.382  0.00  0.00    +0.070 A 
ATOM     17  C15 UNL     1      19.761   6.752  37.682  0.00  0.00    +0.130 A 
ATOM     18  N4  UNL     1      18.516   7.285  37.570  0.00  0.00    -0.254 NA
ATOM     19  C16 UNL     1      18.319   8.571  37.169  0.00  0.00    +0.072 A 
ATOM     20  C17 UNL     1      17.021   9.083  37.067  0.00  0.00    +0.039 A 
BRANCH  16  21
ATOM     21  C14 UNL     1      22.208   6.966  37.499  0.00  0.00    +0.101 C 
ATOM     22  N3  UNL     1      23.269   6.515  37.594  0.00  0.00    -0.191 NA
ENDBRANCH  16  21
ENDBRANCH   6  11
BRANCH   1  24
ATOM     23  C1  UNL     1      10.773  14.444  33.769  0.00  0.00    +0.129 C 
ATOM     24  N1  UNL     1      10.602  13.970  35.148  0.00  0.00    -0.336 N 
ATOM     25  C2  UNL     1       9.466  14.469  35.933  0.00  0.00    +0.129 C 
ENDBRANCH   1  24
TORSDOF 3
ENDMDL
MODEL 3
REMARK VINA RESULT:    -6.052      5.806      9.745
REMARK INTER + INTRA:          -7.426
REMARK INTER:                  -7.121
REMARK INTRA:                  -0.305
REMARK UNBOUND:                -0.313
REMARK  Name = /home/qwerty/github/datacon2025hack/step_04_hit_selection/docking/ligands/lig_23.pdb
REMARK  5 active torsions:
REMARK  status: ('A' for Active; 'I' for Inactive)
REMARK    1  A    between atoms: C1_1  and  N1_2
REMARK    2  A    between atoms: N1_2  and  C2_3
REMARK    3  A    between atoms: N1_2  and  C3_4
REMARK    4  A    between atoms: C7_9  and  C8_10
REMARK    5  A    between atoms: C13_15  and  C14_16
REMARK                            x       y       z     vdW  Elec       q    Type
REMARK                         _______ _______ _______ _____ _____    ______ ____
ROOT
ATOM      1  C3  UNL     1      15.247   2.088  20.882  0.00  0.00    +0.031 A 
ATOM      2  C4  UNL     1      14.113   2.715  20.285  0.00  0.00    +0.025 A 
ATOM      3  C5  UNL     1      14.196   4.016  19.757  0.00  0.00    +0.029 A 
ATOM      4  C6  UNL     1      15.420   4.667  19.836  0.00  0.00    +0.067 A 
ATOM      5  N2  UNL     1      15.737   5.896  19.408  0.00  0.00    -0.338 N 
ATOM      6  C7  UNL     1      17.051   6.029  19.735  0.00  0.00    +0.139 A 
ATOM      7  N5  UNL     1      17.562   4.928  20.352  0.00  0.00    -0.228 NA
ATOM      8  C18 UNL     1      16.511   4.090  20.400  0.00  0.00    +0.091 A 
ATOM      9  C19 UNL     1      16.473   2.806  20.935  0.00  0.00    +0.053 A 
ATOM     10  H9  UNL     1      15.099   6.579  18.945  0.00  0.00    +0.167 HD
ENDROOT
BRANCH   6  11
ATOM     11  C8  UNL     1      17.864   7.242  19.464  0.00  0.00    +0.019 A 
ATOM     12  C9  UNL     1      19.183   7.148  18.982  0.00  0.00    +0.012 A 
ATOM     13  C10 UNL     1      19.937   8.300  18.733  0.00  0.00    +0.011 A 
ATOM     14  C11 UNL     1      19.384   9.565  18.964  0.00  0.00    +0.002 A 
ATOM     15  C12 UNL     1      20.117  10.734  18.722  0.00  0.00    +0.030 A 
ATOM     16  C13 UNL     1      19.533  11.983  18.964  0.00  0.00    +0.070 A 
ATOM     17  C15 UNL     1      18.220  12.044  19.447  0.00  0.00    +0.130 A 
ATOM     18  N4  UNL     1      17.523  10.900  19.677  0.00  0.00    -0.254 NA
ATOM     19  C16 UNL     1      18.064   9.672  19.450  0.00  0.00    +0.072 A 
ATOM     20  C17 UNL     1      17.314   8.518  19.699  0.00  0.00    +0.039 A 
BRANCH  16  21
ATOM     21  C14 UNL     1      20.274  13.192  18.720  0.00  0.00    +0.101 C 
ATOM     22  N3  UNL     1      20.870  14.164  18.524  0.00  0.00    -0.191 NA
ENDBRANCH  16  21
ENDBRANCH   6  11
BRANCH   1  24
ATOM     23  C1  UNL     1      16.237  -0.224  21.219  0.00  0.00    +0.129 C 
ATOM     24  N1  UNL     1      15.152   0.743  21.425  0.00  0.00    -0.336 N 
ATOM     25  C2  UNL     1      13.970   0.330  22.191  0.00  0.00    +0.129 C 
ENDBRANCH   1  24
TORSDOF 3
ENDMDL
MODEL 4
REMARK VINA RESULT:    -6.028     16.465     19.402
REMARK INTER + INTRA:          -7.398
REMARK INTER:                  -7.094
REMARK INTRA:                  -0.304
REMARK UNBOUND:                -0.313
REMARK  Name = /home/qwerty/github/datacon2025hack/step_04_hit_selection/docking/ligands/lig_23.pdb
REMARK  5 active torsions:
REMARK  status: ('A' for Active; 'I' for Inactive)
REMARK    1  A    between atoms: C1_1  and  N1_2
REMARK    2  A    between atoms: N1_2  and  C2_3
REMARK    3  A    between atoms: N1_2  and  C3_4
REMARK    4  A    between atoms: C7_9  and  C8_10
REMARK    5  A    between atoms: C13_15  and  C14_16
REMARK                            x       y       z     vdW  Elec       q    Type
REMARK                         _______ _______ _______ _____ _____    ______ ____
ROOT
ATOM      1  C3  UNL     1      21.053   7.523  36.999  0.00  0.00    +0.031 A 
ATOM      2  C4  UNL     1      20.187   6.587  37.640  0.00  0.00    +0.025 A 
ATOM      3  C5  UNL     1      18.830   6.883  37.856  0.00  0.00    +0.029 A 
ATOM      4  C6  UNL     1      18.361   8.117  37.425  0.00  0.00    +0.067 A 
ATOM      5  N2  UNL     1      17.123   8.616  37.521  0.00  0.00    -0.338 N 
ATOM      6  C7  UNL     1      17.219   9.846  36.949  0.00  0.00    +0.139 A 
ATOM      7  N5  UNL     1      18.473  10.131  36.501  0.00  0.00    -0.228 NA
ATOM      8  C18 UNL     1      19.167   9.023  36.815  0.00  0.00    +0.091 A 
ATOM      9  C19 UNL     1      20.516   8.771  36.581  0.00  0.00    +0.053 A 
ATOM     10  H9  UNL     1      16.295   8.152  37.955  0.00  0.00    +0.167 HD
ENDROOT
BRANCH   6  11
ATOM     11  C8  UNL     1      16.089  10.802  36.821  0.00  0.00    +0.019 A 
ATOM     12  C9  UNL     1      16.262  12.179  37.061  0.00  0.00    +0.012 A 
ATOM     13  C10 UNL     1      15.189  13.067  36.938  0.00  0.00    +0.011 A 
ATOM     14  C11 UNL     1      13.923  12.592  36.573  0.00  0.00    +0.002 A 
ATOM     15  C12 UNL     1      12.831  13.460  36.442  0.00  0.00    +0.030 A 
ATOM     16  C13 UNL     1      11.579  12.951  36.076  0.00  0.00    +0.070 A 
ATOM     17  C15 UNL     1      11.438  11.577  35.846  0.00  0.00    +0.130 A 
ATOM     18  N4  UNL     1      12.508  10.748  35.978  0.00  0.00    -0.254 NA
ATOM     19  C16 UNL     1      13.736  11.215  36.333  0.00  0.00    +0.072 A 
ATOM     20  C17 UNL     1      14.813  10.330  36.458  0.00  0.00    +0.039 A 
BRANCH  16  21
ATOM     21  C14 UNL     1      10.449  13.830  35.937  0.00  0.00    +0.101 C 
ATOM     22  N3  UNL     1       9.540  14.538  35.824  0.00  0.00    -0.191 NA
ENDBRANCH  16  21
ENDBRANCH   6  11
BRANCH   1  24
ATOM     23  C1  UNL     1      23.074   7.436  35.468  0.00  0.00    +0.129 C 
ATOM     24  N1  UNL     1      22.454   7.209  36.779  0.00  0.00    -0.336 N 
ATOM     25  C2  UNL     1      23.276   6.662  37.866  0.00  0.00    +0.129 C 
ENDBRANCH   1  24
TORSDOF 3
ENDMDL
MODEL 5
REMARK VINA RESULT:    -5.946      1.418      9.228
REMARK INTER + INTRA:          -7.301
REMARK INTER:                  -6.999
REMARK INTRA:                  -0.303
REMARK UNBOUND:                -0.313
REMARK  Name = /home/qwerty/github/datacon2025hack/step_04_hit_selection/docking/ligands/lig_23.pdb
REMARK  5 active torsions:
REMARK  status: ('A' for Active; 'I' for Inactive)
REMARK    1  A    between atoms: C1_1  and  N1_2
REMARK    2  A    between atoms: N1_2  and  C2_3
REMARK    3  A    between atoms: N1_2  and  C3_4
REMARK    4  A    between atoms: C7_9  and  C8_10
REMARK    5  A    between atoms: C13_15  and  C14_16
REMARK                            x       y       z     vdW  Elec       q    Type
REMARK                         _______ _______ _______ _____ _____    ______ ____
ROOT
ATOM      1  C3  UNL     1      15.662   0.955  20.724  0.00  0.00    +0.031 A 
ATOM      2  C4  UNL     1      16.482   1.873  20.002  0.00  0.00    +0.025 A 
ATOM      3  C5  UNL     1      16.037   3.176  19.716  0.00  0.00    +0.029 A 
ATOM      4  C6  UNL     1      14.772   3.538  20.162  0.00  0.00    +0.067 A 
ATOM      5  N2  UNL     1      14.141   4.709  20.010  0.00  0.00    -0.338 N 
ATOM      6  C7  UNL     1      12.945   4.519  20.629  0.00  0.00    +0.139 A 
ATOM      7  N5  UNL     1      12.809   3.273  21.160  0.00  0.00    -0.228 NA
ATOM      8  C18 UNL     1      13.975   2.680  20.849  0.00  0.00    +0.091 A 
ATOM      9  C19 UNL     1      14.376   1.383  21.152  0.00  0.00    +0.053 A 
ATOM     10  H9  UNL     1      14.502   5.552  19.513  0.00  0.00    +0.167 HD
ENDROOT
BRANCH   6  11
ATOM     11  C8  UNL     1      11.878   5.549  20.723  0.00  0.00    +0.019 A 
ATOM     12  C9  UNL     1      10.548   5.262  20.357  0.00  0.00    +0.012 A 
ATOM     13  C10 UNL     1       9.555   6.242  20.450  0.00  0.00    +0.011 A 
ATOM     14  C11 UNL     1       9.874   7.525  20.910  0.00  0.00    +0.002 A 
ATOM     15  C12 UNL     1       8.897   8.525  21.013  0.00  0.00    +0.030 A 
ATOM     16  C13 UNL     1       9.252   9.797  21.476  0.00  0.00    +0.070 A 
ATOM     17  C15 UNL     1      10.583  10.052  21.830  0.00  0.00    +0.130 A 
ATOM     18  N4  UNL     1      11.518   9.072  21.723  0.00  0.00    -0.254 NA
ATOM     19  C16 UNL     1      11.203   7.825  21.276  0.00  0.00    +0.072 A 
ATOM     20  C17 UNL     1      12.194   6.843  21.181  0.00  0.00    +0.039 A 
BRANCH  16  21
ATOM     21  C14 UNL     1       8.260  10.833  21.588  0.00  0.00    +0.101 C 
ATOM     22  N3  UNL     1       7.462  11.666  21.678  0.00  0.00    -0.191 NA
ENDBRANCH  16  21
ENDBRANCH   6  11
BRANCH   1  24
ATOM     23  C1  UNL     1      15.908  -0.988  22.337  0.00  0.00    +0.129 C 
ATOM     24  N1  UNL     1      16.130  -0.389  21.015  0.00  0.00    -0.336 N 
ATOM     25  C2  UNL     1      16.831  -1.174  19.991  0.00  0.00    +0.129 C 
ENDBRANCH   1  24
TORSDOF 3
ENDMDL
MODEL 6
REMARK VINA RESULT:    -5.865     15.873     16.664
REMARK INTER + INTRA:          -7.206
REMARK INTER:                  -6.888
REMARK INTRA:                  -0.318
REMARK UNBOUND:                -0.313
REMARK  Name = /home/qwerty/github/datacon2025hack/step_04_hit_selection/docking/ligands/lig_23.pdb
REMARK  5 active torsions:
REMARK  status: ('A' for Active; 'I' for Inactive)
REMARK    1  A    between atoms: C1_1  and  N1_2
REMARK    2  A    between atoms: N1_2  and  C2_3
REMARK    3  A    between atoms: N1_2  and  C3_4
REMARK    4  A    between atoms: C7_9  and  C8_10
REMARK    5  A    between atoms: C13_15  and  C14_16
REMARK                            x       y       z     vdW  Elec       q    Type
REMARK                         _______ _______ _______ _____ _____    ______ ____
ROOT
ATOM      1  C3  UNL     1      17.325  13.254  35.372  0.00  0.00    +0.031 A 
ATOM      2  C4  UNL     1      18.374  12.301  35.535  0.00  0.00    +0.025 A 
ATOM      3  C5  UNL     1      19.427  12.213  34.607  0.00  0.00    +0.029 A 
ATOM      4  C6  UNL     1      19.410  13.087  33.527  0.00  0.00    +0.067 A 
ATOM      5  N2  UNL     1      20.294  13.189  32.527  0.00  0.00    -0.338 N 
ATOM      6  C7  UNL     1      19.800  14.192  31.753  0.00  0.00    +0.139 A 
ATOM      7  N5  UNL     1      18.640  14.718  32.236  0.00  0.00    -0.228 NA
ATOM      8  C18 UNL     1      18.423  14.001  33.353  0.00  0.00    +0.091 A 
ATOM      9  C19 UNL     1      17.362  14.122  34.246  0.00  0.00    +0.053 A 
ATOM     10  H9  UNL     1      21.150  12.608  32.389  0.00  0.00    +0.167 HD
ENDROOT
BRANCH   6  11
ATOM     11  C8  UNL     1      20.437  14.678  30.502  0.00  0.00    +0.019 A 
ATOM     12  C9  UNL     1      20.043  15.889  29.901  0.00  0.00    +0.012 A 
ATOM     13  C10 UNL     1      20.652  16.333  28.723  0.00  0.00    +0.011 A 
ATOM     14  C11 UNL     1      21.662  15.572  28.124  0.00  0.00    +0.002 A 
ATOM     15  C12 UNL     1      22.289  15.994  26.943  0.00  0.00    +0.030 A 
ATOM     16  C13 UNL     1      23.296  15.208  26.372  0.00  0.00    +0.070 A 
ATOM     17  C15 UNL     1      23.663  14.007  26.991  0.00  0.00    +0.130 A 
ATOM     18  N4  UNL     1      23.045  13.612  28.136  0.00  0.00    -0.254 NA
ATOM     19  C16 UNL     1      22.063  14.355  28.714  0.00  0.00    +0.072 A 
ATOM     20  C17 UNL     1      21.452  13.914  29.893  0.00  0.00    +0.039 A 
BRANCH  16  21
ATOM     21  C14 UNL     1      23.947  15.629  25.160  0.00  0.00    +0.101 C 
ATOM     22  N3  UNL     1      24.471  15.968  24.186  0.00  0.00    -0.191 NA
ENDBRANCH  16  21
ENDBRANCH   6  11
BRANCH   1  24
ATOM     23  C1  UNL     1      15.404  14.542  36.415  0.00  0.00    +0.129 C 
ATOM     24  N1  UNL     1      16.241  13.339  36.336  0.00  0.00    -0.336 N 
ATOM     25  C2  UNL     1      15.964  12.220  37.245  0.00  0.00    +0.129 C 
ENDBRANCH   1  24
TORSDOF 3
ENDMDL
MODEL 7
REMARK VINA RESULT:    -5.800     10.388     12.339
REMARK INTER + INTRA:          -7.131
REMARK INTER:                  -6.835
REMARK INTRA:                  -0.295
REMARK UNBOUND:                -0.313
REMARK  Name = /home/qwerty/github/datacon2025hack/step_04_hit_selection/docking/ligands/lig_23.pdb
REMARK  5 active torsions:
REMARK  status: ('A' for Active; 'I' for Inactive)
REMARK    1  A    between atoms: C1_1  and  N1_2
REMARK    2  A    between atoms: N1_2  and  C2_3
REMARK    3  A    between atoms: N1_2  and  C3_4
REMARK    4  A    between atoms: C7_9  and  C8_10
REMARK    5  A    between atoms: C13_15  and  C14_16
REMARK                            x       y       z     vdW  Elec       q    Type
REMARK                         _______ _______ _______ _____ _____    ______ ____
ROOT
ATOM      1  C3  UNL     1      22.298   6.761  21.093  0.00  0.00    +0.031 A 
ATOM      2  C4  UNL     1      21.420   5.797  20.514  0.00  0.00    +0.025 A 
ATOM      3  C5  UNL     1      20.911   4.728  21.273  0.00  0.00    +0.029 A 
ATOM      4  C6  UNL     1      21.293   4.644  22.606  0.00  0.00    +0.067 A 
ATOM      5  N2  UNL     1      20.942   3.726  23.514  0.00  0.00    -0.338 N 
ATOM      6  C7  UNL     1      21.595   4.114  24.643  0.00  0.00    +0.139 A 
ATOM      7  N5  UNL     1      22.340   5.241  24.468  0.00  0.00    -0.228 NA
ATOM      8  C18 UNL     1      22.128   5.549  23.176  0.00  0.00    +0.091 A 
ATOM      9  C19 UNL     1      22.655   6.621  22.462  0.00  0.00    +0.053 A 
ATOM     10  H9  UNL     1      20.320   2.902  23.361  0.00  0.00    +0.167 HD
ENDROOT
BRANCH   6  11
ATOM     11  C8  UNL     1      21.524   3.396  25.942  0.00  0.00    +0.019 A 
ATOM     12  C9  UNL     1      22.689   2.964  26.605  0.00  0.00    +0.012 A 
ATOM     13  C10 UNL     1      22.606   2.288  27.826  0.00  0.00    +0.011 A 
ATOM     14  C11 UNL     1      21.358   2.032  28.405  0.00  0.00    +0.002 A 
ATOM     15  C12 UNL     1      21.247   1.357  29.628  0.00  0.00    +0.030 A 
ATOM     16  C13 UNL     1      19.982   1.118  30.177  0.00  0.00    +0.070 A 
ATOM     17  C15 UNL     1      18.842   1.558  29.492  0.00  0.00    +0.130 A 
ATOM     18  N4  UNL     1      18.967   2.210  28.307  0.00  0.00    -0.254 NA
ATOM     19  C16 UNL     1      20.184   2.457  27.748  0.00  0.00    +0.072 A 
ATOM     20  C17 UNL     1      20.270   3.132  26.526  0.00  0.00    +0.039 A 
BRANCH  16  21
ATOM     21  C14 UNL     1      19.854   0.427  31.433  0.00  0.00    +0.101 C 
ATOM     22  N3  UNL     1      19.750  -0.129  32.442  0.00  0.00    -0.191 NA
ENDBRANCH  16  21
ENDBRANCH   6  11
BRANCH   1  24
ATOM     23  C1  UNL     1      23.708   7.607  19.161  0.00  0.00    +0.129 C 
ATOM     24  N1  UNL     1      22.819   7.862  20.301  0.00  0.00    -0.336 N 
ATOM     25  C2  UNL     1      22.462   9.248  20.626  0.00  0.00    +0.129 C 
ENDBRANCH   1  24
TORSDOF 3
ENDMDL
MODEL 8
REMARK VINA RESULT:    -5.794     11.403     13.860
REMARK INTER + INTRA:          -7.123
REMARK INTER:                  -6.835
REMARK INTRA:                  -0.288
REMARK UNBOUND:                -0.313
REMARK  Name = /home/qwerty/github/datacon2025hack/step_04_hit_selection/docking/ligands/lig_23.pdb
REMARK  5 active torsions:
REMARK  status: ('A' for Active; 'I' for Inactive)
REMARK    1  A    between atoms: C1_1  and  N1_2
REMARK    2  A    between atoms: N1_2  and  C2_3
REMARK    3  A    between atoms: N1_2  and  C3_4
REMARK    4  A    between atoms: C7_9  and  C8_10
REMARK    5  A    between atoms: C13_15  and  C14_16
REMARK                            x       y       z     vdW  Elec       q    Type
REMARK                         _______ _______ _______ _____ _____    ______ ____
ROOT
ATOM      1  C3  UNL     1       9.650  13.488  28.585  0.00  0.00    +0.031 A 
ATOM      2  C4  UNL     1       9.555  13.428  30.007  0.00  0.00    +0.025 A 
ATOM      3  C5  UNL     1      10.660  13.729  30.823  0.00  0.00    +0.029 A 
ATOM      4  C6  UNL     1      11.846  14.088  30.196  0.00  0.00    +0.067 A 
ATOM      5  N2  UNL     1      13.018  14.413  30.757  0.00  0.00    -0.338 N 
ATOM      6  C7  UNL     1      13.829  14.671  29.696  0.00  0.00    +0.139 A 
ATOM      7  N5  UNL     1      13.205  14.517  28.496  0.00  0.00    -0.228 NA
ATOM      8  C18 UNL     1      11.959  14.150  28.845  0.00  0.00    +0.091 A 
ATOM      9  C19 UNL     1      10.892  13.860  28.001  0.00  0.00    +0.053 A 
ATOM     10  H9  UNL     1      13.235  14.440  31.777  0.00  0.00    +0.167 HD
ENDROOT
BRANCH   6  11
ATOM     11  C8  UNL     1      15.255  15.073  29.810  0.00  0.00    +0.019 A 
ATOM     12  C9  UNL     1      15.731  16.258  29.216  0.00  0.00    +0.012 A 
ATOM     13  C10 UNL     1      17.076  16.624  29.330  0.00  0.00    +0.011 A 
ATOM     14  C11 UNL     1      17.968  15.810  30.038  0.00  0.00    +0.002 A 
ATOM     15  C12 UNL     1      19.320  16.153  30.168  0.00  0.00    +0.030 A 
ATOM     16  C13 UNL     1      20.184  15.315  30.883  0.00  0.00    +0.070 A 
ATOM     17  C15 UNL     1      19.681  14.142  31.460  0.00  0.00    +0.130 A 
ATOM     18  N4  UNL     1      18.367  13.823  31.324  0.00  0.00    -0.254 NA
ATOM     19  C16 UNL     1      17.503  14.619  30.635  0.00  0.00    +0.072 A 
ATOM     20  C17 UNL     1      16.157  14.256  30.517  0.00  0.00    +0.039 A 
BRANCH  16  21
ATOM     21  C14 UNL     1      21.575  15.655  31.025  0.00  0.00    +0.101 C 
ATOM     22  N3  UNL     1      22.693  15.929  31.140  0.00  0.00    -0.191 NA
ENDBRANCH  16  21
ENDBRANCH   6  11
BRANCH   1  24
ATOM     23  C1  UNL     1       8.276  11.805  27.275  0.00  0.00    +0.129 C 
ATOM     24  N1  UNL     1       8.503  13.175  27.750  0.00  0.00    -0.336 N 
ATOM     25  C2  UNL     1       7.550  14.225  27.369  0.00  0.00    +0.129 C 
ENDBRANCH   1  24
TORSDOF 3
ENDMDL
MODEL 9
REMARK VINA RESULT:    -5.765     13.617     15.496
REMARK INTER + INTRA:          -7.089
REMARK INTER:                  -6.795
REMARK INTRA:                  -0.294
REMARK UNBOUND:                -0.313
REMARK  Name = /home/qwerty/github/datacon2025hack/step_04_hit_selection/docking/ligands/lig_23.pdb
REMARK  5 active torsions:
REMARK  status: ('A' for Active; 'I' for Inactive)
REMARK    1  A    between atoms: C1_1  and  N1_2
REMARK    2  A    between atoms: N1_2  and  C2_3
REMARK    3  A    between atoms: N1_2  and  C3_4
REMARK    4  A    between atoms: C7_9  and  C8_10
REMARK    5  A    between atoms: C13_15  and  C14_16
REMARK                            x       y       z     vdW  Elec       q    Type
REMARK                         _______ _______ _______ _____ _____    ______ ____
ROOT
ATOM      1  C3  UNL     1      16.476   0.234  36.653  0.00  0.00    +0.031 A 
ATOM      2  C4  UNL     1      17.286   1.261  37.223  0.00  0.00    +0.025 A 
ATOM      3  C5  UNL     1      18.281   1.906  36.468  0.00  0.00    +0.029 A 
ATOM      4  C6  UNL     1      18.447   1.509  35.147  0.00  0.00    +0.067 A 
ATOM      5  N2  UNL     1      19.320   1.972  34.244  0.00  0.00    -0.338 N 
ATOM      6  C7  UNL     1      19.056   1.241  33.127  0.00  0.00    +0.139 A 
ATOM      7  N5  UNL     1      18.050   0.340  33.304  0.00  0.00    -0.228 NA
ATOM      8  C18 UNL     1      17.688   0.534  34.585  0.00  0.00    +0.091 A 
ATOM      9  C19 UNL     1      16.694  -0.130  35.296  0.00  0.00    +0.053 A 
ATOM     10  H9  UNL     1      20.038   2.714  34.393  0.00  0.00    +0.167 HD
ENDROOT
BRANCH   6  11
ATOM     11  C8  UNL     1      19.780   1.388  31.838  0.00  0.00    +0.019 A 
ATOM     12  C9  UNL     1      20.467   0.305  31.256  0.00  0.00    +0.012 A 
ATOM     13  C10 UNL     1      21.145   0.459  30.043  0.00  0.00    +0.011 A 
ATOM     14  C11 UNL     1      21.149   1.698  29.392  0.00  0.00    +0.002 A 
ATOM     15  C12 UNL     1      21.821   1.879  28.175  0.00  0.00    +0.030 A 
ATOM     16  C13 UNL     1      21.804   3.132  27.552  0.00  0.00    +0.070 A 
ATOM     17  C15 UNL     1      21.115   4.190  28.158  0.00  0.00    +0.130 A 
ATOM     18  N4  UNL     1      20.469   3.998  29.338  0.00  0.00    -0.254 NA
ATOM     19  C16 UNL     1      20.468   2.791  29.967  0.00  0.00    +0.072 A 
ATOM     20  C17 UNL     1      19.791   2.634  31.181  0.00  0.00    +0.039 A 
BRANCH  16  21
ATOM     21  C14 UNL     1      22.489   3.332  26.303  0.00  0.00    +0.101 C 
ATOM     22  N3  UNL     1      23.040   3.492  25.298  0.00  0.00    -0.191 NA
ENDBRANCH  16  21
ENDBRANCH   6  11
BRANCH   1  24
ATOM     23  C1  UNL     1      15.565  -1.852  37.772  0.00  0.00    +0.129 C 
ATOM     24  N1  UNL     1      15.449  -0.427  37.441  0.00  0.00    -0.336 N 
ATOM     25  C2  UNL     1      14.281   0.321  37.921  0.00  0.00    +0.129 C 
ENDBRANCH   1  24
TORSDOF 3
ENDMDL
