REMARK  Name = /home/qwerty/github/datacon2025hack/step_04_hit_selection/docking/ligands/lig_102.pdb
REMARK  6 active torsions:
REMARK  status: ('A' for Active; 'I' for Inactive)
REMARK    1  A    between atoms: C1_1  and  C2_2
REMARK    2  A    between atoms: C2_2  and  C3_3
REMARK    3  A    between atoms: C2_2  and  C4_4
REMARK    4  A    between atoms: C7_7  and  N1_8
REMARK    5  A    between atoms: C10_11  and  C11_12
REMARK    6  A    between atoms: C12_14  and  C13_15
REMARK                            x       y       z     vdW  Elec       q    Type
REMARK                         _______ _______ _______ _____ _____    ______ ____
ROOT
ATOM      1  N1  UNL     1      -0.721   0.866   1.429  0.00  0.00    -0.271 N 
ATOM      2  C8  UNL     1      -0.342   0.461   2.775  0.00  0.00    +0.115 C 
ATOM      3  C9  UNL     1       1.124   0.898   2.963  0.00  0.00    +0.042 C 
ATOM      4  C10 UNL     1       1.639   1.363   1.588  0.00  0.00    +0.165 C 
ATOM      5  C18 UNL     1       0.407   1.421   0.773  0.00  0.00    +0.232 C 
ATOM      6  O2  UNL     1       0.353   1.953  -0.369  0.00  0.00    -0.274 OA
ENDROOT
BRANCH   1  10
ATOM      7  C4  UNL     1      -4.493  -0.047  -0.348  0.00  0.00    -0.045 A 
ATOM      8  C5  UNL     1      -4.408   0.314   1.006  0.00  0.00    +0.006 A 
ATOM      9  C6  UNL     1      -3.171   0.613   1.586  0.00  0.00    +0.024 A 
ATOM     10  C7  UNL     1      -1.994   0.567   0.821  0.00  0.00    +0.036 A 
ATOM     11  C19 UNL     1      -2.077   0.195  -0.531  0.00  0.00    +0.024 A 
ATOM     12  C20 UNL     1      -3.313  -0.104  -1.111  0.00  0.00    +0.006 A 
BRANCH   7  14
ATOM     13  C1  UNL     1      -6.192   0.638  -2.072  0.00  0.00    +0.012 C 
ATOM     14  C2  UNL     1      -5.843  -0.365  -0.966  0.00  0.00    +0.013 C 
ATOM     15  C3  UNL     1      -5.888  -1.804  -1.493  0.00  0.00    +0.012 C 
ENDBRANCH   7  14
ENDBRANCH   1  10
BRANCH   4  16
ATOM     16  C11 UNL     1       2.604   0.381   0.992  0.00  0.00    +0.240 A 
ATOM     17  N2  UNL     1       3.841   0.705   0.569  0.00  0.00    -0.191 NA
ATOM     18  C12 UNL     1       4.292  -0.488   0.124  0.00  0.00    +0.204 A 
ATOM     19  N4  UNL     1       3.378  -1.469   0.270  0.00  0.00    -0.056 NA
ATOM     20  O1  UNL     1       2.349  -0.891   0.809  0.00  0.00    -0.337 OA
BRANCH  18  21
ATOM     21  C13 UNL     1       5.632  -0.693  -0.465  0.00  0.00    +0.042 A 
ATOM     22  C14 UNL     1       6.038  -1.966  -0.900  0.00  0.00    +0.122 A 
ATOM     23  N3  UNL     1       7.272  -2.143  -1.444  0.00  0.00    -0.261 NA
ATOM     24  C15 UNL     1       8.147  -1.112  -1.587  0.00  0.00    +0.130 A 
ATOM     25  C16 UNL     1       7.789   0.171  -1.168  0.00  0.00    +0.060 A 
ATOM     26 CL1  UNL     1       8.911   1.507  -1.348  0.00  0.00    -0.082 Cl
ATOM     27  C17 UNL     1       6.527   0.380  -0.604  0.00  0.00    +0.034 A 
ENDBRANCH  18  21
ENDBRANCH   4  16
TORSDOF 4
