MODEL 1
REMARK VINA RESULT:    -7.381      0.000      0.000
REMARK INTER + INTRA:          -9.364
REMARK INTER:                  -8.675
REMARK INTRA:                  -0.689
REMARK UNBOUND:                -0.689
REMARK  Name = /home/qwerty/github/datacon2025hack/step_04_hit_selection/docking/ligands/lig_344.pdb
REMARK  3 active torsions:
REMARK  status: ('A' for Active; 'I' for Inactive)
REMARK    1  A    between atoms: C1_2  and  C15_20
REMARK    2  A    between atoms: N1_3  and  C2_4
REMARK    3  A    between atoms: C6_9  and  C7_10
REMARK                            x       y       z     vdW  Elec       q    Type
REMARK                         _______ _______ _______ _____ _____    ______ ____
ROOT
ATOM      1  C2  UNL     1      20.626   6.971  21.644  0.00  0.00    +0.036 A 
ATOM      2  C3  UNL     1      20.558   5.848  20.778  0.00  0.00    +0.025 A 
ATOM      3  C4  UNL     1      20.686   4.541  21.283  0.00  0.00    +0.029 A 
ATOM      4  C5  UNL     1      20.893   4.397  22.652  0.00  0.00    +0.067 A 
ATOM      5  N2  UNL     1      21.058   3.269  23.353  0.00  0.00    -0.338 N 
ATOM      6  C6  UNL     1      21.245   3.700  24.630  0.00  0.00    +0.139 A 
ATOM      7  N3  UNL     1      21.205   5.056  24.748  0.00  0.00    -0.228 NA
ATOM      8  C13 UNL     1      20.980   5.465  23.488  0.00  0.00    +0.091 A 
ATOM      9  C14 UNL     1      20.859   6.774  23.027  0.00  0.00    +0.053 A 
ATOM     10  H4  UNL     1      21.056   2.295  22.978  0.00  0.00    +0.167 HD
ENDROOT
BRANCH   6  11
ATOM     11  C7  UNL     1      21.480   2.804  25.792  0.00  0.00    +0.017 A 
ATOM     12  C8  UNL     1      22.506   3.061  26.722  0.00  0.00    +0.013 A 
ATOM     13  C9  UNL     1      22.709   2.203  27.808  0.00  0.00    +0.021 A 
ATOM     14  C10 UNL     1      21.895   1.080  27.979  0.00  0.00    +0.041 A 
ATOM     15 CL1  UNL     1      22.154   0.007  29.343  0.00  0.00    -0.084 Cl
ATOM     16  C11 UNL     1      20.877   0.813  27.062  0.00  0.00    +0.021 A 
ATOM     17  C12 UNL     1      20.669   1.667  25.974  0.00  0.00    +0.013 A 
ENDBRANCH   6  11
BRANCH   1  20
ATOM     18  O1  UNL     1      18.197   8.523  21.282  0.00  0.00    -0.270 OA
ATOM     19  C1  UNL     1      19.316   9.078  21.106  0.00  0.00    +0.249 C 
ATOM     20  N1  UNL     1      20.518   8.292  21.086  0.00  0.00    -0.281 N 
ATOM     21  H1  UNL     1      21.346   8.683  20.581  0.00  0.00    +0.155 HD
BRANCH  19  22
ATOM     22  C15 UNL     1      19.367  10.528  20.811  0.00  0.00    +0.045 A 
ATOM     23  C16 UNL     1      19.047  10.942  19.510  0.00  0.00    +0.014 A 
ATOM     24  C17 UNL     1      19.141  12.282  19.145  0.00  0.00    +0.001 A 
ATOM     25  C18 UNL     1      19.554  13.237  20.072  0.00  0.00    +0.009 A 
ATOM     26  C19 UNL     1      19.857  12.867  21.395  0.00  0.00    -0.003 A 
ATOM     27  C20 UNL     1      20.253  13.832  22.351  0.00  0.00    +0.026 A 
ATOM     28 BR1  UNL     1      20.452  15.697  21.931  0.00  0.00    -0.050 Br
ATOM     29  C21 UNL     1      20.512  13.443  23.668  0.00  0.00    +0.016 A 
ATOM     30  C22 UNL     1      20.372  12.114  24.054  0.00  0.00    +0.002 A 
ATOM     31  C23 UNL     1      19.987  11.148  23.125  0.00  0.00    +0.009 A 
ATOM     32  C24 UNL     1      19.748  11.498  21.778  0.00  0.00    -0.005 A 
ENDBRANCH  19  22
ENDBRANCH   1  20
TORSDOF 3
ENDMDL
MODEL 2
REMARK VINA RESULT:    -7.334      8.217     11.618
REMARK INTER + INTRA:          -9.310
REMARK INTER:                  -8.614
REMARK INTRA:                  -0.696
REMARK UNBOUND:                -0.689
REMARK  Name = /home/qwerty/github/datacon2025hack/step_04_hit_selection/docking/ligands/lig_344.pdb
REMARK  3 active torsions:
REMARK  status: ('A' for Active; 'I' for Inactive)
REMARK    1  A    between atoms: C1_2  and  C15_20
REMARK    2  A    between atoms: N1_3  and  C2_4
REMARK    3  A    between atoms: C6_9  and  C7_10
REMARK                            x       y       z     vdW  Elec       q    Type
REMARK                         _______ _______ _______ _____ _____    ______ ____
ROOT
ATOM      1  C2  UNL     1      18.071  15.516  27.854  0.00  0.00    +0.036 A 
ATOM      2  C3  UNL     1      17.898  16.377  28.969  0.00  0.00    +0.025 A 
ATOM      3  C4  UNL     1      16.657  16.465  29.626  0.00  0.00    +0.029 A 
ATOM      4  C5  UNL     1      15.612  15.690  29.133  0.00  0.00    +0.067 A 
ATOM      5  N2  UNL     1      14.351  15.617  29.575  0.00  0.00    -0.338 N 
ATOM      6  C6  UNL     1      13.755  14.737  28.726  0.00  0.00    +0.139 A 
ATOM      7  N3  UNL     1      14.599  14.261  27.768  0.00  0.00    -0.228 NA
ATOM      8  C13 UNL     1      15.759  14.877  28.053  0.00  0.00    +0.091 A 
ATOM      9  C14 UNL     1      16.971  14.763  27.376  0.00  0.00    +0.053 A 
ATOM     10  H4  UNL     1      13.941  16.140  30.380  0.00  0.00    +0.167 HD
ENDROOT
BRANCH   6  11
ATOM     11  C7  UNL     1      12.328  14.328  28.807  0.00  0.00    +0.017 A 
ATOM     12  C8  UNL     1      11.505  14.303  27.665  0.00  0.00    +0.013 A 
ATOM     13  C9  UNL     1      10.165  13.915  27.764  0.00  0.00    +0.021 A 
ATOM     14  C10 UNL     1       9.629  13.550  29.003  0.00  0.00    +0.041 A 
ATOM     15 CL1  UNL     1       7.947  13.064  29.124  0.00  0.00    -0.084 Cl
ATOM     16  C11 UNL     1      10.435  13.574  30.143  0.00  0.00    +0.021 A 
ATOM     17  C12 UNL     1      11.775  13.961  30.048  0.00  0.00    +0.013 A 
ENDBRANCH   6  11
BRANCH   1  20
ATOM     18  O1  UNL     1      20.202  13.590  28.287  0.00  0.00    -0.270 OA
ATOM     19  C1  UNL     1      20.282  14.391  27.316  0.00  0.00    +0.249 C 
ATOM     20  N1  UNL     1      19.347  15.474  27.192  0.00  0.00    -0.281 N 
ATOM     21  H1  UNL     1      19.642  16.310  26.637  0.00  0.00    +0.155 HD
BRANCH  19  22
ATOM     22  C15 UNL     1      21.412  14.268  26.367  0.00  0.00    +0.045 A 
ATOM     23  C16 UNL     1      22.636  14.846  26.730  0.00  0.00    +0.014 A 
ATOM     24  C17 UNL     1      23.720  14.829  25.856  0.00  0.00    +0.001 A 
ATOM     25  C18 UNL     1      23.604  14.231  24.603  0.00  0.00    +0.009 A 
ATOM     26  C19 UNL     1      22.402  13.614  24.212  0.00  0.00    -0.003 A 
ATOM     27  C20 UNL     1      22.282  12.983  22.951  0.00  0.00    +0.026 A 
ATOM     28 BR1  UNL     1      23.707  12.944  21.663  0.00  0.00    -0.050 Br
ATOM     29  C21 UNL     1      21.088  12.345  22.602  0.00  0.00    +0.016 A 
ATOM     30  C22 UNL     1      20.017  12.314  23.489  0.00  0.00    +0.002 A 
ATOM     31  C23 UNL     1      20.116  12.936  24.733  0.00  0.00    +0.009 A 
ATOM     32  C24 UNL     1      21.294  13.617  25.108  0.00  0.00    -0.005 A 
ENDBRANCH  19  22
ENDBRANCH   1  20
TORSDOF 3
ENDMDL
MODEL 3
REMARK VINA RESULT:    -7.235     11.686     15.785
REMARK INTER + INTRA:          -9.194
REMARK INTER:                  -8.536
REMARK INTRA:                  -0.658
REMARK UNBOUND:                -0.689
REMARK  Name = /home/qwerty/github/datacon2025hack/step_04_hit_selection/docking/ligands/lig_344.pdb
REMARK  3 active torsions:
REMARK  status: ('A' for Active; 'I' for Inactive)
REMARK    1  A    between atoms: C1_2  and  C15_20
REMARK    2  A    between atoms: N1_3  and  C2_4
REMARK    3  A    between atoms: C6_9  and  C7_10
REMARK                            x       y       z     vdW  Elec       q    Type
REMARK                         _______ _______ _______ _____ _____    ______ ____
ROOT
ATOM      1  C2  UNL     1      15.530   1.906  36.322  0.00  0.00    +0.036 A 
ATOM      2  C3  UNL     1      16.597   1.945  37.257  0.00  0.00    +0.025 A 
ATOM      3  C4  UNL     1      17.935   1.883  36.827  0.00  0.00    +0.029 A 
ATOM      4  C5  UNL     1      18.167   1.769  35.459  0.00  0.00    +0.067 A 
ATOM      5  N2  UNL     1      19.338   1.678  34.819  0.00  0.00    -0.338 N 
ATOM      6  C6  UNL     1      18.990   1.565  33.509  0.00  0.00    +0.139 A 
ATOM      7  N3  UNL     1      17.643   1.578  33.311  0.00  0.00    -0.228 NA
ATOM      8  C13 UNL     1      17.153   1.711  34.555  0.00  0.00    +0.091 A 
ATOM      9  C14 UNL     1      15.816   1.769  34.941  0.00  0.00    +0.053 A 
ATOM     10  H4  UNL     1      20.288   1.681  35.253  0.00  0.00    +0.167 HD
ENDROOT
BRANCH   6  11
ATOM     11  C7  UNL     1      19.961   1.428  32.393  0.00  0.00    +0.017 A 
ATOM     12  C8  UNL     1      19.811   0.434  31.406  0.00  0.00    +0.013 A 
ATOM     13  C9  UNL     1      20.737   0.323  30.364  0.00  0.00    +0.021 A 
ATOM     14  C10 UNL     1      21.823   1.200  30.293  0.00  0.00    +0.041 A 
ATOM     15 CL1  UNL     1      22.983   1.057  28.984  0.00  0.00    -0.084 Cl
ATOM     16  C11 UNL     1      21.984   2.187  31.267  0.00  0.00    +0.021 A 
ATOM     17  C12 UNL     1      21.061   2.302  32.311  0.00  0.00    +0.013 A 
ENDBRANCH   6  11
BRANCH   1  20
ATOM     18  O1  UNL     1      13.798   4.233  36.485  0.00  0.00    -0.270 OA
ATOM     19  C1  UNL     1      13.312   3.086  36.684  0.00  0.00    +0.249 C 
ATOM     20  N1  UNL     1      14.175   1.945  36.803  0.00  0.00    -0.281 N 
ATOM     21  H1  UNL     1      13.814   1.114  37.325  0.00  0.00    +0.155 HD
BRANCH  19  22
ATOM     22  C15 UNL     1      11.854   2.946  36.904  0.00  0.00    +0.045 A 
ATOM     23  C16 UNL     1      11.325   3.432  38.108  0.00  0.00    +0.014 A 
ATOM     24  C17 UNL     1       9.976   3.270  38.410  0.00  0.00    +0.001 A 
ATOM     25  C18 UNL     1       9.127   2.624  37.514  0.00  0.00    +0.009 A 
ATOM     26  C19 UNL     1       9.612   2.148  36.283  0.00  0.00    -0.003 A 
ATOM     27  C20 UNL     1       8.753   1.511  35.356  0.00  0.00    +0.026 A 
ATOM     28 BR1  UNL     1       6.887   1.206  35.701  0.00  0.00    -0.050 Br
ATOM     29  C21 UNL     1       9.253   1.080  34.124  0.00  0.00    +0.016 A 
ATOM     30  C22 UNL     1      10.589   1.282  33.794  0.00  0.00    +0.002 A 
ATOM     31  C23 UNL     1      11.452   1.903  34.697  0.00  0.00    +0.009 A 
ATOM     32  C24 UNL     1      10.990   2.322  35.963  0.00  0.00    -0.005 A 
ENDBRANCH  19  22
ENDBRANCH   1  20
TORSDOF 3
ENDMDL
MODEL 4
REMARK VINA RESULT:    -7.129     13.865     15.710
REMARK INTER + INTRA:          -9.068
REMARK INTER:                  -8.379
REMARK INTRA:                  -0.689
REMARK UNBOUND:                -0.689
REMARK  Name = /home/qwerty/github/datacon2025hack/step_04_hit_selection/docking/ligands/lig_344.pdb
REMARK  3 active torsions:
REMARK  status: ('A' for Active; 'I' for Inactive)
REMARK    1  A    between atoms: C1_2  and  C15_20
REMARK    2  A    between atoms: N1_3  and  C2_4
REMARK    3  A    between atoms: C6_9  and  C7_10
REMARK                            x       y       z     vdW  Elec       q    Type
REMARK                         _______ _______ _______ _____ _____    ______ ____
ROOT
ATOM      1  C2  UNL     1       9.509  -0.517  28.698  0.00  0.00    +0.036 A 
ATOM      2  C3  UNL     1      10.151  -1.777  28.811  0.00  0.00    +0.025 A 
ATOM      3  C4  UNL     1      10.057  -2.530  29.995  0.00  0.00    +0.029 A 
ATOM      4  C5  UNL     1       9.326  -1.987  31.047  0.00  0.00    +0.067 A 
ATOM      5  N2  UNL     1       9.110  -2.503  32.263  0.00  0.00    -0.338 N 
ATOM      6  C6  UNL     1       8.361  -1.559  32.893  0.00  0.00    +0.139 A 
ATOM      7  N3  UNL     1       8.105  -0.471  32.114  0.00  0.00    -0.228 NA
ATOM      8  C13 UNL     1       8.722  -0.773  30.959  0.00  0.00    +0.091 A 
ATOM      9  C14 UNL     1       8.792   0.004  29.804  0.00  0.00    +0.053 A 
ATOM     10  H4  UNL     1       9.462  -3.417  32.625  0.00  0.00    +0.167 HD
ENDROOT
BRANCH   6  11
ATOM     11  C7  UNL     1       7.868  -1.673  34.291  0.00  0.00    +0.017 A 
ATOM     12  C8  UNL     1       8.215  -2.770  35.104  0.00  0.00    +0.013 A 
ATOM     13  C9  UNL     1       7.740  -2.858  36.416  0.00  0.00    +0.021 A 
ATOM     14  C10 UNL     1       6.914  -1.857  36.933  0.00  0.00    +0.041 A 
ATOM     15 CL1  UNL     1       6.320  -1.971  38.580  0.00  0.00    -0.084 Cl
ATOM     16  C11 UNL     1       6.561  -0.766  36.136  0.00  0.00    +0.021 A 
ATOM     17  C12 UNL     1       7.033  -0.673  34.823  0.00  0.00    +0.013 A 
ENDBRANCH   6  11
BRANCH   1  20
ATOM     18  O1  UNL     1       7.532  -0.210  26.592  0.00  0.00    -0.270 OA
ATOM     19  C1  UNL     1       8.573   0.501  26.569  0.00  0.00    +0.249 C 
ATOM     20  N1  UNL     1       9.651   0.236  27.481  0.00  0.00    -0.281 N 
ATOM     21  H1  UNL     1      10.608   0.558  27.210  0.00  0.00    +0.155 HD
BRANCH  19  22
ATOM     22  C15 UNL     1       8.719   1.538  25.523  0.00  0.00    +0.045 A 
ATOM     23  C16 UNL     1       9.188   1.137  24.264  0.00  0.00    +0.014 A 
ATOM     24  C17 UNL     1       9.414   2.070  23.257  0.00  0.00    +0.001 A 
ATOM     25  C18 UNL     1       9.174   3.423  23.484  0.00  0.00    +0.009 A 
ATOM     26  C19 UNL     1       8.677   3.864  24.723  0.00  0.00    -0.003 A 
ATOM     27  C20 UNL     1       8.406   5.234  24.956  0.00  0.00    +0.026 A 
ATOM     28 BR1  UNL     1       8.726   6.599  23.642  0.00  0.00    -0.050 Br
ATOM     29  C21 UNL     1       7.877   5.641  26.184  0.00  0.00    +0.016 A 
ATOM     30  C22 UNL     1       7.601   4.708  27.179  0.00  0.00    +0.002 A 
ATOM     31  C23 UNL     1       7.865   3.356  26.969  0.00  0.00    +0.009 A 
ATOM     32  C24 UNL     1       8.430   2.911  25.754  0.00  0.00    -0.005 A 
ENDBRANCH  19  22
ENDBRANCH   1  20
TORSDOF 3
ENDMDL
MODEL 5
REMARK VINA RESULT:    -7.090     15.153     17.571
REMARK INTER + INTRA:          -9.022
REMARK INTER:                  -8.402
REMARK INTRA:                  -0.620
REMARK UNBOUND:                -0.689
REMARK  Name = /home/qwerty/github/datacon2025hack/step_04_hit_selection/docking/ligands/lig_344.pdb
REMARK  3 active torsions:
REMARK  status: ('A' for Active; 'I' for Inactive)
REMARK    1  A    between atoms: C1_2  and  C15_20
REMARK    2  A    between atoms: N1_3  and  C2_4
REMARK    3  A    between atoms: C6_9  and  C7_10
REMARK                            x       y       z     vdW  Elec       q    Type
REMARK                         _______ _______ _______ _____ _____    ______ ____
ROOT
ATOM      1  C2  UNL     1      12.914   5.054  38.498  0.00  0.00    +0.036 A 
ATOM      2  C3  UNL     1      11.771   5.881  38.338  0.00  0.00    +0.025 A 
ATOM      3  C4  UNL     1      10.479   5.325  38.309  0.00  0.00    +0.029 A 
ATOM      4  C5  UNL     1      10.369   3.943  38.428  0.00  0.00    +0.067 A 
ATOM      5  N2  UNL     1       9.262   3.193  38.412  0.00  0.00    -0.338 N 
ATOM      6  C6  UNL     1       9.724   1.920  38.540  0.00  0.00    +0.139 A 
ATOM      7  N3  UNL     1      11.082   1.851  38.632  0.00  0.00    -0.228 NA
ATOM      8  C13 UNL     1      11.458   3.139  38.561  0.00  0.00    +0.091 A 
ATOM      9  C14 UNL     1      12.753   3.650  38.594  0.00  0.00    +0.053 A 
ATOM     10  H4  UNL     1       8.280   3.532  38.308  0.00  0.00    +0.167 HD
ENDROOT
BRANCH   6  11
ATOM     11  C7  UNL     1       8.859   0.712  38.569  0.00  0.00    +0.017 A 
ATOM     12  C8  UNL     1       9.407  -0.585  38.532  0.00  0.00    +0.013 A 
ATOM     13  C9  UNL     1       8.574  -1.708  38.560  0.00  0.00    +0.021 A 
ATOM     14  C10 UNL     1       7.187  -1.552  38.624  0.00  0.00    +0.041 A 
ATOM     15 CL1  UNL     1       6.145  -2.964  38.659  0.00  0.00    -0.084 Cl
ATOM     16  C11 UNL     1       6.632  -0.272  38.658  0.00  0.00    +0.021 A 
ATOM     17  C12 UNL     1       7.460   0.854  38.630  0.00  0.00    +0.013 A 
ENDBRANCH   6  11
BRANCH   1  20
ATOM     18  O1  UNL     1      14.814   5.102  36.300  0.00  0.00    -0.270 OA
ATOM     19  C1  UNL     1      15.034   5.808  37.322  0.00  0.00    +0.249 C 
ATOM     20  N1  UNL     1      14.220   5.656  38.496  0.00  0.00    -0.281 N 
ATOM     21  H1  UNL     1      14.630   5.946  39.413  0.00  0.00    +0.155 HD
BRANCH  19  22
ATOM     22  C15 UNL     1      16.206   6.713  37.338  0.00  0.00    +0.045 A 
ATOM     23  C16 UNL     1      17.397   6.230  37.897  0.00  0.00    +0.014 A 
ATOM     24  C17 UNL     1      18.516   7.051  38.008  0.00  0.00    +0.001 A 
ATOM     25  C18 UNL     1      18.470   8.369  37.559  0.00  0.00    +0.009 A 
ATOM     26  C19 UNL     1      17.303   8.883  36.966  0.00  0.00    -0.003 A 
ATOM     27  C20 UNL     1      17.253  10.213  36.485  0.00  0.00    +0.026 A 
ATOM     28 BR1  UNL     1      18.731  11.432  36.631  0.00  0.00    -0.050 Br
ATOM     29  C21 UNL     1      16.093  10.687  35.866  0.00  0.00    +0.016 A 
ATOM     30  C22 UNL     1      14.987   9.858  35.706  0.00  0.00    +0.002 A 
ATOM     31  C23 UNL     1      15.016   8.547  36.179  0.00  0.00    +0.009 A 
ATOM     32  C24 UNL     1      16.158   8.043  36.838  0.00  0.00    -0.005 A 
ENDBRANCH  19  22
ENDBRANCH   1  20
TORSDOF 3
ENDMDL
MODEL 6
REMARK VINA RESULT:    -7.068      9.660     12.961
REMARK INTER + INTRA:          -8.996
REMARK INTER:                  -8.408
REMARK INTRA:                  -0.589
REMARK UNBOUND:                -0.689
REMARK  Name = /home/qwerty/github/datacon2025hack/step_04_hit_selection/docking/ligands/lig_344.pdb
REMARK  3 active torsions:
REMARK  status: ('A' for Active; 'I' for Inactive)
REMARK    1  A    between atoms: C1_2  and  C15_20
REMARK    2  A    between atoms: N1_3  and  C2_4
REMARK    3  A    between atoms: C6_9  and  C7_10
REMARK                            x       y       z     vdW  Elec       q    Type
REMARK                         _______ _______ _______ _____ _____    ______ ____
ROOT
ATOM      1  C2  UNL     1      21.943  14.223  29.699  0.00  0.00    +0.036 A 
ATOM      2  C3  UNL     1      23.094  13.396  29.623  0.00  0.00    +0.025 A 
ATOM      3  C4  UNL     1      23.883  13.364  28.459  0.00  0.00    +0.029 A 
ATOM      4  C5  UNL     1      23.484  14.159  27.389  0.00  0.00    +0.067 A 
ATOM      5  N2  UNL     1      24.057  14.283  26.186  0.00  0.00    -0.338 N 
ATOM      6  C6  UNL     1      23.253  15.160  25.527  0.00  0.00    +0.139 A 
ATOM      7  N3  UNL     1      22.197  15.585  26.275  0.00  0.00    -0.228 NA
ATOM      8  C13 UNL     1      22.372  14.940  27.442  0.00  0.00    +0.091 A 
ATOM      9  C14 UNL     1      21.565  14.999  28.575  0.00  0.00    +0.053 A 
ATOM     10  H4  UNL     1      24.916  13.793  25.851  0.00  0.00    +0.167 HD
ENDROOT
BRANCH   6  11
ATOM     11  C7  UNL     1      23.477  15.616  24.130  0.00  0.00    +0.017 A 
ATOM     12  C8  UNL     1      24.768  15.656  23.568  0.00  0.00    +0.013 A 
ATOM     13  C9  UNL     1      24.955  16.089  22.252  0.00  0.00    +0.021 A 
ATOM     14  C10 UNL     1      23.860  16.489  21.481  0.00  0.00    +0.041 A 
ATOM     15 CL1  UNL     1      24.100  17.031  19.829  0.00  0.00    -0.084 Cl
ATOM     16  C11 UNL     1      22.576  16.456  22.028  0.00  0.00    +0.021 A 
ATOM     17  C12 UNL     1      22.383  16.025  23.344  0.00  0.00    +0.013 A 
ENDBRANCH   6  11
BRANCH   1  20
ATOM     18  O1  UNL     1      19.275  13.116  30.010  0.00  0.00    -0.270 OA
ATOM     19  C1  UNL     1      19.914  13.482  31.034  0.00  0.00    +0.249 C 
ATOM     20  N1  UNL     1      21.146  14.208  30.896  0.00  0.00    -0.281 N 
ATOM     21  H1  UNL     1      21.448  14.811  31.696  0.00  0.00    +0.155 HD
BRANCH  19  22
ATOM     22  C15 UNL     1      19.328  13.254  32.374  0.00  0.00    +0.045 A 
ATOM     23  C16 UNL     1      18.463  14.231  32.885  0.00  0.00    +0.014 A 
ATOM     24  C17 UNL     1      17.932  14.114  34.166  0.00  0.00    +0.001 A 
ATOM     25  C18 UNL     1      18.252  13.017  34.963  0.00  0.00    +0.009 A 
ATOM     26  C19 UNL     1      19.093  12.000  34.478  0.00  0.00    -0.003 A 
ATOM     27  C20 UNL     1      19.405  10.869  35.270  0.00  0.00    +0.026 A 
ATOM     28 BR1  UNL     1      18.754  10.640  37.063  0.00  0.00    -0.050 Br
ATOM     29  C21 UNL     1      20.214   9.856  34.750  0.00  0.00    +0.016 A 
ATOM     30  C22 UNL     1      20.708   9.941  33.452  0.00  0.00    +0.002 A 
ATOM     31  C23 UNL     1      20.416  11.049  32.659  0.00  0.00    +0.009 A 
ATOM     32  C24 UNL     1      19.629  12.108  33.161  0.00  0.00    -0.005 A 
ENDBRANCH  19  22
ENDBRANCH   1  20
TORSDOF 3
ENDMDL
MODEL 7
REMARK VINA RESULT:    -7.023      8.146      8.768
REMARK INTER + INTRA:          -8.944
REMARK INTER:                  -8.350
REMARK INTRA:                  -0.595
REMARK UNBOUND:                -0.689
REMARK  Name = /home/qwerty/github/datacon2025hack/step_04_hit_selection/docking/ligands/lig_344.pdb
REMARK  3 active torsions:
REMARK  status: ('A' for Active; 'I' for Inactive)
REMARK    1  A    between atoms: C1_2  and  C15_20
REMARK    2  A    between atoms: N1_3  and  C2_4
REMARK    3  A    between atoms: C6_9  and  C7_10
REMARK                            x       y       z     vdW  Elec       q    Type
REMARK                         _______ _______ _______ _____ _____    ______ ____
ROOT
ATOM      1  C2  UNL     1      12.642   5.017  20.820  0.00  0.00    +0.036 A 
ATOM      2  C3  UNL     1      13.386   4.788  19.634  0.00  0.00    +0.025 A 
ATOM      3  C4  UNL     1      14.337   3.753  19.569  0.00  0.00    +0.029 A 
ATOM      4  C5  UNL     1      14.524   2.978  20.709  0.00  0.00    +0.067 A 
ATOM      5  N2  UNL     1      15.372   1.959  20.892  0.00  0.00    -0.338 N 
ATOM      6  C6  UNL     1      15.162   1.582  22.182  0.00  0.00    +0.139 A 
ATOM      7  N3  UNL     1      14.215   2.333  22.811  0.00  0.00    -0.228 NA
ATOM      8  C13 UNL     1      13.831   3.199  21.858  0.00  0.00    +0.091 A 
ATOM      9  C14 UNL     1      12.883   4.214  21.963  0.00  0.00    +0.053 A 
ATOM     10  H4  UNL     1      16.042   1.572  20.191  0.00  0.00    +0.167 HD
ENDROOT
BRANCH   6  11
ATOM     11  C7  UNL     1      15.885   0.476  22.861  0.00  0.00    +0.017 A 
ATOM     12  C8  UNL     1      17.030   0.719  23.645  0.00  0.00    +0.013 A 
ATOM     13  C9  UNL     1      17.695  -0.337  24.275  0.00  0.00    +0.021 A 
ATOM     14  C10 UNL     1      17.230  -1.647  24.131  0.00  0.00    +0.041 A 
ATOM     15 CL1  UNL     1      18.068  -2.970  24.923  0.00  0.00    -0.084 Cl
ATOM     16  C11 UNL     1      16.098  -1.901  23.354  0.00  0.00    +0.021 A 
ATOM     17  C12 UNL     1      15.429  -0.848  22.721  0.00  0.00    +0.013 A 
ENDBRANCH   6  11
BRANCH   1  20
ATOM     18  O1  UNL     1      13.104   7.700  21.834  0.00  0.00    -0.270 OA
ATOM     19  C1  UNL     1      12.042   7.455  21.198  0.00  0.00    +0.249 C 
ATOM     20  N1  UNL     1      11.699   6.102  20.858  0.00  0.00    -0.281 N 
ATOM     21  H1  UNL     1      10.690   5.884  20.688  0.00  0.00    +0.155 HD
BRANCH  19  22
ATOM     22  C15 UNL     1      11.102   8.560  20.904  0.00  0.00    +0.045 A 
ATOM     23  C16 UNL     1      11.324   9.316  19.745  0.00  0.00    +0.014 A 
ATOM     24  C17 UNL     1      10.521  10.412  19.444  0.00  0.00    +0.001 A 
ATOM     25  C18 UNL     1       9.478  10.775  20.293  0.00  0.00    +0.009 A 
ATOM     26  C19 UNL     1       9.204  10.026  21.451  0.00  0.00    -0.003 A 
ATOM     27  C20 UNL     1       8.131  10.371  22.308  0.00  0.00    +0.026 A 
ATOM     28 BR1  UNL     1       6.996  11.890  21.999  0.00  0.00    -0.050 Br
ATOM     29  C21 UNL     1       7.858   9.588  23.433  0.00  0.00    +0.016 A 
ATOM     30  C22 UNL     1       8.624   8.461  23.714  0.00  0.00    +0.002 A 
ATOM     31  C23 UNL     1       9.688   8.109  22.884  0.00  0.00    +0.009 A 
ATOM     32  C24 UNL     1      10.015   8.894  21.757  0.00  0.00    -0.005 A 
ENDBRANCH  19  22
ENDBRANCH   1  20
TORSDOF 3
ENDMDL
MODEL 8
REMARK VINA RESULT:    -6.918      4.986     10.196
REMARK INTER + INTRA:          -8.820
REMARK INTER:                  -8.147
REMARK INTRA:                  -0.673
REMARK UNBOUND:                -0.689
REMARK  Name = /home/qwerty/github/datacon2025hack/step_04_hit_selection/docking/ligands/lig_344.pdb
REMARK  3 active torsions:
REMARK  status: ('A' for Active; 'I' for Inactive)
REMARK    1  A    between atoms: C1_2  and  C15_20
REMARK    2  A    between atoms: N1_3  and  C2_4
REMARK    3  A    between atoms: C6_9  and  C7_10
REMARK                            x       y       z     vdW  Elec       q    Type
REMARK                         _______ _______ _______ _____ _____    ______ ____
ROOT
ATOM      1  C2  UNL     1      20.138   4.117  24.458  0.00  0.00    +0.036 A 
ATOM      2  C3  UNL     1      19.717   3.473  23.266  0.00  0.00    +0.025 A 
ATOM      3  C4  UNL     1      19.536   4.203  22.077  0.00  0.00    +0.029 A 
ATOM      4  C5  UNL     1      19.773   5.574  22.121  0.00  0.00    +0.067 A 
ATOM      5  N2  UNL     1      19.655   6.470  21.135  0.00  0.00    -0.338 N 
ATOM      6  C6  UNL     1      19.981   7.652  21.723  0.00  0.00    +0.139 A 
ATOM      7  N3  UNL     1      20.295   7.525  23.042  0.00  0.00    -0.228 NA
ATOM      8  C13 UNL     1      20.158   6.206  23.262  0.00  0.00    +0.091 A 
ATOM      9  C14 UNL     1      20.347   5.518  24.458  0.00  0.00    +0.053 A 
ATOM     10  H4  UNL     1      19.362   6.280  20.151  0.00  0.00    +0.167 HD
ENDROOT
BRANCH   6  11
ATOM     11  C7  UNL     1      19.992   8.963  21.023  0.00  0.00    +0.017 A 
ATOM     12  C8  UNL     1      19.339   9.141  19.787  0.00  0.00    +0.013 A 
ATOM     13  C9  UNL     1      19.362  10.383  19.145  0.00  0.00    +0.021 A 
ATOM     14  C10 UNL     1      20.036  11.461  19.725  0.00  0.00    +0.041 A 
ATOM     15 CL1  UNL     1      20.063  13.018  18.916  0.00  0.00    -0.084 Cl
ATOM     16  C11 UNL     1      20.690  11.296  20.948  0.00  0.00    +0.021 A 
ATOM     17  C12 UNL     1      20.670  10.056  21.593  0.00  0.00    +0.013 A 
ENDBRANCH   6  11
BRANCH   1  20
ATOM     18  O1  UNL     1      22.577   2.904  25.468  0.00  0.00    -0.270 OA
ATOM     19  C1  UNL     1      21.550   2.927  26.200  0.00  0.00    +0.249 C 
ATOM     20  N1  UNL     1      20.285   3.341  25.660  0.00  0.00    -0.281 N 
ATOM     21  H1  UNL     1      19.418   3.004  26.137  0.00  0.00    +0.155 HD
BRANCH  19  22
ATOM     22  C15 UNL     1      21.639   2.420  27.588  0.00  0.00    +0.045 A 
ATOM     23  C16 UNL     1      21.778   1.037  27.771  0.00  0.00    +0.014 A 
ATOM     24  C17 UNL     1      21.797   0.486  29.049  0.00  0.00    +0.001 A 
ATOM     25  C18 UNL     1      21.681   1.304  30.171  0.00  0.00    +0.009 A 
ATOM     26  C19 UNL     1      21.568   2.699  30.031  0.00  0.00    -0.003 A 
ATOM     27  C20 UNL     1      21.474   3.542  31.165  0.00  0.00    +0.026 A 
ATOM     28 BR1  UNL     1      21.450   2.870  32.965  0.00  0.00    -0.050 Br
ATOM     29  C21 UNL     1      21.400   4.927  30.999  0.00  0.00    +0.016 A 
ATOM     30  C22 UNL     1      21.430   5.490  29.727  0.00  0.00    +0.002 A 
ATOM     31  C23 UNL     1      21.517   4.676  28.599  0.00  0.00    +0.009 A 
ATOM     32  C24 UNL     1      21.561   3.270  28.725  0.00  0.00    -0.005 A 
ENDBRANCH  19  22
ENDBRANCH   1  20
TORSDOF 3
ENDMDL
MODEL 9
REMARK VINA RESULT:    -6.895      3.598      5.447
REMARK INTER + INTRA:          -8.793
REMARK INTER:                  -8.197
REMARK INTRA:                  -0.596
REMARK UNBOUND:                -0.689
REMARK  Name = /home/qwerty/github/datacon2025hack/step_04_hit_selection/docking/ligands/lig_344.pdb
REMARK  3 active torsions:
REMARK  status: ('A' for Active; 'I' for Inactive)
REMARK    1  A    between atoms: C1_2  and  C15_20
REMARK    2  A    between atoms: N1_3  and  C2_4
REMARK    3  A    between atoms: C6_9  and  C7_10
REMARK                            x       y       z     vdW  Elec       q    Type
REMARK                         _______ _______ _______ _____ _____    ______ ____
ROOT
ATOM      1  C2  UNL     1      21.656   4.797  25.880  0.00  0.00    +0.036 A 
ATOM      2  C3  UNL     1      22.619   3.755  25.871  0.00  0.00    +0.025 A 
ATOM      3  C4  UNL     1      22.562   2.713  26.814  0.00  0.00    +0.029 A 
ATOM      4  C5  UNL     1      21.539   2.752  27.756  0.00  0.00    +0.067 A 
ATOM      5  N2  UNL     1      21.291   1.892  28.751  0.00  0.00    -0.338 N 
ATOM      6  C6  UNL     1      20.199   2.414  29.373  0.00  0.00    +0.139 A 
ATOM      7  N3  UNL     1      19.760   3.571  28.803  0.00  0.00    -0.228 NA
ATOM      8  C13 UNL     1      20.621   3.755  27.787  0.00  0.00    +0.091 A 
ATOM      9  C14 UNL     1      20.644   4.805  26.871  0.00  0.00    +0.053 A 
ATOM     10  H4  UNL     1      21.837   1.034  28.983  0.00  0.00    +0.167 HD
ENDROOT
BRANCH   6  11
ATOM     11  C7  UNL     1      19.541   1.809  30.560  0.00  0.00    +0.017 A 
ATOM     12  C8  UNL     1      20.076   0.671  31.196  0.00  0.00    +0.013 A 
ATOM     13  C9  UNL     1      19.440   0.118  32.312  0.00  0.00    +0.021 A 
ATOM     14  C10 UNL     1      18.264   0.689  32.805  0.00  0.00    +0.041 A 
ATOM     15 CL1  UNL     1      17.468  -0.009  34.205  0.00  0.00    -0.084 Cl
ATOM     16  C11 UNL     1      17.722   1.815  32.181  0.00  0.00    +0.021 A 
ATOM     17  C12 UNL     1      18.354   2.372  31.065  0.00  0.00    +0.013 A 
ENDBRANCH   6  11
BRANCH   1  20
ATOM     18  O1  UNL     1      20.839   4.719  23.093  0.00  0.00    -0.270 OA
ATOM     19  C1  UNL     1      21.173   5.822  23.608  0.00  0.00    +0.249 C 
ATOM     20  N1  UNL     1      21.763   5.859  24.917  0.00  0.00    -0.281 N 
ATOM     21  H1  UNL     1      22.359   6.684  25.158  0.00  0.00    +0.155 HD
BRANCH  19  22
ATOM     22  C15 UNL     1      21.051   7.061  22.807  0.00  0.00    +0.045 A 
ATOM     23  C16 UNL     1      19.932   7.875  23.029  0.00  0.00    +0.014 A 
ATOM     24  C17 UNL     1      19.719   9.018  22.263  0.00  0.00    +0.001 A 
ATOM     25  C18 UNL     1      20.622   9.374  21.263  0.00  0.00    +0.009 A 
ATOM     26  C19 UNL     1      21.772   8.600  21.028  0.00  0.00    -0.003 A 
ATOM     27  C20 UNL     1      22.708   8.965  20.031  0.00  0.00    +0.026 A 
ATOM     28 BR1  UNL     1      22.479  10.500  18.898  0.00  0.00    -0.050 Br
ATOM     29  C21 UNL     1      23.861   8.199  19.844  0.00  0.00    +0.016 A 
ATOM     30  C22 UNL     1      24.107   7.084  20.638  0.00  0.00    +0.002 A 
ATOM     31  C23 UNL     1      23.194   6.705  21.621  0.00  0.00    +0.009 A 
ATOM     32  C24 UNL     1      22.002   7.435  21.819  0.00  0.00    -0.005 A 
ENDBRANCH  19  22
ENDBRANCH   1  20
TORSDOF 3
ENDMDL
