REMARK  Name = /home/qwerty/github/datacon2025hack/step_04_hit_selection/docking/ligands/lig_240.pdb
REMARK  2 active torsions:
REMARK  status: ('A' for Active; 'I' for Inactive)
REMARK    1  A    between atoms: N1_3  and  C2_4
REMARK    2  A    between atoms: N2_13  and  C9_14
REMARK                            x       y       z     vdW  Elec       q    Type
REMARK                         _______ _______ _______ _____ _____    ______ ____
ROOT
ATOM      1  C9  UNL     1      -0.840   1.299  -1.710  0.00  0.00    +0.035 A 
ATOM      2  C10 UNL     1      -1.535   2.413  -2.233  0.00  0.00    +0.025 A 
ATOM      3  C11 UNL     1      -2.830   2.724  -1.790  0.00  0.00    +0.025 A 
ATOM      4  C12 UNL     1      -3.419   1.899  -0.836  0.00  0.00    +0.038 A 
ATOM      5  C13 UNL     1      -2.767   0.792  -0.332  0.00  0.00    -0.009 A 
ATOM      6  C14 UNL     1      -1.475   0.469  -0.759  0.00  0.00    +0.029 A 
ATOM      7  C15 UNL     1      -3.634   0.069   0.671  0.00  0.00    +0.078 C 
ATOM      8  C16 UNL     1      -2.985   0.072   2.070  0.00  0.00    +0.049 C 
ATOM      9  C17 UNL     1      -3.798  -0.769   3.084  0.00  0.00    +0.161 C 
ATOM     10  O4  UNL     1      -4.792  -1.584   2.480  0.00  0.00    -0.380 OA
ATOM     11  C18 UNL     1      -4.244  -2.304   1.396  0.00  0.00    +0.161 C 
ATOM     12  C19 UNL     1      -3.968  -1.371   0.204  0.00  0.00    +0.049 C 
ATOM     13  C20 UNL     1      -4.853   0.970   0.627  0.00  0.00    +0.228 C 
ATOM     14  O5  UNL     1      -5.901   0.790   1.303  0.00  0.00    -0.274 OA
ATOM     15  N3  UNL     1      -4.709   2.057  -0.279  0.00  0.00    -0.284 N 
ATOM     16  H19 UNL     1      -5.406   2.805  -0.491  0.00  0.00    +0.155 HD
ENDROOT
BRANCH   1  20
ATOM     17  O1  UNL     1       1.393   0.333  -0.152  0.00  0.00    -0.252 OA
ATOM     18  C1  UNL     1       1.524   0.424  -1.403  0.00  0.00    +0.308 C 
ATOM     19  N1  UNL     1       2.718  -0.048  -2.043  0.00  0.00    -0.269 N 
ATOM     20  N2  UNL     1       0.478   1.000  -2.200  0.00  0.00    -0.269 N 
ATOM     21  H1  UNL     1       2.683  -0.202  -3.077  0.00  0.00    +0.156 HD
ATOM     22  H7  UNL     1       0.722   1.303  -3.170  0.00  0.00    +0.156 HD
BRANCH  19  23
ATOM     23  C2  UNL     1       3.912  -0.439  -1.343  0.00  0.00    +0.038 A 
ATOM     24  C3  UNL     1       4.721  -1.474  -1.878  0.00  0.00    +0.027 A 
ATOM     25  C4  UNL     1       5.907  -1.865  -1.231  0.00  0.00    +0.051 A 
ATOM     26  C5  UNL     1       6.262  -1.194  -0.066  0.00  0.00    +0.166 A 
ATOM     27  C6  UNL     1       5.506  -0.190   0.444  0.00  0.00    +0.168 A 
ATOM     28  C7  UNL     1       4.325   0.227  -0.164  0.00  0.00    +0.073 A 
ATOM     29  O2  UNL     1       6.103   0.299   1.590  0.00  0.00    -0.453 OA
ATOM     30  C8  UNL     1       7.307  -0.448   1.816  0.00  0.00    +0.466 C 
ATOM     31  O3  UNL     1       7.370  -1.390   0.736  0.00  0.00    -0.453 OA
ENDBRANCH  19  23
ENDBRANCH   1  20
TORSDOF 2
