REMARK  Name = /home/qwerty/github/datacon2025hack/step_04_hit_selection/docking/ligands/lig_697.pdb
REMARK  7 active torsions:
REMARK  status: ('A' for Active; 'I' for Inactive)
REMARK    1  A    between atoms: C1_1  and  C2_2
REMARK    2  A    between atoms: C2_2  and  C3_3
REMARK    3  A    between atoms: C2_2  and  C4_4
REMARK    4  A    between atoms: C6_6  and  C7_7
REMARK    5  A    between atoms: C10_12  and  C11_13
REMARK    6  A    between atoms: C11_13  and  N2_14
REMARK    7  A    between atoms: C12_15  and  C13_17
REMARK                            x       y       z     vdW  Elec       q    Type
REMARK                         _______ _______ _______ _____ _____    ______ ____
ROOT
ATOM      1  C7  UNL     1       1.571   1.330   0.562  0.00  0.00    +0.267 C 
ATOM      2  O1  UNL     1       1.125   2.507   0.534  0.00  0.00    -0.268 OA
ATOM      3  N1  UNL     1       0.696   0.267   0.953  0.00  0.00    -0.292 N 
ATOM      4  C8  UNL     1       0.737  -1.188   1.200  0.00  0.00    +0.110 C 
ATOM      5  C9  UNL     1      -0.687  -1.324   1.627  0.00  0.00    +0.043 C 
ATOM      6  C10 UNL     1      -0.716   0.153   1.371  0.00  0.00    +0.095 C 
ENDROOT
BRANCH   1   9
ATOM      7  C4  UNL     1       4.924   0.213  -0.256  0.00  0.00    +0.039 A 
ATOM      8  C5  UNL     1       3.648  -0.120   0.147  0.00  0.00    +0.057 A 
ATOM      9  C6  UNL     1       2.979   1.093   0.194  0.00  0.00    +0.147 A 
ATOM     10  N4  UNL     1       3.820   2.087  -0.162  0.00  0.00    -0.169 NA
ATOM     11  N5  UNL     1       4.996   1.546  -0.433  0.00  0.00    -0.281 N 
ATOM     12  H23 UNL     1       5.834   2.090  -0.734  0.00  0.00    +0.189 HD
BRANCH   7  14
ATOM     13  C1  UNL     1       7.214  -0.435   0.496  0.00  0.00    +0.014 C 
ATOM     14  C2  UNL     1       6.064  -0.747  -0.467  0.00  0.00    +0.031 C 
ATOM     15  C3  UNL     1       6.540  -0.706  -1.922  0.00  0.00    +0.014 C 
ENDBRANCH   7  14
ENDBRANCH   1   9
BRANCH   6  16
ATOM     16  C11 UNL     1      -1.667   0.569   0.235  0.00  0.00    +0.126 C 
BRANCH  16  17
ATOM     17  N2  UNL     1      -3.064   0.367   0.618  0.00  0.00    -0.312 N 
ATOM     18  C12 UNL     1      -4.137   0.666  -0.283  0.00  0.00    +0.233 C 
ATOM     19  O2  UNL     1      -3.888   1.090  -1.446  0.00  0.00    -0.274 OA
ATOM     20  H16 UNL     1      -3.295  -0.011   1.566  0.00  0.00    +0.149 HD
BRANCH  18  21
ATOM     21  C13 UNL     1      -5.560   0.414   0.133  0.00  0.00    +0.159 C 
ATOM     22  C14 UNL     1      -6.064  -0.969  -0.350  0.00  0.00    +0.041 C 
ATOM     23  C15 UNL     1      -7.397  -0.735  -1.080  0.00  0.00    +0.098 C 
ATOM     24  C16 UNL     1      -7.504   0.736  -1.129  0.00  0.00    +0.214 C 
ATOM     25  O3  UNL     1      -8.445   1.354  -1.693  0.00  0.00    -0.276 OA
ATOM     26  N3  UNL     1      -6.452   1.393  -0.460  0.00  0.00    -0.304 N 
ATOM     27  H22 UNL     1      -6.387   2.427  -0.322  0.00  0.00    +0.149 HD
ENDBRANCH  18  21
ENDBRANCH  16  17
ENDBRANCH   6  16
TORSDOF 5
