REMARK  Name = /home/qwerty/github/datacon2025hack/step_04_hit_selection/docking/ligands/lig_716.pdb
REMARK  7 active torsions:
REMARK  status: ('A' for Active; 'I' for Inactive)
REMARK    1  A    between atoms: C1_1  and  C2_2
REMARK    2  A    between atoms: C5_5  and  C6_6
REMARK    3  A    between atoms: C9_11  and  C10_13
REMARK    4  A    between atoms: C14_18  and  C15_19
REMARK    5  A    between atoms: C17_21  and  C18_22
REMARK    6  A    between atoms: C20_24  and  C21_25
REMARK    7  A    between atoms: C24_28  and  N3_29
REMARK                            x       y       z     vdW  Elec       q    Type
REMARK                         _______ _______ _______ _____ _____    ______ ____
ROOT
ATOM      1  C10 UNL     1      -0.458   0.745  -0.124  0.00  0.00    +0.127 A 
ATOM      2  C11 UNL     1       0.051   1.291   1.068  0.00  0.00    +0.035 A 
ATOM      3  C12 UNL     1       1.421   1.224   1.330  0.00  0.00    +0.032 A 
ATOM      4  C13 UNL     1       2.273   0.614   0.410  0.00  0.00    +0.092 A 
ATOM      5  N2  UNL     1       3.606   0.528   0.656  0.00  0.00    -0.245 NA
ATOM      6  C14 UNL     1       4.467  -0.074  -0.212  0.00  0.00    +0.074 A 
ATOM      7  C23 UNL     1       3.968  -0.612  -1.413  0.00  0.00    +0.053 A 
ATOM      8  C24 UNL     1       2.598  -0.537  -1.700  0.00  0.00    +0.054 A 
ATOM      9  C25 UNL     1       1.737   0.078  -0.776  0.00  0.00    +0.111 A 
ATOM     10  N4  UNL     1       0.398   0.159  -1.007  0.00  0.00    -0.239 NA
ENDROOT
BRANCH   1  16
ATOM     11  C6  UNL     1      -6.004  -0.149  -1.478  0.00  0.00    +0.080 A 
ATOM     12  C7  UNL     1      -6.002  -0.567  -2.813  0.00  0.00    +0.076 A 
ATOM     13  S1  UNL     1      -4.414  -0.536  -3.372  0.00  0.00    -0.060 S 
ATOM     14  C8  UNL     1      -3.801   0.013  -1.910  0.00  0.00    +0.165 A 
ATOM     15  N1  UNL     1      -2.409   0.244  -1.657  0.00  0.00    -0.259 N 
ATOM     16  C9  UNL     1      -1.907   0.778  -0.420  0.00  0.00    +0.268 C 
ATOM     17  O1  UNL     1      -2.703   1.285   0.418  0.00  0.00    -0.268 OA
ATOM     18  N5  UNL     1      -4.774   0.166  -0.986  0.00  0.00    -0.225 NA
ATOM     19  H7  UNL     1      -1.736   0.008  -2.420  0.00  0.00    +0.157 HD
BRANCH  11  24
ATOM     20  C1  UNL     1     -10.717   0.165   1.900  0.00  0.00    +0.044 C 
ATOM     21  C2  UNL     1      -9.506   0.060   1.020  0.00  0.00    -0.050 A 
ATOM     22  C3  UNL     1      -9.640   0.043  -0.376  0.00  0.00    +0.004 A 
ATOM     23  C4  UNL     1      -8.509  -0.031  -1.193  0.00  0.00    +0.010 A 
ATOM     24  C5  UNL     1      -7.220  -0.071  -0.629  0.00  0.00    +0.001 A 
ATOM     25  C26 UNL     1      -7.092  -0.021   0.771  0.00  0.00    +0.010 A 
ATOM     26  C27 UNL     1      -8.224   0.044   1.588  0.00  0.00    +0.004 A 
ENDBRANCH  11  24
ENDBRANCH   1  16
BRANCH   6  27
ATOM     27  C15 UNL     1       5.911  -0.133   0.126  0.00  0.00    +0.001 A 
ATOM     28  C16 UNL     1       6.714  -1.212  -0.287  0.00  0.00    +0.013 A 
ATOM     29  C17 UNL     1       8.074  -1.263   0.053  0.00  0.00    -0.050 A 
ATOM     30  C18 UNL     1       8.924  -2.401  -0.430  0.00  0.00    +0.044 C 
ATOM     31  C19 UNL     1       8.642  -0.218   0.794  0.00  0.00    +0.006 A 
ATOM     32  C20 UNL     1       7.849   0.850   1.238  0.00  0.00    -0.050 A 
ATOM     33  C21 UNL     1       8.467   1.978   2.010  0.00  0.00    +0.044 C 
ATOM     34  C22 UNL     1       6.490   0.892   0.895  0.00  0.00    +0.013 A 
ENDBRANCH   6  27
BRANCH   8  35
ATOM     35  N3  UNL     1       2.099  -1.078  -2.928  0.00  0.00    -0.356 N 
ATOM     36  H20 UNL     1       1.090  -1.004  -3.187  0.00  0.00    +0.142 HD
ATOM     37  H21 UNL     1       2.742  -1.554  -3.599  0.00  0.00    +0.142 HD
ENDBRANCH   8  35
TORSDOF 4
