REMARK  Name = /home/qwerty/github/datacon2025hack/step_04_hit_selection/docking/ligands/lig_796.pdb
REMARK  8 active torsions:
REMARK  status: ('A' for Active; 'I' for Inactive)
REMARK    1  A    between atoms: C2_2  and  C3_3
REMARK    2  A    between atoms: C3_3  and  C4_4
REMARK    3  A    between atoms: C4_4  and  C5_5
REMARK    4  A    between atoms: C8_10  and  C9_11
REMARK    5  A    between atoms: C10_12  and  C11_13
REMARK    6  A    between atoms: C11_13  and  N2_14
REMARK    7  A    between atoms: C12_15  and  C13_17
REMARK    8  A    between atoms: C13_17  and  C14_18
REMARK                            x       y       z     vdW  Elec       q    Type
REMARK                         _______ _______ _______ _____ _____    ______ ____
ROOT
ATOM      1  C5  UNL     1       3.951  -0.360   0.783  0.00  0.00    +0.216 C 
ATOM      2  O1  UNL     1       5.018  -1.030   0.844  0.00  0.00    -0.276 OA
ATOM      3  N1  UNL     1       3.178  -0.362  -0.432  0.00  0.00    -0.301 N 
ATOM      4  C6  UNL     1       3.217  -1.528  -1.321  0.00  0.00    +0.108 C 
ATOM      5  C7  UNL     1       1.825  -1.808  -1.898  0.00  0.00    +0.022 C 
ATOM      6  C8  UNL     1       1.200  -0.533  -2.500  0.00  0.00    -0.007 C 
ATOM      7  C9  UNL     1      -0.178  -0.838  -3.103  0.00  0.00    +0.008 C 
ATOM      8  C10 UNL     1       1.185   0.651  -1.483  0.00  0.00    +0.026 C 
ATOM      9  C19 UNL     1       2.619   0.885  -0.972  0.00  0.00    +0.113 C 
ENDROOT
BRANCH   1  10
ATOM     10  C4  UNL     1       3.513   0.446   1.978  0.00  0.00    +0.100 C 
BRANCH  10  11
ATOM     11  C3  UNL     1       3.724  -0.324   3.288  0.00  0.00    +0.036 C 
BRANCH  11  13
ATOM     12  C1  UNL     1       1.894   0.610   4.681  0.00  0.00    +0.004 C 
ATOM     13  C2  UNL     1       3.204   0.451   4.467  0.00  0.00    -0.034 C 
ENDBRANCH  11  13
ENDBRANCH  10  11
ENDBRANCH   1  10
BRANCH   8  14
ATOM     14  C11 UNL     1       0.215   0.469  -0.286  0.00  0.00    +0.109 C 
BRANCH  14  15
ATOM     15  N2  UNL     1      -1.178   0.653  -0.694  0.00  0.00    -0.315 N 
ATOM     16  C12 UNL     1      -2.261  -0.077  -0.094  0.00  0.00    +0.220 C 
ATOM     17  O2  UNL     1      -2.015  -0.903   0.828  0.00  0.00    -0.275 OA
ATOM     18  H19 UNL     1      -1.403   1.461  -1.318  0.00  0.00    +0.149 HD
BRANCH  16  19
ATOM     19  C13 UNL     1      -3.698   0.171  -0.551  0.00  0.00    +0.051 C 
ATOM     20  C14 UNL     1      -3.799  -0.062  -2.073  0.00  0.00    +0.021 C 
ATOM     21  C15 UNL     1      -4.121   1.613  -0.172  0.00  0.00    +0.043 C 
ATOM     22  C16 UNL     1      -4.998   1.437   1.016  0.00  0.00    -0.030 C 
ATOM     23  C17 UNL     1      -5.316   0.171   1.221  0.00  0.00    -0.030 C 
ATOM     24  C18 UNL     1      -4.724  -0.727   0.196  0.00  0.00    +0.043 C 
ENDBRANCH  16  19
ENDBRANCH  14  15
ENDBRANCH   8  14
TORSDOF 6
