MODEL 1
REMARK VINA RESULT:    -6.137      0.000      0.000
REMARK INTER + INTRA:          -9.054
REMARK INTER:                  -8.111
REMARK INTRA:                  -0.943
REMARK UNBOUND:                -0.943
REMARK  Name = /home/qwerty/github/datacon2025hack/step_04_hit_selection/docking/ligands/lig_759.pdb
REMARK  6 active torsions:
REMARK  status: ('A' for Active; 'I' for Inactive)
REMARK    1  A    between atoms: C1_2  and  O2_3
REMARK    2  A    between atoms: C1_2  and  C2_4
REMARK    3  A    between atoms: C4_6  and  S1_7
REMARK    4  A    between atoms: S1_7  and  N1_10
REMARK    5  A    between atoms: N1_10  and  C5_11
REMARK    6  A    between atoms: C13_20  and  N2_21
REMARK                            x       y       z     vdW  Elec       q    Type
REMARK                         _______ _______ _______ _____ _____    ______ ____
ROOT
ATOM      1  C2  UNL     1       9.612  12.925  29.720  0.00  0.00    +0.082 A 
ATOM      2  C3  UNL     1      10.593  13.770  30.271  0.00  0.00    +0.045 A 
ATOM      3  C4  UNL     1      11.714  13.242  30.923  0.00  0.00    +0.109 A 
ATOM      4  C11 UNL     1      11.854  11.858  31.050  0.00  0.00    +0.030 A 
ATOM      5  C12 UNL     1      10.894  11.004  30.509  0.00  0.00    +0.026 A 
ATOM      6  C13 UNL     1       9.776  11.522  29.836  0.00  0.00    +0.044 A 
ENDROOT
BRANCH   6   7
ATOM      7  N2  UNL     1       8.844  10.610  29.235  0.00  0.00    -0.325 N 
ATOM      8  C14 UNL     1       7.963   9.817  30.091  0.00  0.00    +0.133 C 
ATOM      9  C15 UNL     1       6.748   9.348  29.286  0.00  0.00    +0.178 C 
ATOM     10  O5  UNL     1       7.157   8.698  28.096  0.00  0.00    -0.377 OA
ATOM     11  C16 UNL     1       7.808   9.622  27.245  0.00  0.00    +0.178 C 
ATOM     12  C17 UNL     1       9.109  10.127  27.877  0.00  0.00    +0.133 C 
ENDBRANCH   6   7
BRANCH   3  13
ATOM     13  S1  UNL     1      12.946  14.325  31.566  0.00  0.00    +0.072 S 
ATOM     14  O3  UNL     1      14.233  13.563  31.709  0.00  0.00    -0.150 OA
ATOM     15  O4  UNL     1      13.164  15.489  30.640  0.00  0.00    -0.150 OA
BRANCH  13  16
ATOM     16  N1  UNL     1      12.458  14.924  33.120  0.00  0.00    -0.216 N 
ATOM     17  H3  UNL     1      12.561  15.951  33.285  0.00  0.00    +0.174 HD
BRANCH  16  18
ATOM     18  C5  UNL     1      12.086  14.075  34.219  0.00  0.00    +0.048 A 
ATOM     19  C6  UNL     1      13.008  13.131  34.700  0.00  0.00    +0.025 A 
ATOM     20  C7  UNL     1      12.667  12.278  35.754  0.00  0.00    +0.017 A 
ATOM     21  C8  UNL     1      11.402  12.364  36.343  0.00  0.00    +0.018 A 
ATOM     22 BR1  UNL     1      10.936  11.194  37.780  0.00  0.00    -0.050 Br
ATOM     23  C9  UNL     1      10.481  13.308  35.882  0.00  0.00    +0.017 A 
ATOM     24  C10 UNL     1      10.819  14.163  34.830  0.00  0.00    +0.025 A 
ENDBRANCH  16  18
ENDBRANCH  13  16
ENDBRANCH   3  13
BRANCH   1  26
ATOM     25  O1  UNL     1       8.450  13.783  27.814  0.00  0.00    -0.245 OA
ATOM     26  C1  UNL     1       8.436  13.536  29.049  0.00  0.00    +0.339 C 
BRANCH  26  27
ATOM     27  O2  UNL     1       7.289  13.826  29.784  0.00  0.00    -0.477 OA
ATOM     28  H1  UNL     1       6.967  13.203  30.514  0.00  0.00    +0.295 HD
ENDBRANCH  26  27
ENDBRANCH   1  26
TORSDOF 6
ENDMDL
MODEL 2
REMARK VINA RESULT:    -6.134      3.777      5.365
REMARK INTER + INTRA:          -9.049
REMARK INTER:                  -7.885
REMARK INTRA:                  -1.165
REMARK UNBOUND:                -0.943
REMARK  Name = /home/qwerty/github/datacon2025hack/step_04_hit_selection/docking/ligands/lig_759.pdb
REMARK  6 active torsions:
REMARK  status: ('A' for Active; 'I' for Inactive)
REMARK    1  A    between atoms: C1_2  and  O2_3
REMARK    2  A    between atoms: C1_2  and  C2_4
REMARK    3  A    between atoms: C4_6  and  S1_7
REMARK    4  A    between atoms: S1_7  and  N1_10
REMARK    5  A    between atoms: N1_10  and  C5_11
REMARK    6  A    between atoms: C13_20  and  N2_21
REMARK                            x       y       z     vdW  Elec       q    Type
REMARK                         _______ _______ _______ _____ _____    ______ ____
ROOT
ATOM      1  C2  UNL     1      11.305  13.229  33.550  0.00  0.00    +0.082 A 
ATOM      2  C3  UNL     1      11.287  12.803  34.892  0.00  0.00    +0.045 A 
ATOM      3  C4  UNL     1      11.417  11.448  35.218  0.00  0.00    +0.109 A 
ATOM      4  C11 UNL     1      11.543  10.499  34.200  0.00  0.00    +0.030 A 
ATOM      5  C12 UNL     1      11.564  10.901  32.866  0.00  0.00    +0.026 A 
ATOM      6  C13 UNL     1      11.455  12.259  32.528  0.00  0.00    +0.044 A 
ENDROOT
BRANCH   6   7
ATOM      7  N2  UNL     1      11.548  12.641  31.147  0.00  0.00    -0.325 N 
ATOM      8  C14 UNL     1      10.348  12.602  30.310  0.00  0.00    +0.133 C 
ATOM      9  C15 UNL     1      10.540  13.513  29.095  0.00  0.00    +0.178 C 
ATOM     10  O5  UNL     1      11.743  13.198  28.417  0.00  0.00    -0.377 OA
ATOM     11  C16 UNL     1      12.851  13.485  29.250  0.00  0.00    +0.178 C 
ATOM     12  C17 UNL     1      12.854  12.582  30.487  0.00  0.00    +0.133 C 
ENDBRANCH   6   7
BRANCH   3  13
ATOM     13  S1  UNL     1      11.434  10.950  36.908  0.00  0.00    +0.072 S 
ATOM     14  O3  UNL     1      10.527  11.859  37.689  0.00  0.00    -0.150 OA
ATOM     15  O4  UNL     1      10.950   9.534  37.048  0.00  0.00    -0.150 OA
BRANCH  13  16
ATOM     16  N1  UNL     1      13.045  11.062  37.544  0.00  0.00    -0.216 N 
ATOM     17  H3  UNL     1      13.183  10.766  38.537  0.00  0.00    +0.174 HD
BRANCH  16  18
ATOM     18  C5  UNL     1      14.136  11.682  36.843  0.00  0.00    +0.048 A 
ATOM     19  C6  UNL     1      14.321  13.070  36.952  0.00  0.00    +0.025 A 
ATOM     20  C7  UNL     1      15.361  13.703  36.266  0.00  0.00    +0.017 A 
ATOM     21  C8  UNL     1      16.232  12.955  35.468  0.00  0.00    +0.018 A 
ATOM     22 BR1  UNL     1      17.650  13.823  34.526  0.00  0.00    -0.050 Br
ATOM     23  C9  UNL     1      16.065  11.572  35.361  0.00  0.00    +0.017 A 
ATOM     24  C10 UNL     1      15.027  10.935  36.047  0.00  0.00    +0.025 A 
ENDBRANCH  16  18
ENDBRANCH  13  16
ENDBRANCH   3  13
BRANCH   1  26
ATOM     25  O1  UNL     1      12.038  15.308  32.623  0.00  0.00    -0.245 OA
ATOM     26  C1  UNL     1      11.151  14.677  33.258  0.00  0.00    +0.339 C 
BRANCH  26  27
ATOM     27  O2  UNL     1      10.005  15.353  33.669  0.00  0.00    -0.477 OA
ATOM     28  H1  UNL     1       9.163  14.847  33.916  0.00  0.00    +0.295 HD
ENDBRANCH  26  27
ENDBRANCH   1  26
TORSDOF 6
ENDMDL
MODEL 3
REMARK VINA RESULT:    -6.129     13.676     15.178
REMARK INTER + INTRA:          -9.042
REMARK INTER:                  -7.994
REMARK INTRA:                  -1.048
REMARK UNBOUND:                -0.943
REMARK  Name = /home/qwerty/github/datacon2025hack/step_04_hit_selection/docking/ligands/lig_759.pdb
REMARK  6 active torsions:
REMARK  status: ('A' for Active; 'I' for Inactive)
REMARK    1  A    between atoms: C1_2  and  O2_3
REMARK    2  A    between atoms: C1_2  and  C2_4
REMARK    3  A    between atoms: C4_6  and  S1_7
REMARK    4  A    between atoms: S1_7  and  N1_10
REMARK    5  A    between atoms: N1_10  and  C5_11
REMARK    6  A    between atoms: C13_20  and  N2_21
REMARK                            x       y       z     vdW  Elec       q    Type
REMARK                         _______ _______ _______ _____ _____    ______ ____
ROOT
ATOM      1  C2  UNL     1      22.045   2.159  29.831  0.00  0.00    +0.082 A 
ATOM      2  C3  UNL     1      21.927   2.315  31.225  0.00  0.00    +0.045 A 
ATOM      3  C4  UNL     1      21.258   3.417  31.771  0.00  0.00    +0.109 A 
ATOM      4  C11 UNL     1      20.718   4.390  30.926  0.00  0.00    +0.030 A 
ATOM      5  C12 UNL     1      20.823   4.252  29.543  0.00  0.00    +0.026 A 
ATOM      6  C13 UNL     1      21.474   3.141  28.983  0.00  0.00    +0.044 A 
ENDROOT
BRANCH   6   7
ATOM      7  N2  UNL     1      21.504   3.000  27.555  0.00  0.00    -0.325 N 
ATOM      8  C14 UNL     1      22.391   3.857  26.768  0.00  0.00    +0.133 C 
ATOM      9  C15 UNL     1      22.657   3.209  25.407  0.00  0.00    +0.178 C 
ATOM     10  O5  UNL     1      21.440   2.873  24.765  0.00  0.00    -0.377 OA
ATOM     11  C16 UNL     1      20.769   1.871  25.507  0.00  0.00    +0.178 C 
ATOM     12  C17 UNL     1      20.350   2.397  26.883  0.00  0.00    +0.133 C 
ENDBRANCH   6   7
BRANCH   3  13
ATOM     13  S1  UNL     1      21.090   3.563  33.519  0.00  0.00    +0.072 S 
ATOM     14  O3  UNL     1      19.865   4.380  33.820  0.00  0.00    -0.150 OA
ATOM     15  O4  UNL     1      20.945   2.208  34.153  0.00  0.00    -0.150 OA
BRANCH  13  16
ATOM     16  N1  UNL     1      22.485   4.352  34.186  0.00  0.00    -0.216 N 
ATOM     17  H3  UNL     1      22.865   3.965  35.079  0.00  0.00    +0.174 HD
BRANCH  16  18
ATOM     18  C5  UNL     1      23.026   5.581  33.672  0.00  0.00    +0.048 A 
ATOM     19  C6  UNL     1      24.320   5.585  33.124  0.00  0.00    +0.025 A 
ATOM     20  C7  UNL     1      24.880   6.768  32.635  0.00  0.00    +0.017 A 
ATOM     21  C8  UNL     1      24.151   7.960  32.680  0.00  0.00    +0.018 A 
ATOM     22 BR1  UNL     1      24.920   9.577  32.016  0.00  0.00    -0.050 Br
ATOM     23  C9  UNL     1      22.858   7.966  33.211  0.00  0.00    +0.017 A 
ATOM     24  C10 UNL     1      22.294   6.785  33.700  0.00  0.00    +0.025 A 
ENDBRANCH  16  18
ENDBRANCH  13  16
ENDBRANCH   3  13
BRANCH   1  26
ATOM     25  O1  UNL     1      22.152  -0.023  28.858  0.00  0.00    -0.245 OA
ATOM     26  C1  UNL     1      22.774   0.978  29.303  0.00  0.00    +0.339 C 
BRANCH  26  27
ATOM     27  O2  UNL     1      24.167   0.975  29.276  0.00  0.00    -0.477 OA
ATOM     28  H1  UNL     1      24.701   0.588  30.044  0.00  0.00    +0.295 HD
ENDBRANCH  26  27
ENDBRANCH   1  26
TORSDOF 6
ENDMDL
MODEL 4
REMARK VINA RESULT:    -6.050      2.954      6.960
REMARK INTER + INTRA:          -8.938
REMARK INTER:                  -7.938
REMARK INTRA:                  -1.000
REMARK UNBOUND:                -0.943
REMARK  Name = /home/qwerty/github/datacon2025hack/step_04_hit_selection/docking/ligands/lig_759.pdb
REMARK  6 active torsions:
REMARK  status: ('A' for Active; 'I' for Inactive)
REMARK    1  A    between atoms: C1_2  and  O2_3
REMARK    2  A    between atoms: C1_2  and  C2_4
REMARK    3  A    between atoms: C4_6  and  S1_7
REMARK    4  A    between atoms: S1_7  and  N1_10
REMARK    5  A    between atoms: N1_10  and  C5_11
REMARK    6  A    between atoms: C13_20  and  N2_21
REMARK                            x       y       z     vdW  Elec       q    Type
REMARK                         _______ _______ _______ _____ _____    ______ ____
ROOT
ATOM      1  C2  UNL     1      11.269  13.491  31.790  0.00  0.00    +0.082 A 
ATOM      2  C3  UNL     1      10.775  13.605  30.477  0.00  0.00    +0.045 A 
ATOM      3  C4  UNL     1      10.632  12.476  29.661  0.00  0.00    +0.109 A 
ATOM      4  C11 UNL     1      11.005  11.220  30.146  0.00  0.00    +0.030 A 
ATOM      5  C12 UNL     1      11.495  11.086  31.444  0.00  0.00    +0.026 A 
ATOM      6  C13 UNL     1      11.623  12.208  32.278  0.00  0.00    +0.044 A 
ENDROOT
BRANCH   6   7
ATOM      7  N2  UNL     1      12.068  12.022  33.629  0.00  0.00    -0.325 N 
ATOM      8  C14 UNL     1      13.502  11.981  33.913  0.00  0.00    +0.133 C 
ATOM      9  C15 UNL     1      13.744  12.305  35.390  0.00  0.00    +0.178 C 
ATOM     10  O5  UNL     1      12.953  11.475  36.221  0.00  0.00    -0.377 OA
ATOM     11  C16 UNL     1      11.582  11.760  36.018  0.00  0.00    +0.178 C 
ATOM     12  C17 UNL     1      11.154  11.402  34.591  0.00  0.00    +0.133 C 
ENDBRANCH   6   7
BRANCH   3  13
ATOM     13  S1  UNL     1       9.972  12.645  28.036  0.00  0.00    +0.072 S 
ATOM     14  O3  UNL     1       9.983  14.099  27.659  0.00  0.00    -0.150 OA
ATOM     15  O4  UNL     1      10.797  11.873  27.046  0.00  0.00    -0.150 OA
BRANCH  13  16
ATOM     16  N1  UNL     1       8.340  12.053  27.994  0.00  0.00    -0.216 N 
ATOM     17  H3  UNL     1       7.587  12.757  27.820  0.00  0.00    +0.174 HD
BRANCH  16  18
ATOM     18  C5  UNL     1       7.972  10.708  28.344  0.00  0.00    +0.048 A 
ATOM     19  C6  UNL     1       7.536  10.435  29.651  0.00  0.00    +0.025 A 
ATOM     20  C7  UNL     1       7.191   9.133  30.026  0.00  0.00    +0.017 A 
ATOM     21  C8  UNL     1       7.271   8.092  29.097  0.00  0.00    +0.018 A 
ATOM     22 BR1  UNL     1       6.803   6.312  29.612  0.00  0.00    -0.050 Br
ATOM     23  C9  UNL     1       7.691   8.354  27.790  0.00  0.00    +0.017 A 
ATOM     24  C10 UNL     1       8.036   9.655  27.411  0.00  0.00    +0.025 A 
ENDBRANCH  16  18
ENDBRANCH  13  16
ENDBRANCH   3  13
BRANCH   1  26
ATOM     25  O1  UNL     1      12.401  15.488  32.460  0.00  0.00    -0.245 OA
ATOM     26  C1  UNL     1      11.412  14.722  32.609  0.00  0.00    +0.339 C 
BRANCH  26  27
ATOM     27  O2  UNL     1      10.435  15.053  33.545  0.00  0.00    -0.477 OA
ATOM     28  H1  UNL     1       9.526  14.608  33.527  0.00  0.00    +0.295 HD
ENDBRANCH  26  27
ENDBRANCH   1  26
TORSDOF 6
ENDMDL
MODEL 5
REMARK VINA RESULT:    -5.996     13.918     15.216
REMARK INTER + INTRA:          -8.867
REMARK INTER:                  -7.895
REMARK INTRA:                  -0.972
REMARK UNBOUND:                -0.943
REMARK  Name = /home/qwerty/github/datacon2025hack/step_04_hit_selection/docking/ligands/lig_759.pdb
REMARK  6 active torsions:
REMARK  status: ('A' for Active; 'I' for Inactive)
REMARK    1  A    between atoms: C1_2  and  O2_3
REMARK    2  A    between atoms: C1_2  and  C2_4
REMARK    3  A    between atoms: C4_6  and  S1_7
REMARK    4  A    between atoms: S1_7  and  N1_10
REMARK    5  A    between atoms: N1_10  and  C5_11
REMARK    6  A    between atoms: C13_20  and  N2_21
REMARK                            x       y       z     vdW  Elec       q    Type
REMARK                         _______ _______ _______ _____ _____    ______ ____
ROOT
ATOM      1  C2  UNL     1      21.791   3.527  26.364  0.00  0.00    +0.082 A 
ATOM      2  C3  UNL     1      22.460   2.905  27.435  0.00  0.00    +0.045 A 
ATOM      3  C4  UNL     1      22.105   1.617  27.855  0.00  0.00    +0.109 A 
ATOM      4  C11 UNL     1      21.058   0.945  27.219  0.00  0.00    +0.030 A 
ATOM      5  C12 UNL     1      20.384   1.544  26.156  0.00  0.00    +0.026 A 
ATOM      6  C13 UNL     1      20.745   2.827  25.713  0.00  0.00    +0.044 A 
ENDROOT
BRANCH   6   7
ATOM      7  N2  UNL     1      20.073   3.382  24.573  0.00  0.00    -0.325 N 
ATOM      8  C14 UNL     1      18.644   3.685  24.660  0.00  0.00    +0.133 C 
ATOM      9  C15 UNL     1      18.270   4.713  23.590  0.00  0.00    +0.178 C 
ATOM     10  O5  UNL     1      18.707   4.288  22.312  0.00  0.00    -0.377 OA
ATOM     11  C16 UNL     1      20.121   4.244  22.279  0.00  0.00    +0.178 C 
ATOM     12  C17 UNL     1      20.659   3.184  23.246  0.00  0.00    +0.133 C 
ENDBRANCH   6   7
BRANCH   3  13
ATOM     13  S1  UNL     1      22.989   0.848  29.170  0.00  0.00    +0.072 S 
ATOM     14  O3  UNL     1      22.597  -0.601  29.234  0.00  0.00    -0.150 OA
ATOM     15  O4  UNL     1      24.472   0.947  28.942  0.00  0.00    -0.150 OA
BRANCH  13  16
ATOM     16  N1  UNL     1      22.598   1.615  30.677  0.00  0.00    -0.216 N 
ATOM     17  H3  UNL     1      23.399   1.903  31.284  0.00  0.00    +0.174 HD
BRANCH  16  18
ATOM     18  C5  UNL     1      21.260   1.719  31.193  0.00  0.00    +0.048 A 
ATOM     19  C6  UNL     1      20.548   2.917  31.015  0.00  0.00    +0.025 A 
ATOM     20  C7  UNL     1      19.253   3.055  31.522  0.00  0.00    +0.017 A 
ATOM     21  C8  UNL     1      18.652   1.995  32.208  0.00  0.00    +0.018 A 
ATOM     22 BR1  UNL     1      16.884   2.187  32.906  0.00  0.00    -0.050 Br
ATOM     23  C9  UNL     1      19.346   0.795  32.381  0.00  0.00    +0.017 A 
ATOM     24  C10 UNL     1      20.640   0.652  31.873  0.00  0.00    +0.025 A 
ENDBRANCH  16  18
ENDBRANCH  13  16
ENDBRANCH   3  13
BRANCH   1  26
ATOM     25  O1  UNL     1      23.321   5.114  25.437  0.00  0.00    -0.245 OA
ATOM     26  C1  UNL     1      22.198   4.899  25.967  0.00  0.00    +0.339 C 
BRANCH  26  27
ATOM     27  O2  UNL     1      21.326   5.967  26.160  0.00  0.00    -0.477 OA
ATOM     28  H1  UNL     1      20.849   6.397  25.377  0.00  0.00    +0.295 HD
ENDBRANCH  26  27
ENDBRANCH   1  26
TORSDOF 6
ENDMDL
MODEL 6
REMARK VINA RESULT:    -5.932      6.584     10.613
REMARK INTER + INTRA:          -8.783
REMARK INTER:                  -7.581
REMARK INTRA:                  -1.202
REMARK UNBOUND:                -0.943
REMARK  Name = /home/qwerty/github/datacon2025hack/step_04_hit_selection/docking/ligands/lig_759.pdb
REMARK  6 active torsions:
REMARK  status: ('A' for Active; 'I' for Inactive)
REMARK    1  A    between atoms: C1_2  and  O2_3
REMARK    2  A    between atoms: C1_2  and  C2_4
REMARK    3  A    between atoms: C4_6  and  S1_7
REMARK    4  A    between atoms: S1_7  and  N1_10
REMARK    5  A    between atoms: N1_10  and  C5_11
REMARK    6  A    between atoms: C13_20  and  N2_21
REMARK                            x       y       z     vdW  Elec       q    Type
REMARK                         _______ _______ _______ _____ _____    ______ ____
ROOT
ATOM      1  C2  UNL     1      10.231  10.032  24.741  0.00  0.00    +0.082 A 
ATOM      2  C3  UNL     1      10.641  10.004  23.395  0.00  0.00    +0.045 A 
ATOM      3  C4  UNL     1       9.702   9.998  22.356  0.00  0.00    +0.109 A 
ATOM      4  C11 UNL     1       8.337   9.997  22.656  0.00  0.00    +0.030 A 
ATOM      5  C12 UNL     1       7.911  10.026  23.983  0.00  0.00    +0.026 A 
ATOM      6  C13 UNL     1       8.844  10.053  25.032  0.00  0.00    +0.044 A 
ENDROOT
BRANCH   6   7
ATOM      7  N2  UNL     1       8.367  10.150  26.382  0.00  0.00    -0.325 N 
ATOM      8  C14 UNL     1       7.542   9.073  26.931  0.00  0.00    +0.133 C 
ATOM      9  C15 UNL     1       7.596   9.112  28.460  0.00  0.00    +0.178 C 
ATOM     10  O5  UNL     1       7.276  10.405  28.941  0.00  0.00    -0.377 OA
ATOM     11  C16 UNL     1       8.268  11.327  28.530  0.00  0.00    +0.178 C 
ATOM     12  C17 UNL     1       8.283  11.473  27.005  0.00  0.00    +0.133 C 
ENDBRANCH   6   7
BRANCH   3  13
ATOM     13  S1  UNL     1      10.246  10.006  20.681  0.00  0.00    +0.072 S 
ATOM     14  O3  UNL     1       9.402  10.975  19.903  0.00  0.00    -0.150 OA
ATOM     15  O4  UNL     1      11.687  10.427  20.593  0.00  0.00    -0.150 OA
BRANCH  13  16
ATOM     16  N1  UNL     1      10.079   8.420  19.994  0.00  0.00    -0.216 N 
ATOM     17  H3  UNL     1      10.149   8.346  18.954  0.00  0.00    +0.174 HD
BRANCH  16  18
ATOM     18  C5  UNL     1       9.693   7.261  20.753  0.00  0.00    +0.048 A 
ATOM     19  C6  UNL     1       8.362   6.818  20.698  0.00  0.00    +0.025 A 
ATOM     20  C7  UNL     1       7.953   5.706  21.440  0.00  0.00    +0.017 A 
ATOM     21  C8  UNL     1       8.872   5.021  22.240  0.00  0.00    +0.018 A 
ATOM     22 BR1  UNL     1       8.310   3.505  23.258  0.00  0.00    -0.050 Br
ATOM     23  C9  UNL     1      10.202   5.446  22.293  0.00  0.00    +0.017 A 
ATOM     24  C10 UNL     1      10.615   6.556  21.551  0.00  0.00    +0.025 A 
ENDBRANCH  16  18
ENDBRANCH  13  16
ENDBRANCH   3  13
BRANCH   1  26
ATOM     25  O1  UNL     1      11.587   8.957  26.391  0.00  0.00    -0.245 OA
ATOM     26  C1  UNL     1      11.267  10.025  25.804  0.00  0.00    +0.339 C 
BRANCH  26  27
ATOM     27  O2  UNL     1      11.915  11.208  26.153  0.00  0.00    -0.477 OA
ATOM     28  H1  UNL     1      11.398  12.070  26.269  0.00  0.00    +0.295 HD
ENDBRANCH  26  27
ENDBRANCH   1  26
TORSDOF 6
ENDMDL
MODEL 7
REMARK VINA RESULT:    -5.818     14.346     16.994
REMARK INTER + INTRA:          -8.631
REMARK INTER:                  -7.617
REMARK INTRA:                  -1.014
REMARK UNBOUND:                -0.943
REMARK  Name = /home/qwerty/github/datacon2025hack/step_04_hit_selection/docking/ligands/lig_759.pdb
REMARK  6 active torsions:
REMARK  status: ('A' for Active; 'I' for Inactive)
REMARK    1  A    between atoms: C1_2  and  O2_3
REMARK    2  A    between atoms: C1_2  and  C2_4
REMARK    3  A    between atoms: C4_6  and  S1_7
REMARK    4  A    between atoms: S1_7  and  N1_10
REMARK    5  A    between atoms: N1_10  and  C5_11
REMARK    6  A    between atoms: C13_20  and  N2_21
REMARK                            x       y       z     vdW  Elec       q    Type
REMARK                         _______ _______ _______ _____ _____    ______ ____
ROOT
ATOM      1  C2  UNL     1      17.934   0.809  26.828  0.00  0.00    +0.082 A 
ATOM      2  C3  UNL     1      16.801   0.092  26.399  0.00  0.00    +0.045 A 
ATOM      3  C4  UNL     1      16.854  -0.722  25.261  0.00  0.00    +0.109 A 
ATOM      4  C11 UNL     1      18.039  -0.810  24.526  0.00  0.00    +0.030 A 
ATOM      5  C12 UNL     1      19.171  -0.109  24.936  0.00  0.00    +0.026 A 
ATOM      6  C13 UNL     1      19.136   0.695  26.086  0.00  0.00    +0.044 A 
ENDROOT
BRANCH   6   7
ATOM      7  N2  UNL     1      20.340   1.349  26.514  0.00  0.00    -0.325 N 
ATOM      8  C14 UNL     1      20.913   2.411  25.686  0.00  0.00    +0.133 C 
ATOM      9  C15 UNL     1      21.828   3.292  26.541  0.00  0.00    +0.178 C 
ATOM     10  O5  UNL     1      22.780   2.504  27.232  0.00  0.00    -0.377 OA
ATOM     11  C16 UNL     1      22.122   1.668  28.167  0.00  0.00    +0.178 C 
ATOM     12  C17 UNL     1      21.221   0.654  27.456  0.00  0.00    +0.133 C 
ENDBRANCH   6   7
BRANCH   3  13
ATOM     13  S1  UNL     1      15.432  -1.641  24.773  0.00  0.00    +0.072 S 
ATOM     14  O3  UNL     1      15.643  -3.085  25.130  0.00  0.00    -0.150 OA
ATOM     15  O4  UNL     1      14.205  -1.134  25.478  0.00  0.00    -0.150 OA
BRANCH  13  16
ATOM     16  N1  UNL     1      15.196  -1.503  23.059  0.00  0.00    -0.216 N 
ATOM     17  H3  UNL     1      15.010  -2.388  22.534  0.00  0.00    +0.174 HD
BRANCH  16  18
ATOM     18  C5  UNL     1      15.402  -0.286  22.322  0.00  0.00    +0.048 A 
ATOM     19  C6  UNL     1      16.185  -0.314  21.156  0.00  0.00    +0.025 A 
ATOM     20  C7  UNL     1      16.420   0.857  20.430  0.00  0.00    +0.017 A 
ATOM     21  C8  UNL     1      15.869   2.069  20.858  0.00  0.00    +0.018 A 
ATOM     22 BR1  UNL     1      16.195   3.670  19.868  0.00  0.00    -0.050 Br
ATOM     23  C9  UNL     1      15.079   2.107  22.010  0.00  0.00    +0.017 A 
ATOM     24  C10 UNL     1      14.840   0.938  22.737  0.00  0.00    +0.025 A 
ENDBRANCH  16  18
ENDBRANCH  13  16
ENDBRANCH   3  13
BRANCH   1  26
ATOM     25  O1  UNL     1      17.638   2.911  27.931  0.00  0.00    -0.245 OA
ATOM     26  C1  UNL     1      17.821   1.668  28.034  0.00  0.00    +0.339 C 
BRANCH  26  27
ATOM     27  O2  UNL     1      17.898   1.100  29.303  0.00  0.00    -0.477 OA
ATOM     28  H1  UNL     1      17.912   1.679  30.133  0.00  0.00    +0.295 HD
ENDBRANCH  26  27
ENDBRANCH   1  26
TORSDOF 6
ENDMDL
MODEL 8
REMARK VINA RESULT:    -5.769      3.627      5.192
REMARK INTER + INTRA:          -8.566
REMARK INTER:                  -7.617
REMARK INTRA:                  -0.949
REMARK UNBOUND:                -0.943
REMARK  Name = /home/qwerty/github/datacon2025hack/step_04_hit_selection/docking/ligands/lig_759.pdb
REMARK  6 active torsions:
REMARK  status: ('A' for Active; 'I' for Inactive)
REMARK    1  A    between atoms: C1_2  and  O2_3
REMARK    2  A    between atoms: C1_2  and  C2_4
REMARK    3  A    between atoms: C4_6  and  S1_7
REMARK    4  A    between atoms: S1_7  and  N1_10
REMARK    5  A    between atoms: N1_10  and  C5_11
REMARK    6  A    between atoms: C13_20  and  N2_21
REMARK                            x       y       z     vdW  Elec       q    Type
REMARK                         _______ _______ _______ _____ _____    ______ ____
ROOT
ATOM      1  C2  UNL     1      11.496  11.801  32.240  0.00  0.00    +0.082 A 
ATOM      2  C3  UNL     1      11.708  11.541  33.607  0.00  0.00    +0.045 A 
ATOM      3  C4  UNL     1      11.710  12.581  34.545  0.00  0.00    +0.109 A 
ATOM      4  C11 UNL     1      11.523  13.898  34.120  0.00  0.00    +0.030 A 
ATOM      5  C12 UNL     1      11.310  14.176  32.771  0.00  0.00    +0.026 A 
ATOM      6  C13 UNL     1      11.285  13.140  31.824  0.00  0.00    +0.044 A 
ENDROOT
BRANCH   6   7
ATOM      7  N2  UNL     1      10.997  13.457  30.454  0.00  0.00    -0.325 N 
ATOM      8  C14 UNL     1      11.982  14.202  29.669  0.00  0.00    +0.133 C 
ATOM      9  C15 UNL     1      11.729  13.971  28.176  0.00  0.00    +0.178 C 
ATOM     10  O5  UNL     1      10.380  14.247  27.847  0.00  0.00    -0.377 OA
ATOM     11  C16 UNL     1       9.530  13.320  28.496  0.00  0.00    +0.178 C 
ATOM     12  C17 UNL     1       9.600  13.484  30.017  0.00  0.00    +0.133 C 
ENDBRANCH   6   7
BRANCH   3  13
ATOM     13  S1  UNL     1      11.935  12.219  36.255  0.00  0.00    +0.072 S 
ATOM     14  O3  UNL     1      10.651  12.500  36.982  0.00  0.00    -0.150 OA
ATOM     15  O4  UNL     1      12.304  10.775  36.447  0.00  0.00    -0.150 OA
BRANCH  13  16
ATOM     16  N1  UNL     1      13.196  13.215  36.912  0.00  0.00    -0.216 N 
ATOM     17  H3  UNL     1      12.899  14.038  37.484  0.00  0.00    +0.174 HD
BRANCH  16  18
ATOM     18  C5  UNL     1      14.586  13.064  36.577  0.00  0.00    +0.048 A 
ATOM     19  C6  UNL     1      15.133  13.847  35.547  0.00  0.00    +0.025 A 
ATOM     20  C7  UNL     1      16.476  13.707  35.186  0.00  0.00    +0.017 A 
ATOM     21  C8  UNL     1      17.289  12.788  35.855  0.00  0.00    +0.018 A 
ATOM     22 BR1  UNL     1      19.124  12.595  35.357  0.00  0.00    -0.050 Br
ATOM     23  C9  UNL     1      16.760  12.013  36.890  0.00  0.00    +0.017 A 
ATOM     24  C10 UNL     1      15.418  12.150  37.255  0.00  0.00    +0.025 A 
ENDBRANCH  16  18
ENDBRANCH  13  16
ENDBRANCH   3  13
BRANCH   1  26
ATOM     25  O1  UNL     1      12.516  10.452  30.550  0.00  0.00    -0.245 OA
ATOM     26  C1  UNL     1      11.515  10.664  31.285  0.00  0.00    +0.339 C 
BRANCH  26  27
ATOM     27  O2  UNL     1      10.424   9.803  31.206  0.00  0.00    -0.477 OA
ATOM     28  H1  UNL     1       9.888   9.564  32.032  0.00  0.00    +0.295 HD
ENDBRANCH  26  27
ENDBRANCH   1  26
TORSDOF 6
ENDMDL
MODEL 9
REMARK VINA RESULT:    -5.760      9.120     12.081
REMARK INTER + INTRA:          -8.555
REMARK INTER:                  -7.672
REMARK INTRA:                  -0.883
REMARK UNBOUND:                -0.943
REMARK  Name = /home/qwerty/github/datacon2025hack/step_04_hit_selection/docking/ligands/lig_759.pdb
REMARK  6 active torsions:
REMARK  status: ('A' for Active; 'I' for Inactive)
REMARK    1  A    between atoms: C1_2  and  O2_3
REMARK    2  A    between atoms: C1_2  and  C2_4
REMARK    3  A    between atoms: C4_6  and  S1_7
REMARK    4  A    between atoms: S1_7  and  N1_10
REMARK    5  A    between atoms: N1_10  and  C5_11
REMARK    6  A    between atoms: C13_20  and  N2_21
REMARK                            x       y       z     vdW  Elec       q    Type
REMARK                         _______ _______ _______ _____ _____    ______ ____
ROOT
ATOM      1  C2  UNL     1      21.710   8.445  35.598  0.00  0.00    +0.082 A 
ATOM      2  C3  UNL     1      21.181   9.666  36.059  0.00  0.00    +0.045 A 
ATOM      3  C4  UNL     1      20.700  10.626  35.161  0.00  0.00    +0.109 A 
ATOM      4  C11 UNL     1      20.765  10.384  33.787  0.00  0.00    +0.030 A 
ATOM      5  C12 UNL     1      21.284   9.181  33.311  0.00  0.00    +0.026 A 
ATOM      6  C13 UNL     1      21.750   8.202  34.202  0.00  0.00    +0.044 A 
ENDROOT
BRANCH   6   7
ATOM      7  N2  UNL     1      22.215   6.949  33.678  0.00  0.00    -0.325 N 
ATOM      8  C14 UNL     1      23.501   6.896  32.983  0.00  0.00    +0.133 C 
ATOM      9  C15 UNL     1      24.029   5.459  32.987  0.00  0.00    +0.178 C 
ATOM     10  O5  UNL     1      23.051   4.565  32.488  0.00  0.00    -0.377 OA
ATOM     11  C16 UNL     1      21.939   4.534  33.363  0.00  0.00    +0.178 C 
ATOM     12  C17 UNL     1      21.236   5.895  33.404  0.00  0.00    +0.133 C 
ENDBRANCH   6   7
BRANCH   3  13
ATOM     13  S1  UNL     1      20.005  12.127  35.770  0.00  0.00    +0.072 S 
ATOM     14  O3  UNL     1      21.121  13.034  36.207  0.00  0.00    -0.150 OA
ATOM     15  O4  UNL     1      19.205  12.813  34.698  0.00  0.00    -0.150 OA
BRANCH  13  16
ATOM     16  N1  UNL     1      18.971  11.796  37.123  0.00  0.00    -0.216 N 
ATOM     17  H3  UNL     1      19.437  11.605  38.039  0.00  0.00    +0.174 HD
BRANCH  16  18
ATOM     18  C5  UNL     1      17.549  11.612  37.012  0.00  0.00    +0.048 A 
ATOM     19  C6  UNL     1      16.699  12.715  37.195  0.00  0.00    +0.025 A 
ATOM     20  C7  UNL     1      15.312  12.563  37.113  0.00  0.00    +0.017 A 
ATOM     21  C8  UNL     1      14.760  11.308  36.841  0.00  0.00    +0.018 A 
ATOM     22 BR1  UNL     1      12.863  11.101  36.734  0.00  0.00    -0.050 Br
ATOM     23  C9  UNL     1      15.596  10.206  36.645  0.00  0.00    +0.017 A 
ATOM     24  C10 UNL     1      16.983  10.354  36.725  0.00  0.00    +0.025 A 
ENDBRANCH  16  18
ENDBRANCH  13  16
ENDBRANCH   3  13
BRANCH   1  26
ATOM     25  O1  UNL     1      21.427   6.720  37.230  0.00  0.00    -0.245 OA
ATOM     26  C1  UNL     1      22.218   7.466  36.592  0.00  0.00    +0.339 C 
BRANCH  26  27
ATOM     27  O2  UNL     1      23.587   7.347  36.816  0.00  0.00    -0.477 OA
ATOM     28  H1  UNL     1      24.041   7.871  37.554  0.00  0.00    +0.295 HD
ENDBRANCH  26  27
ENDBRANCH   1  26
TORSDOF 6
ENDMDL
