MODEL 1
REMARK VINA RESULT:    -8.454      0.000      0.000
REMARK INTER + INTRA:         -10.532
REMARK INTER:                  -9.936
REMARK INTRA:                  -0.595
REMARK UNBOUND:                -0.595
REMARK  Name = /home/qwerty/github/datacon2025hack/step_04_hit_selection/docking/ligands/lig_711.pdb
REMARK  3 active torsions:
REMARK  status: ('A' for Active; 'I' for Inactive)
REMARK    1  A    between atoms: N1_3  and  C2_4
REMARK    2  A    between atoms: C5_7  and  C6_8
REMARK    3  A    between atoms: C19_25  and  C20_26
REMARK                            x       y       z     vdW  Elec       q    Type
REMARK                         _______ _______ _______ _____ _____    ______ ____
ROOT
ATOM      1  O1  UNL     1      11.280   4.056  22.876  0.00  0.00    -0.252 OA
ATOM      2  C1  UNL     1      11.300   4.091  21.616  0.00  0.00    +0.310 C 
ATOM      3  N1  UNL     1      11.902   3.021  20.872  0.00  0.00    -0.269 N 
ATOM      4  N2  UNL     1      10.685   5.181  20.911  0.00  0.00    -0.248 N 
ATOM      5  C14 UNL     1      10.045   6.292  21.554  0.00  0.00    +0.166 A 
ATOM      6  N3  UNL     1       9.938   6.431  22.898  0.00  0.00    -0.229 NA
ATOM      7  C15 UNL     1       9.291   7.581  23.221  0.00  0.00    +0.062 A 
ATOM      8  C16 UNL     1       8.865   8.334  22.141  0.00  0.00    +0.079 A 
ATOM      9  S1  UNL     1       9.332   7.574  20.717  0.00  0.00    -0.049 S 
ATOM     10  C17 UNL     1       8.146   9.601  22.298  0.00  0.00    +0.172 C 
ATOM     11  O2  UNL     1       7.793  10.269  21.291  0.00  0.00    -0.291 OA
ATOM     12  C18 UNL     1       7.778  10.053  23.687  0.00  0.00    +0.088 C 
ATOM     13  C19 UNL     1       8.789   9.518  24.737  0.00  0.00    +0.032 C 
ATOM     14  C26 UNL     1       8.976   7.981  24.634  0.00  0.00    +0.065 C 
ATOM     15  H1  UNL     1      11.653   2.934  19.860  0.00  0.00    +0.156 HD
ATOM     16  H11 UNL     1      10.710   5.172  19.867  0.00  0.00    +0.158 HD
ENDROOT
BRANCH  13  17
ATOM     17  C20 UNL     1       8.390   9.928  26.142  0.00  0.00    -0.043 A 
ATOM     18  C21 UNL     1       7.683   9.046  26.984  0.00  0.00    +0.007 A 
ATOM     19  C22 UNL     1       7.324   9.437  28.277  0.00  0.00    +0.038 A 
ATOM     20  C23 UNL     1       7.664  10.709  28.745  0.00  0.00    +0.123 A 
ATOM     21  F1  UNL     1       7.314  11.086  29.999  0.00  0.00    -0.205 F 
ATOM     22  C24 UNL     1       8.365  11.592  27.919  0.00  0.00    +0.038 A 
ATOM     23  C25 UNL     1       8.727  11.205  26.625  0.00  0.00    +0.007 A 
ENDBRANCH  13  17
BRANCH   3  24
ATOM     24  C2  UNL     1      12.727   1.998  21.455  0.00  0.00    +0.035 A 
ATOM     25  C3  UNL     1      12.231   1.130  22.444  0.00  0.00    +0.024 A 
ATOM     26  C4  UNL     1      13.058   0.157  23.010  0.00  0.00    +0.010 A 
ATOM     27  C5  UNL     1      14.401   0.037  22.608  0.00  0.00    -0.018 A 
ATOM     28  C12 UNL     1      14.899   0.922  21.636  0.00  0.00    +0.010 A 
ATOM     29  C13 UNL     1      14.072   1.897  21.072  0.00  0.00    +0.024 A 
BRANCH  27  30
ATOM     30  C6  UNL     1      15.280  -1.000  23.206  0.00  0.00    -0.018 A 
ATOM     31  C7  UNL     1      16.541  -1.281  22.644  0.00  0.00    +0.008 A 
ATOM     32  C8  UNL     1      17.366  -2.257  23.210  0.00  0.00    +0.001 A 
ATOM     33  C9  UNL     1      16.945  -2.963  24.339  0.00  0.00    +0.000 A 
ATOM     34  C10 UNL     1      15.697  -2.693  24.905  0.00  0.00    +0.001 A 
ATOM     35  C11 UNL     1      14.867  -1.719  24.343  0.00  0.00    +0.008 A 
ENDBRANCH  27  30
ENDBRANCH   3  24
TORSDOF 3
ENDMDL
MODEL 2
REMARK VINA RESULT:    -8.193      8.841     13.050
REMARK INTER + INTRA:         -10.225
REMARK INTER:                  -9.427
REMARK INTRA:                  -0.798
REMARK UNBOUND:                -0.595
REMARK  Name = /home/qwerty/github/datacon2025hack/step_04_hit_selection/docking/ligands/lig_711.pdb
REMARK  3 active torsions:
REMARK  status: ('A' for Active; 'I' for Inactive)
REMARK    1  A    between atoms: N1_3  and  C2_4
REMARK    2  A    between atoms: C5_7  and  C6_8
REMARK    3  A    between atoms: C19_25  and  C20_26
REMARK                            x       y       z     vdW  Elec       q    Type
REMARK                         _______ _______ _______ _____ _____    ______ ____
ROOT
ATOM      1  O1  UNL     1      18.948   6.332  21.250  0.00  0.00    -0.252 OA
ATOM      2  C1  UNL     1      18.081   6.097  20.366  0.00  0.00    +0.310 C 
ATOM      3  N1  UNL     1      17.890   7.015  19.279  0.00  0.00    -0.269 N 
ATOM      4  N2  UNL     1      17.304   4.890  20.415  0.00  0.00    -0.248 N 
ATOM      5  C14 UNL     1      17.424   3.901  21.447  0.00  0.00    +0.166 A 
ATOM      6  N3  UNL     1      18.292   3.989  22.483  0.00  0.00    -0.229 NA
ATOM      7  C15 UNL     1      18.181   2.915  23.307  0.00  0.00    +0.062 A 
ATOM      8  C16 UNL     1      17.250   1.970  22.912  0.00  0.00    +0.079 A 
ATOM      9  S1  UNL     1      16.500   2.488  21.501  0.00  0.00    -0.049 S 
ATOM     10  C17 UNL     1      16.998   0.744  23.674  0.00  0.00    +0.172 C 
ATOM     11  O2  UNL     1      16.128  -0.083  23.294  0.00  0.00    -0.291 OA
ATOM     12  C18 UNL     1      17.850   0.461  24.884  0.00  0.00    +0.088 C 
ATOM     13  C19 UNL     1      18.350   1.776  25.539  0.00  0.00    +0.032 C 
ATOM     14  C26 UNL     1      19.051   2.706  24.514  0.00  0.00    +0.065 C 
ATOM     15  H1  UNL     1      17.389   6.664  18.431  0.00  0.00    +0.156 HD
ATOM     16  H11 UNL     1      16.603   4.722  19.659  0.00  0.00    +0.158 HD
ENDROOT
BRANCH  13  17
ATOM     17  C20 UNL     1      19.251   1.492  26.725  0.00  0.00    -0.043 A 
ATOM     18  C21 UNL     1      18.786   1.650  28.047  0.00  0.00    +0.007 A 
ATOM     19  C22 UNL     1      19.627   1.383  29.130  0.00  0.00    +0.038 A 
ATOM     20  C23 UNL     1      20.939   0.955  28.910  0.00  0.00    +0.123 A 
ATOM     21  F1  UNL     1      21.753   0.696  29.963  0.00  0.00    -0.205 F 
ATOM     22  C24 UNL     1      21.411   0.794  27.605  0.00  0.00    +0.038 A 
ATOM     23  C25 UNL     1      20.573   1.060  26.518  0.00  0.00    +0.007 A 
ENDBRANCH  13  17
BRANCH   3  24
ATOM     24  C2  UNL     1      18.445   8.340  19.235  0.00  0.00    +0.035 A 
ATOM     25  C3  UNL     1      19.745   8.576  18.754  0.00  0.00    +0.024 A 
ATOM     26  C4  UNL     1      20.269   9.871  18.740  0.00  0.00    +0.010 A 
ATOM     27  C5  UNL     1      19.512  10.956  19.218  0.00  0.00    -0.018 A 
ATOM     28  C12 UNL     1      18.221  10.712  19.721  0.00  0.00    +0.010 A 
ATOM     29  C13 UNL     1      17.698   9.416  19.735  0.00  0.00    +0.024 A 
BRANCH  27  30
ATOM     30  C6  UNL     1      20.066  12.333  19.200  0.00  0.00    -0.018 A 
ATOM     31  C7  UNL     1      19.463  13.358  19.954  0.00  0.00    +0.008 A 
ATOM     32  C8  UNL     1      19.988  14.653  19.935  0.00  0.00    +0.001 A 
ATOM     33  C9  UNL     1      21.120  14.940  19.168  0.00  0.00    +0.000 A 
ATOM     34  C10 UNL     1      21.727  13.932  18.417  0.00  0.00    +0.001 A 
ATOM     35  C11 UNL     1      21.205  12.635  18.430  0.00  0.00    +0.008 A 
ENDBRANCH  27  30
ENDBRANCH   3  24
TORSDOF 3
ENDMDL
MODEL 3
REMARK VINA RESULT:    -8.150     13.521     15.617
REMARK INTER + INTRA:         -10.175
REMARK INTER:                  -9.382
REMARK INTRA:                  -0.793
REMARK UNBOUND:                -0.595
REMARK  Name = /home/qwerty/github/datacon2025hack/step_04_hit_selection/docking/ligands/lig_711.pdb
REMARK  3 active torsions:
REMARK  status: ('A' for Active; 'I' for Inactive)
REMARK    1  A    between atoms: N1_3  and  C2_4
REMARK    2  A    between atoms: C5_7  and  C6_8
REMARK    3  A    between atoms: C19_25  and  C20_26
REMARK                            x       y       z     vdW  Elec       q    Type
REMARK                         _______ _______ _______ _____ _____    ______ ____
ROOT
ATOM      1  O1  UNL     1      14.391   4.719  36.466  0.00  0.00    -0.252 OA
ATOM      2  C1  UNL     1      14.033   5.334  37.507  0.00  0.00    +0.310 C 
ATOM      3  N1  UNL     1      14.909   6.296  38.115  0.00  0.00    -0.269 N 
ATOM      4  N2  UNL     1      12.731   5.111  38.070  0.00  0.00    -0.248 N 
ATOM      5  C14 UNL     1      11.775   4.185  37.535  0.00  0.00    +0.166 A 
ATOM      6  N3  UNL     1      11.988   3.428  36.432  0.00  0.00    -0.229 NA
ATOM      7  C15 UNL     1      10.914   2.640  36.164  0.00  0.00    +0.062 A 
ATOM      8  C16 UNL     1       9.848   2.791  37.033  0.00  0.00    +0.079 A 
ATOM      9  S1  UNL     1      10.249   3.922  38.210  0.00  0.00    -0.049 S 
ATOM     10  C17 UNL     1       8.604   2.030  36.895  0.00  0.00    +0.172 C 
ATOM     11  O2  UNL     1       7.663   2.179  37.718  0.00  0.00    -0.291 OA
ATOM     12  C18 UNL     1       8.449   1.113  35.710  0.00  0.00    +0.088 C 
ATOM     13  C19 UNL     1       9.825   0.581  35.228  0.00  0.00    +0.032 C 
ATOM     14  C26 UNL     1      10.836   1.730  34.971  0.00  0.00    +0.065 C 
ATOM     15  H1  UNL     1      14.487   6.983  38.781  0.00  0.00    +0.156 HD
ATOM     16  H11 UNL     1      12.463   5.647  38.925  0.00  0.00    +0.158 HD
ENDROOT
BRANCH  13  17
ATOM     17  C20 UNL     1       9.675  -0.299  34.002  0.00  0.00    -0.043 A 
ATOM     18  C21 UNL     1       9.231  -1.632  34.113  0.00  0.00    +0.007 A 
ATOM     19  C22 UNL     1       9.097  -2.431  32.974  0.00  0.00    +0.038 A 
ATOM     20  C23 UNL     1       9.401  -1.912  31.713  0.00  0.00    +0.123 A 
ATOM     21  F1  UNL     1       9.270  -2.688  30.610  0.00  0.00    -0.205 F 
ATOM     22  C24 UNL     1       9.842  -0.591  31.590  0.00  0.00    +0.038 A 
ATOM     23  C25 UNL     1       9.978   0.212  32.727  0.00  0.00    +0.007 A 
ENDBRANCH  13  17
BRANCH   3  24
ATOM     24  C2  UNL     1      16.297   6.450  37.776  0.00  0.00    +0.035 A 
ATOM     25  C3  UNL     1      16.734   7.467  36.909  0.00  0.00    +0.024 A 
ATOM     26  C4  UNL     1      18.087   7.582  36.579  0.00  0.00    +0.010 A 
ATOM     27  C5  UNL     1      19.030   6.678  37.100  0.00  0.00    -0.018 A 
ATOM     28  C12 UNL     1      18.586   5.648  37.948  0.00  0.00    +0.010 A 
ATOM     29  C13 UNL     1      17.232   5.532  38.276  0.00  0.00    +0.024 A 
BRANCH  27  30
ATOM     30  C6  UNL     1      20.469   6.804  36.754  0.00  0.00    -0.018 A 
ATOM     31  C7  UNL     1      21.444   6.899  37.767  0.00  0.00    +0.008 A 
ATOM     32  C8  UNL     1      22.797   7.016  37.438  0.00  0.00    +0.001 A 
ATOM     33  C9  UNL     1      23.194   7.037  36.099  0.00  0.00    +0.000 A 
ATOM     34  C10 UNL     1      22.237   6.942  35.086  0.00  0.00    +0.001 A 
ATOM     35  C11 UNL     1      20.882   6.827  35.409  0.00  0.00    +0.008 A 
ENDBRANCH  27  30
ENDBRANCH   3  24
TORSDOF 3
ENDMDL
MODEL 4
REMARK VINA RESULT:    -8.102     14.022     16.843
REMARK INTER + INTRA:         -10.118
REMARK INTER:                  -9.327
REMARK INTRA:                  -0.791
REMARK UNBOUND:                -0.595
REMARK  Name = /home/qwerty/github/datacon2025hack/step_04_hit_selection/docking/ligands/lig_711.pdb
REMARK  3 active torsions:
REMARK  status: ('A' for Active; 'I' for Inactive)
REMARK    1  A    between atoms: N1_3  and  C2_4
REMARK    2  A    between atoms: C5_7  and  C6_8
REMARK    3  A    between atoms: C19_25  and  C20_26
REMARK                            x       y       z     vdW  Elec       q    Type
REMARK                         _______ _______ _______ _____ _____    ______ ____
ROOT
ATOM      1  O1  UNL     1      21.563  10.300  29.874  0.00  0.00    -0.252 OA
ATOM      2  C1  UNL     1      21.505  11.182  30.773  0.00  0.00    +0.310 C 
ATOM      3  N1  UNL     1      21.615  12.572  30.429  0.00  0.00    -0.269 N 
ATOM      4  N2  UNL     1      21.286  10.810  32.143  0.00  0.00    -0.248 N 
ATOM      5  C14 UNL     1      21.149   9.455  32.592  0.00  0.00    +0.166 A 
ATOM      6  N3  UNL     1      21.197   8.376  31.774  0.00  0.00    -0.229 NA
ATOM      7  C15 UNL     1      21.045   7.223  32.475  0.00  0.00    +0.062 A 
ATOM      8  C16 UNL     1      20.851   7.387  33.835  0.00  0.00    +0.079 A 
ATOM      9  S1  UNL     1      20.901   9.026  34.207  0.00  0.00    -0.049 S 
ATOM     10  C17 UNL     1      20.663   6.257  34.748  0.00  0.00    +0.172 C 
ATOM     11  O2  UNL     1      20.511   6.445  35.983  0.00  0.00    -0.291 OA
ATOM     12  C18 UNL     1      20.589   4.868  34.168  0.00  0.00    +0.088 C 
ATOM     13  C19 UNL     1      21.402   4.766  32.850  0.00  0.00    +0.032 C 
ATOM     14  C26 UNL     1      21.001   5.866  31.832  0.00  0.00    +0.065 C 
ATOM     15  H1  UNL     1      21.279  13.272  31.129  0.00  0.00    +0.156 HD
ATOM     16  H11 UNL     1      21.232  11.568  32.859  0.00  0.00    +0.158 HD
ENDROOT
BRANCH  13  17
ATOM     17  C20 UNL     1      21.284   3.383  32.238  0.00  0.00    -0.043 A 
ATOM     18  C21 UNL     1      20.611   2.344  32.911  0.00  0.00    +0.007 A 
ATOM     19  C22 UNL     1      20.509   1.076  32.334  0.00  0.00    +0.038 A 
ATOM     20  C23 UNL     1      21.075   0.828  31.081  0.00  0.00    +0.123 A 
ATOM     21  F1  UNL     1      20.975  -0.403  30.522  0.00  0.00    -0.205 F 
ATOM     22  C24 UNL     1      21.745   1.850  30.403  0.00  0.00    +0.038 A 
ATOM     23  C25 UNL     1      21.849   3.121  30.977  0.00  0.00    +0.007 A 
ENDBRANCH  13  17
BRANCH   3  24
ATOM     24  C2  UNL     1      22.042  13.053  29.144  0.00  0.00    +0.035 A 
ATOM     25  C3  UNL     1      21.136  13.215  28.081  0.00  0.00    +0.024 A 
ATOM     26  C4  UNL     1      21.581  13.665  26.835  0.00  0.00    +0.010 A 
ATOM     27  C5  UNL     1      22.941  13.952  26.621  0.00  0.00    -0.018 A 
ATOM     28  C12 UNL     1      23.848  13.767  27.680  0.00  0.00    +0.010 A 
ATOM     29  C13 UNL     1      23.402  13.314  28.925  0.00  0.00    +0.024 A 
BRANCH  27  30
ATOM     30  C6  UNL     1      23.413  14.436  25.299  0.00  0.00    -0.018 A 
ATOM     31  C7  UNL     1      23.176  13.681  24.133  0.00  0.00    +0.008 A 
ATOM     32  C8  UNL     1      23.621  14.139  22.890  0.00  0.00    +0.001 A 
ATOM     33  C9  UNL     1      24.305  15.353  22.794  0.00  0.00    +0.000 A 
ATOM     34  C10 UNL     1      24.546  16.110  23.943  0.00  0.00    +0.001 A 
ATOM     35  C11 UNL     1      24.105  15.656  25.189  0.00  0.00    +0.008 A 
ENDBRANCH  27  30
ENDBRANCH   3  24
TORSDOF 3
ENDMDL
MODEL 5
REMARK VINA RESULT:    -8.041      5.136     11.933
REMARK INTER + INTRA:         -10.046
REMARK INTER:                  -9.227
REMARK INTRA:                  -0.819
REMARK UNBOUND:                -0.595
REMARK  Name = /home/qwerty/github/datacon2025hack/step_04_hit_selection/docking/ligands/lig_711.pdb
REMARK  3 active torsions:
REMARK  status: ('A' for Active; 'I' for Inactive)
REMARK    1  A    between atoms: N1_3  and  C2_4
REMARK    2  A    between atoms: C5_7  and  C6_8
REMARK    3  A    between atoms: C19_25  and  C20_26
REMARK                            x       y       z     vdW  Elec       q    Type
REMARK                         _______ _______ _______ _____ _____    ______ ____
ROOT
ATOM      1  O1  UNL     1      13.760   3.502  22.405  0.00  0.00    -0.252 OA
ATOM      2  C1  UNL     1      12.978   2.591  22.022  0.00  0.00    +0.310 C 
ATOM      3  N1  UNL     1      11.739   2.925  21.377  0.00  0.00    -0.269 N 
ATOM      4  N2  UNL     1      13.337   1.210  22.188  0.00  0.00    -0.248 N 
ATOM      5  C14 UNL     1      14.553   0.767  22.805  0.00  0.00    +0.166 A 
ATOM      6  N3  UNL     1      15.506   1.600  23.288  0.00  0.00    -0.229 NA
ATOM      7  C15 UNL     1      16.542   0.903  23.821  0.00  0.00    +0.062 A 
ATOM      8  C16 UNL     1      16.424  -0.473  23.738  0.00  0.00    +0.079 A 
ATOM      9  S1  UNL     1      14.962  -0.860  23.004  0.00  0.00    -0.049 S 
ATOM     10  C17 UNL     1      17.447  -1.386  24.254  0.00  0.00    +0.172 C 
ATOM     11  O2  UNL     1      17.295  -2.633  24.180  0.00  0.00    -0.291 OA
ATOM     12  C18 UNL     1      18.717  -0.800  24.817  0.00  0.00    +0.088 C 
ATOM     13  C19 UNL     1      18.469   0.615  25.405  0.00  0.00    +0.032 C 
ATOM     14  C26 UNL     1      17.772   1.555  24.386  0.00  0.00    +0.065 C 
ATOM     15  H1  UNL     1      11.264   2.176  20.824  0.00  0.00    +0.156 HD
ATOM     16  H11 UNL     1      12.670   0.481  21.848  0.00  0.00    +0.158 HD
ENDROOT
BRANCH  13  17
ATOM     17  C20 UNL     1      19.756   1.228  25.923  0.00  0.00    -0.043 A 
ATOM     18  C21 UNL     1      20.543   2.066  25.107  0.00  0.00    +0.007 A 
ATOM     19  C22 UNL     1      21.726   2.624  25.598  0.00  0.00    +0.038 A 
ATOM     20  C23 UNL     1      22.138   2.355  26.906  0.00  0.00    +0.123 A 
ATOM     21  F1  UNL     1      23.287   2.897  27.381  0.00  0.00    -0.205 F 
ATOM     22  C24 UNL     1      21.367   1.525  27.724  0.00  0.00    +0.038 A 
ATOM     23  C25 UNL     1      20.182   0.965  27.237  0.00  0.00    +0.007 A 
ENDBRANCH  13  17
BRANCH   3  24
ATOM     24  C2  UNL     1      11.178   4.248  21.346  0.00  0.00    +0.035 A 
ATOM     25  C3  UNL     1      11.411   5.119  20.268  0.00  0.00    +0.024 A 
ATOM     26  C4  UNL     1      10.870   6.408  20.271  0.00  0.00    +0.010 A 
ATOM     27  C5  UNL     1      10.095   6.857  21.356  0.00  0.00    -0.018 A 
ATOM     28  C12 UNL     1       9.885   5.990  22.443  0.00  0.00    +0.010 A 
ATOM     29  C13 UNL     1      10.428   4.702  22.440  0.00  0.00    +0.024 A 
BRANCH  27  30
ATOM     30  C6  UNL     1       9.516   8.224  21.358  0.00  0.00    -0.018 A 
ATOM     31  C7  UNL     1       8.503   8.572  22.272  0.00  0.00    +0.008 A 
ATOM     32  C8  UNL     1       7.961   9.860  22.272  0.00  0.00    +0.001 A 
ATOM     33  C9  UNL     1       8.423  10.815  21.363  0.00  0.00    +0.000 A 
ATOM     34  C10 UNL     1       9.428  10.483  20.453  0.00  0.00    +0.001 A 
ATOM     35  C11 UNL     1       9.972   9.195  20.447  0.00  0.00    +0.008 A 
ENDBRANCH  27  30
ENDBRANCH   3  24
TORSDOF 3
ENDMDL
MODEL 6
REMARK VINA RESULT:    -8.021      9.728     10.226
REMARK INTER + INTRA:         -10.023
REMARK INTER:                  -9.714
REMARK INTRA:                  -0.309
REMARK UNBOUND:                -0.595
REMARK  Name = /home/qwerty/github/datacon2025hack/step_04_hit_selection/docking/ligands/lig_711.pdb
REMARK  3 active torsions:
REMARK  status: ('A' for Active; 'I' for Inactive)
REMARK    1  A    between atoms: N1_3  and  C2_4
REMARK    2  A    between atoms: C5_7  and  C6_8
REMARK    3  A    between atoms: C19_25  and  C20_26
REMARK                            x       y       z     vdW  Elec       q    Type
REMARK                         _______ _______ _______ _____ _____    ______ ____
ROOT
ATOM      1  O1  UNL     1      17.791   7.889  21.234  0.00  0.00    -0.252 OA
ATOM      2  C1  UNL     1      17.281   8.101  20.101  0.00  0.00    +0.310 C 
ATOM      3  N1  UNL     1      16.512   7.076  19.451  0.00  0.00    -0.269 N 
ATOM      4  N2  UNL     1      17.427   9.381  19.467  0.00  0.00    -0.248 N 
ATOM      5  C14 UNL     1      18.160  10.476  20.033  0.00  0.00    +0.166 A 
ATOM      6  N3  UNL     1      18.786  10.429  21.234  0.00  0.00    -0.229 NA
ATOM      7  C15 UNL     1      19.405  11.607  21.510  0.00  0.00    +0.062 A 
ATOM      8  C16 UNL     1      19.249  12.588  20.547  0.00  0.00    +0.079 A 
ATOM      9  S1  UNL     1      18.335  11.976  19.276  0.00  0.00    -0.049 S 
ATOM     10  C17 UNL     1      19.840  13.922  20.677  0.00  0.00    +0.172 C 
ATOM     11  O2  UNL     1      19.694  14.783  19.769  0.00  0.00    -0.291 OA
ATOM     12  C18 UNL     1      20.570  14.265  21.949  0.00  0.00    +0.088 C 
ATOM     13  C19 UNL     1      21.186  12.999  22.601  0.00  0.00    +0.032 C 
ATOM     14  C26 UNL     1      20.136  11.874  22.795  0.00  0.00    +0.065 C 
ATOM     15  H1  UNL     1      15.876   7.367  18.675  0.00  0.00    +0.156 HD
ATOM     16  H11 UNL     1      16.981   9.526  18.534  0.00  0.00    +0.158 HD
ENDROOT
BRANCH  13  17
ATOM     17  C20 UNL     1      21.876  13.335  23.910  0.00  0.00    -0.043 A 
ATOM     18  C21 UNL     1      21.290  13.002  25.148  0.00  0.00    +0.007 A 
ATOM     19  C22 UNL     1      21.937  13.317  26.345  0.00  0.00    +0.038 A 
ATOM     20  C23 UNL     1      23.174  13.966  26.324  0.00  0.00    +0.123 A 
ATOM     21  F1  UNL     1      23.801  14.271  27.487  0.00  0.00    -0.205 F 
ATOM     22  C24 UNL     1      23.766  14.301  25.103  0.00  0.00    +0.038 A 
ATOM     23  C25 UNL     1      23.122  13.987  23.902  0.00  0.00    +0.007 A 
ENDBRANCH  13  17
BRANCH   3  24
ATOM     24  C2  UNL     1      16.474   5.704  19.879  0.00  0.00    +0.035 A 
ATOM     25  C3  UNL     1      17.561   5.113  20.546  0.00  0.00    +0.024 A 
ATOM     26  C4  UNL     1      17.507   3.771  20.933  0.00  0.00    +0.010 A 
ATOM     27  C5  UNL     1      16.372   2.990  20.652  0.00  0.00    -0.018 A 
ATOM     28  C12 UNL     1      15.297   3.579  19.963  0.00  0.00    +0.010 A 
ATOM     29  C13 UNL     1      15.352   4.920  19.574  0.00  0.00    +0.024 A 
BRANCH  27  30
ATOM     30  C6  UNL     1      16.312   1.565  21.067  0.00  0.00    -0.018 A 
ATOM     31  C7  UNL     1      16.520   0.536  20.128  0.00  0.00    +0.008 A 
ATOM     32  C8  UNL     1      16.464  -0.804  20.523  0.00  0.00    +0.001 A 
ATOM     33  C9  UNL     1      16.201  -1.132  21.855  0.00  0.00    +0.000 A 
ATOM     34  C10 UNL     1      15.994  -0.121  22.795  0.00  0.00    +0.001 A 
ATOM     35  C11 UNL     1      16.047   1.221  22.406  0.00  0.00    +0.008 A 
ENDBRANCH  27  30
ENDBRANCH   3  24
TORSDOF 3
ENDMDL
MODEL 7
REMARK VINA RESULT:    -7.868      7.051      8.907
REMARK INTER + INTRA:          -9.843
REMARK INTER:                  -9.075
REMARK INTRA:                  -0.768
REMARK UNBOUND:                -0.595
REMARK  Name = /home/qwerty/github/datacon2025hack/step_04_hit_selection/docking/ligands/lig_711.pdb
REMARK  3 active torsions:
REMARK  status: ('A' for Active; 'I' for Inactive)
REMARK    1  A    between atoms: N1_3  and  C2_4
REMARK    2  A    between atoms: C5_7  and  C6_8
REMARK    3  A    between atoms: C19_25  and  C20_26
REMARK                            x       y       z     vdW  Elec       q    Type
REMARK                         _______ _______ _______ _____ _____    ______ ____
ROOT
ATOM      1  O1  UNL     1      14.536   9.370  22.407  0.00  0.00    -0.252 OA
ATOM      2  C1  UNL     1      14.588   8.483  21.512  0.00  0.00    +0.310 C 
ATOM      3  N1  UNL     1      15.698   8.441  20.601  0.00  0.00    -0.269 N 
ATOM      4  N2  UNL     1      13.562   7.483  21.421  0.00  0.00    -0.248 N 
ATOM      5  C14 UNL     1      12.421   7.425  22.288  0.00  0.00    +0.166 A 
ATOM      6  N3  UNL     1      12.189   8.300  23.296  0.00  0.00    -0.229 NA
ATOM      7  C15 UNL     1      11.032   8.006  23.943  0.00  0.00    +0.062 A 
ATOM      8  C16 UNL     1      10.363   6.892  23.468  0.00  0.00    +0.079 A 
ATOM      9  S1  UNL     1      11.214   6.249  22.168  0.00  0.00    -0.049 S 
ATOM     10  C17 UNL     1       9.102   6.421  24.046  0.00  0.00    +0.172 C 
ATOM     11  O2  UNL     1       8.512   5.415  23.572  0.00  0.00    -0.291 OA
ATOM     12  C18 UNL     1       8.560   7.128  25.261  0.00  0.00    +0.088 C 
ATOM     13  C19 UNL     1       9.002   8.615  25.290  0.00  0.00    +0.032 C 
ATOM     14  C26 UNL     1      10.539   8.769  25.140  0.00  0.00    +0.065 C 
ATOM     15  H1  UNL     1      15.860   7.551  20.077  0.00  0.00    +0.156 HD
ATOM     16  H11 UNL     1      13.644   6.756  20.676  0.00  0.00    +0.158 HD
ENDROOT
BRANCH  13  17
ATOM     17  C20 UNL     1       8.502   9.313  26.540  0.00  0.00    -0.043 A 
ATOM     18  C21 UNL     1       7.772   8.612  27.522  0.00  0.00    +0.007 A 
ATOM     19  C22 UNL     1       7.319   9.268  28.670  0.00  0.00    +0.038 A 
ATOM     20  C23 UNL     1       7.587  10.627  28.853  0.00  0.00    +0.123 A 
ATOM     21  F1  UNL     1       7.146  11.262  29.967  0.00  0.00    -0.205 F 
ATOM     22  C24 UNL     1       8.309  11.332  27.886  0.00  0.00    +0.038 A 
ATOM     23  C25 UNL     1       8.765  10.680  26.737  0.00  0.00    +0.007 A 
ENDBRANCH  13  17
BRANCH   3  24
ATOM     24  C2  UNL     1      16.662   9.496  20.455  0.00  0.00    +0.035 A 
ATOM     25  C3  UNL     1      17.734   9.641  21.354  0.00  0.00    +0.024 A 
ATOM     26  C4  UNL     1      18.647  10.688  21.202  0.00  0.00    +0.010 A 
ATOM     27  C5  UNL     1      18.502  11.618  20.157  0.00  0.00    -0.018 A 
ATOM     28  C12 UNL     1      17.415  11.484  19.275  0.00  0.00    +0.010 A 
ATOM     29  C13 UNL     1      16.501  10.438  19.429  0.00  0.00    +0.024 A 
BRANCH  27  30
ATOM     30  C6  UNL     1      19.475  12.728  19.992  0.00  0.00    -0.018 A 
ATOM     31  C7  UNL     1      20.048  12.998  18.734  0.00  0.00    +0.008 A 
ATOM     32  C8  UNL     1      20.962  14.044  18.582  0.00  0.00    +0.001 A 
ATOM     33  C9  UNL     1      21.314  14.833  19.680  0.00  0.00    +0.000 A 
ATOM     34  C10 UNL     1      20.752  14.576  20.932  0.00  0.00    +0.001 A 
ATOM     35  C11 UNL     1      19.839  13.530  21.091  0.00  0.00    +0.008 A 
ENDBRANCH  27  30
ENDBRANCH   3  24
TORSDOF 3
ENDMDL
MODEL 8
REMARK VINA RESULT:    -7.852      8.457     11.066
REMARK INTER + INTRA:          -9.824
REMARK INTER:                  -8.993
REMARK INTRA:                  -0.831
REMARK UNBOUND:                -0.595
REMARK  Name = /home/qwerty/github/datacon2025hack/step_04_hit_selection/docking/ligands/lig_711.pdb
REMARK  3 active torsions:
REMARK  status: ('A' for Active; 'I' for Inactive)
REMARK    1  A    between atoms: N1_3  and  C2_4
REMARK    2  A    between atoms: C5_7  and  C6_8
REMARK    3  A    between atoms: C19_25  and  C20_26
REMARK                            x       y       z     vdW  Elec       q    Type
REMARK                         _______ _______ _______ _____ _____    ______ ____
ROOT
ATOM      1  O1  UNL     1      17.146   7.891  20.553  0.00  0.00    -0.252 OA
ATOM      2  C1  UNL     1      18.057   7.027  20.449  0.00  0.00    +0.310 C 
ATOM      3  N1  UNL     1      19.435   7.430  20.400  0.00  0.00    -0.269 N 
ATOM      4  N2  UNL     1      17.731   5.628  20.421  0.00  0.00    -0.248 N 
ATOM      5  C14 UNL     1      16.393   5.117  20.478  0.00  0.00    +0.166 A 
ATOM      6  N3  UNL     1      15.288   5.894  20.577  0.00  0.00    -0.229 NA
ATOM      7  C15 UNL     1      14.158   5.139  20.604  0.00  0.00    +0.062 A 
ATOM      8  C16 UNL     1      14.369   3.772  20.552  0.00  0.00    +0.079 A 
ATOM      9  S1  UNL     1      16.018   3.470  20.435  0.00  0.00    -0.049 S 
ATOM     10  C17 UNL     1      13.270   2.803  20.577  0.00  0.00    +0.172 C 
ATOM     11  O2  UNL     1      13.500   1.568  20.506  0.00  0.00    -0.291 OA
ATOM     12  C18 UNL     1      11.864   3.314  20.755  0.00  0.00    +0.088 C 
ATOM     13  C19 UNL     1      11.713   4.751  20.189  0.00  0.00    +0.032 C 
ATOM     14  C26 UNL     1      12.782   5.718  20.764  0.00  0.00    +0.065 C 
ATOM     15  H1  UNL     1      20.159   6.705  20.604  0.00  0.00    +0.156 HD
ATOM     16  H11 UNL     1      18.513   4.939  20.346  0.00  0.00    +0.158 HD
ENDROOT
BRANCH  13  17
ATOM     17  C20 UNL     1      10.312   5.287  20.417  0.00  0.00    -0.043 A 
ATOM     18  C21 UNL     1       9.231   4.416  20.661  0.00  0.00    +0.007 A 
ATOM     19  C22 UNL     1       7.946   4.924  20.870  0.00  0.00    +0.038 A 
ATOM     20  C23 UNL     1       7.724   6.303  20.838  0.00  0.00    +0.123 A 
ATOM     21  F1  UNL     1       6.476   6.794  21.041  0.00  0.00    -0.205 F 
ATOM     22  C24 UNL     1       8.787   7.177  20.597  0.00  0.00    +0.038 A 
ATOM     23  C25 UNL     1      10.075   6.673  20.388  0.00  0.00    +0.007 A 
ENDBRANCH  13  17
BRANCH   3  24
ATOM     24  C2  UNL     1      19.870   8.787  20.207  0.00  0.00    +0.035 A 
ATOM     25  C3  UNL     1      19.866   9.385  18.935  0.00  0.00    +0.024 A 
ATOM     26  C4  UNL     1      20.314  10.699  18.771  0.00  0.00    +0.010 A 
ATOM     27  C5  UNL     1      20.786  11.438  19.871  0.00  0.00    -0.018 A 
ATOM     28  C12 UNL     1      20.811  10.827  21.138  0.00  0.00    +0.010 A 
ATOM     29  C13 UNL     1      20.364   9.512  21.301  0.00  0.00    +0.024 A 
BRANCH  27  30
ATOM     30  C6  UNL     1      21.257  12.835  19.698  0.00  0.00    -0.018 A 
ATOM     31  C7  UNL     1      22.118  13.423  20.646  0.00  0.00    +0.008 A 
ATOM     32  C8  UNL     1      22.561  14.738  20.479  0.00  0.00    +0.001 A 
ATOM     33  C9  UNL     1      22.153  15.480  19.369  0.00  0.00    +0.000 A 
ATOM     34  C10 UNL     1      21.300  14.908  18.422  0.00  0.00    +0.001 A 
ATOM     35  C11 UNL     1      20.852  13.594  18.584  0.00  0.00    +0.008 A 
ENDBRANCH  27  30
ENDBRANCH   3  24
TORSDOF 3
ENDMDL
MODEL 9
REMARK VINA RESULT:    -7.848     11.960     12.795
REMARK INTER + INTRA:          -9.819
REMARK INTER:                  -9.010
REMARK INTRA:                  -0.809
REMARK UNBOUND:                -0.595
REMARK  Name = /home/qwerty/github/datacon2025hack/step_04_hit_selection/docking/ligands/lig_711.pdb
REMARK  3 active torsions:
REMARK  status: ('A' for Active; 'I' for Inactive)
REMARK    1  A    between atoms: N1_3  and  C2_4
REMARK    2  A    between atoms: C5_7  and  C6_8
REMARK    3  A    between atoms: C19_25  and  C20_26
REMARK                            x       y       z     vdW  Elec       q    Type
REMARK                         _______ _______ _______ _____ _____    ______ ____
ROOT
ATOM      1  O1  UNL     1      20.191  10.570  21.817  0.00  0.00    -0.252 OA
ATOM      2  C1  UNL     1      20.792  10.704  20.717  0.00  0.00    +0.310 C 
ATOM      3  N1  UNL     1      20.396   9.926  19.577  0.00  0.00    -0.269 N 
ATOM      4  N2  UNL     1      21.850  11.666  20.581  0.00  0.00    -0.248 N 
ATOM      5  C14 UNL     1      22.314  12.503  21.649  0.00  0.00    +0.166 A 
ATOM      6  N3  UNL     1      21.798  12.489  22.902  0.00  0.00    -0.229 NA
ATOM      7  C15 UNL     1      22.437  13.380  23.704  0.00  0.00    +0.062 A 
ATOM      8  C16 UNL     1      23.434  14.113  23.085  0.00  0.00    +0.079 A 
ATOM      9  S1  UNL     1      23.565  13.625  21.482  0.00  0.00    -0.049 S 
ATOM     10  C17 UNL     1      24.225  15.123  23.792  0.00  0.00    +0.172 C 
ATOM     11  O2  UNL     1      25.139  15.755  23.200  0.00  0.00    -0.291 OA
ATOM     12  C18 UNL     1      23.877  15.437  25.224  0.00  0.00    +0.088 C 
ATOM     13  C19 UNL     1      23.249  14.207  25.931  0.00  0.00    +0.032 C 
ATOM     14  C26 UNL     1      22.050  13.627  25.135  0.00  0.00    +0.065 C 
ATOM     15  H1  UNL     1      20.703  10.257  18.634  0.00  0.00    +0.156 HD
ATOM     16  H11 UNL     1      22.317  11.759  19.652  0.00  0.00    +0.158 HD
ENDROOT
BRANCH  13  17
ATOM     17  C20 UNL     1      22.849  14.538  27.357  0.00  0.00    -0.043 A 
ATOM     18  C21 UNL     1      22.085  15.685  27.651  0.00  0.00    +0.007 A 
ATOM     19  C22 UNL     1      21.723  15.976  28.969  0.00  0.00    +0.038 A 
ATOM     20  C23 UNL     1      22.118  15.129  30.008  0.00  0.00    +0.123 A 
ATOM     21  F1  UNL     1      21.766  15.414  31.286  0.00  0.00    -0.205 F 
ATOM     22  C24 UNL     1      22.876  13.989  29.729  0.00  0.00    +0.038 A 
ATOM     23  C25 UNL     1      23.240  13.693  28.412  0.00  0.00    +0.007 A 
ENDBRANCH  13  17
BRANCH   3  24
ATOM     24  C2  UNL     1      19.509   8.796  19.641  0.00  0.00    +0.035 A 
ATOM     25  C3  UNL     1      18.139   8.921  19.353  0.00  0.00    +0.024 A 
ATOM     26  C4  UNL     1      17.294   7.811  19.442  0.00  0.00    +0.010 A 
ATOM     27  C5  UNL     1      17.798   6.557  19.832  0.00  0.00    -0.018 A 
ATOM     28  C12 UNL     1      19.165   6.442  20.142  0.00  0.00    +0.010 A 
ATOM     29  C13 UNL     1      20.009   7.553  20.055  0.00  0.00    +0.024 A 
BRANCH  27  30
ATOM     30  C6  UNL     1      16.902   5.376  19.922  0.00  0.00    -0.018 A 
ATOM     31  C7  UNL     1      15.574   5.448  19.458  0.00  0.00    +0.008 A 
ATOM     32  C8  UNL     1      14.734   4.334  19.544  0.00  0.00    +0.001 A 
ATOM     33  C9  UNL     1      15.207   3.139  20.090  0.00  0.00    +0.000 A 
ATOM     34  C10 UNL     1      16.522   3.055  20.553  0.00  0.00    +0.001 A 
ATOM     35  C11 UNL     1      17.366   4.166  20.472  0.00  0.00    +0.008 A 
ENDBRANCH  27  30
ENDBRANCH   3  24
TORSDOF 3
ENDMDL
