MODEL 1
REMARK VINA RESULT:    -7.305      0.000      0.000
REMARK INTER + INTRA:          -9.246
REMARK INTER:                  -8.372
REMARK INTRA:                  -0.874
REMARK UNBOUND:                -0.874
REMARK  Name = /home/qwerty/github/datacon2025hack/step_04_hit_selection/docking/ligands/lig_40.pdb
REMARK  3 active torsions:
REMARK  status: ('A' for Active; 'I' for Inactive)
REMARK    1  A    between atoms: C1_2  and  C2_3
REMARK    2  A    between atoms: C8_9  and  O2_10
REMARK    3  A    between atoms: N4_23  and  C17_24
REMARK                            x       y       z     vdW  Elec       q    Type
REMARK                         _______ _______ _______ _____ _____    ______ ____
ROOT
ATOM      1  O1  UNL     1      12.324  15.272  32.290  0.00  0.00    -0.268 OA
ATOM      2  C1  UNL     1      12.166  14.027  32.167  0.00  0.00    +0.263 C 
ATOM      3  N2  UNL     1      12.013  13.456  30.858  0.00  0.00    -0.296 N 
ATOM      4  C10 UNL     1      12.959  12.439  30.392  0.00  0.00    +0.110 C 
ATOM      5  C11 UNL     1      12.234  11.369  29.568  0.00  0.00    +0.054 C 
ATOM      6  C12 UNL     1      11.269  11.969  28.504  0.00  0.00    +0.115 C 
ATOM      7  C13 UNL     1      10.419  13.172  29.009  0.00  0.00    +0.054 C 
ATOM      8  C14 UNL     1      11.229  14.167  29.846  0.00  0.00    +0.110 C 
ATOM      9  C15 UNL     1      12.065  12.403  27.313  0.00  0.00    +0.238 C 
ATOM     10  O3  UNL     1      12.956  13.294  27.318  0.00  0.00    -0.273 OA
ATOM     11  N3  UNL     1      11.712  11.694  26.150  0.00  0.00    -0.298 N 
ATOM     12  C16 UNL     1      10.672  10.747  26.484  0.00  0.00    +0.214 C 
ATOM     13  N4  UNL     1      10.400  10.915  27.923  0.00  0.00    -0.300 N 
ATOM     14  H15 UNL     1      12.135  11.825  25.204  0.00  0.00    +0.150 HD
ENDROOT
BRANCH   2  15
ATOM     15  C2  UNL     1      12.116  13.184  33.375  0.00  0.00    +0.103 A 
ATOM     16  C3  UNL     1      11.330  12.043  33.532  0.00  0.00    +0.041 A 
ATOM     17  C4  UNL     1      11.578  11.615  34.817  0.00  0.00    +0.004 A 
ATOM     18  C5  UNL     1      11.067  10.528  35.523  0.00  0.00    +0.010 A 
ATOM     19  C6  UNL     1      11.502  10.342  36.848  0.00  0.00    +0.004 A 
ATOM     20  C7  UNL     1      12.426  11.238  37.431  0.00  0.00    +0.047 A 
ATOM     21  C8  UNL     1      12.923  12.332  36.691  0.00  0.00    +0.141 A 
ATOM     22  C9  UNL     1      12.473  12.488  35.379  0.00  0.00    +0.089 A 
ATOM     23  N1  UNL     1      12.808  13.455  34.508  0.00  0.00    -0.348 N 
ATOM     24  H6  UNL     1      13.462  14.252  34.673  0.00  0.00    +0.166 HD
BRANCH  21  25
ATOM     25  O2  UNL     1      13.832  13.229  37.245  0.00  0.00    -0.505 OA
ATOM     26  H5  UNL     1      13.910  14.179  36.902  0.00  0.00    +0.292 HD
ENDBRANCH  21  25
ENDBRANCH   2  15
BRANCH  13  27
ATOM     27  C17 UNL     1       9.395  10.104  28.607  0.00  0.00    +0.032 A 
ATOM     28  C18 UNL     1       9.776   8.910  29.266  0.00  0.00    +0.026 A 
ATOM     29  C19 UNL     1       8.836   8.119  29.931  0.00  0.00    +0.040 A 
ATOM     30  C20 UNL     1       7.495   8.494  29.957  0.00  0.00    +0.124 A 
ATOM     31  F1  UNL     1       6.587   7.725  30.603  0.00  0.00    -0.205 F 
ATOM     32  C21 UNL     1       7.092   9.664  29.316  0.00  0.00    +0.040 A 
ATOM     33  C22 UNL     1       8.025  10.461  28.648  0.00  0.00    +0.026 A 
ENDBRANCH  13  27
TORSDOF 3
ENDMDL
MODEL 2
REMARK VINA RESULT:    -7.251     13.622     16.006
REMARK INTER + INTRA:          -9.184
REMARK INTER:                  -8.439
REMARK INTRA:                  -0.745
REMARK UNBOUND:                -0.874
REMARK  Name = /home/qwerty/github/datacon2025hack/step_04_hit_selection/docking/ligands/lig_40.pdb
REMARK  3 active torsions:
REMARK  status: ('A' for Active; 'I' for Inactive)
REMARK    1  A    between atoms: C1_2  and  C2_3
REMARK    2  A    between atoms: C8_9  and  O2_10
REMARK    3  A    between atoms: N4_23  and  C17_24
REMARK                            x       y       z     vdW  Elec       q    Type
REMARK                         _______ _______ _______ _____ _____    ______ ____
ROOT
ATOM      1  O1  UNL     1      17.746   3.558  25.279  0.00  0.00    -0.268 OA
ATOM      2  C1  UNL     1      18.097   2.613  26.037  0.00  0.00    +0.263 C 
ATOM      3  N2  UNL     1      18.883   2.895  27.206  0.00  0.00    -0.296 N 
ATOM      4  C10 UNL     1      18.377   2.527  28.530  0.00  0.00    +0.110 C 
ATOM      5  C11 UNL     1      19.518   2.029  29.423  0.00  0.00    +0.054 C 
ATOM      6  C12 UNL     1      20.771   2.952  29.383  0.00  0.00    +0.115 C 
ATOM      7  C13 UNL     1      21.152   3.462  27.961  0.00  0.00    +0.054 C 
ATOM      8  C14 UNL     1      19.938   3.908  27.141  0.00  0.00    +0.110 C 
ATOM      9  C15 UNL     1      20.536   4.131  30.274  0.00  0.00    +0.238 C 
ATOM     10  O3  UNL     1      19.631   4.993  30.118  0.00  0.00    -0.273 OA
ATOM     11  N3  UNL     1      21.452   4.182  31.341  0.00  0.00    -0.298 N 
ATOM     12  C16 UNL     1      22.347   3.052  31.236  0.00  0.00    +0.214 C 
ATOM     13  N4  UNL     1      21.931   2.300  30.039  0.00  0.00    -0.300 N 
ATOM     14  H15 UNL     1      21.478   4.912  32.088  0.00  0.00    +0.150 HD
ENDROOT
BRANCH   2  15
ATOM     15  C2  UNL     1      17.713   1.232  25.694  0.00  0.00    +0.103 A 
ATOM     16  C3  UNL     1      18.598   0.199  25.388  0.00  0.00    +0.041 A 
ATOM     17  C4  UNL     1      17.797  -0.882  25.099  0.00  0.00    +0.004 A 
ATOM     18  C5  UNL     1      18.131  -2.181  24.721  0.00  0.00    +0.010 A 
ATOM     19  C6  UNL     1      17.081  -3.085  24.477  0.00  0.00    +0.004 A 
ATOM     20  C7  UNL     1      15.736  -2.674  24.612  0.00  0.00    +0.047 A 
ATOM     21  C8  UNL     1      15.429  -1.350  24.993  0.00  0.00    +0.141 A 
ATOM     22  C9  UNL     1      16.493  -0.478  25.230  0.00  0.00    +0.089 A 
ATOM     23  N1  UNL     1      16.428   0.815  25.590  0.00  0.00    -0.348 N 
ATOM     24  H6  UNL     1      15.565   1.381  25.751  0.00  0.00    +0.166 HD
BRANCH  21  25
ATOM     25  O2  UNL     1      14.111  -0.921  25.129  0.00  0.00    -0.505 OA
ATOM     26  H5  UNL     1      13.406  -1.161  24.444  0.00  0.00    +0.292 HD
ENDBRANCH  21  25
ENDBRANCH   2  15
BRANCH  13  27
ATOM     27  C17 UNL     1      22.623   1.079  29.629  0.00  0.00    +0.032 A 
ATOM     28  C18 UNL     1      24.037   1.053  29.569  0.00  0.00    +0.026 A 
ATOM     29  C19 UNL     1      24.724  -0.102  29.184  0.00  0.00    +0.040 A 
ATOM     30  C20 UNL     1      24.022  -1.257  28.849  0.00  0.00    +0.124 A 
ATOM     31  F1  UNL     1      24.691  -2.375  28.477  0.00  0.00    -0.205 F 
ATOM     32  C21 UNL     1      22.629  -1.259  28.898  0.00  0.00    +0.040 A 
ATOM     33  C22 UNL     1      21.934  -0.109  29.281  0.00  0.00    +0.026 A 
ENDBRANCH  13  27
TORSDOF 3
ENDMDL
MODEL 3
REMARK VINA RESULT:    -7.192      6.627      9.705
REMARK INTER + INTRA:          -9.116
REMARK INTER:                  -8.167
REMARK INTRA:                  -0.949
REMARK UNBOUND:                -0.874
REMARK  Name = /home/qwerty/github/datacon2025hack/step_04_hit_selection/docking/ligands/lig_40.pdb
REMARK  3 active torsions:
REMARK  status: ('A' for Active; 'I' for Inactive)
REMARK    1  A    between atoms: C1_2  and  C2_3
REMARK    2  A    between atoms: C8_9  and  O2_10
REMARK    3  A    between atoms: N4_23  and  C17_24
REMARK                            x       y       z     vdW  Elec       q    Type
REMARK                         _______ _______ _______ _____ _____    ______ ____
ROOT
ATOM      1  O1  UNL     1      16.156  12.113  33.620  0.00  0.00    -0.268 OA
ATOM      2  C1  UNL     1      16.116  11.341  34.617  0.00  0.00    +0.263 C 
ATOM      3  N2  UNL     1      17.330  10.746  35.104  0.00  0.00    -0.296 N 
ATOM      4  C10 UNL     1      17.755  10.986  36.485  0.00  0.00    +0.110 C 
ATOM      5  C11 UNL     1      18.378   9.720  37.083  0.00  0.00    +0.054 C 
ATOM      6  C12 UNL     1      19.414   9.045  36.137  0.00  0.00    +0.115 C 
ATOM      7  C13 UNL     1      18.980   8.985  34.642  0.00  0.00    +0.054 C 
ATOM      8  C14 UNL     1      18.343  10.289  34.152  0.00  0.00    +0.110 C 
ATOM      9  C15 UNL     1      20.715   9.779  36.236  0.00  0.00    +0.238 C 
ATOM     10  O3  UNL     1      20.895  10.986  35.923  0.00  0.00    -0.273 OA
ATOM     11  N3  UNL     1      21.749   8.964  36.732  0.00  0.00    -0.298 N 
ATOM     12  C16 UNL     1      21.213   7.648  36.998  0.00  0.00    +0.214 C 
ATOM     13  N4  UNL     1      19.786   7.697  36.634  0.00  0.00    -0.300 N 
ATOM     14  H15 UNL     1      22.738   9.262  36.888  0.00  0.00    +0.150 HD
ENDROOT
BRANCH   2  15
ATOM     15  C2  UNL     1      14.817  11.045  35.248  0.00  0.00    +0.103 A 
ATOM     16  C3  UNL     1      14.142  11.880  36.136  0.00  0.00    +0.041 A 
ATOM     17  C4  UNL     1      13.009  11.181  36.489  0.00  0.00    +0.004 A 
ATOM     18  C5  UNL     1      11.970  11.519  37.353  0.00  0.00    +0.010 A 
ATOM     19  C6  UNL     1      10.932  10.586  37.529  0.00  0.00    +0.004 A 
ATOM     20  C7  UNL     1      10.958   9.349  36.847  0.00  0.00    +0.047 A 
ATOM     21  C8  UNL     1      12.027   9.033  35.981  0.00  0.00    +0.141 A 
ATOM     22  C9  UNL     1      13.040   9.981  35.827  0.00  0.00    +0.089 A 
ATOM     23  N1  UNL     1      14.143   9.884  35.066  0.00  0.00    -0.348 N 
ATOM     24  H6  UNL     1      14.424   9.078  34.464  0.00  0.00    +0.166 HD
BRANCH  21  25
ATOM     25  O2  UNL     1      12.076   7.819  35.302  0.00  0.00    -0.505 OA
ATOM     26  H5  UNL     1      12.847   7.590  34.688  0.00  0.00    +0.292 HD
ENDBRANCH  21  25
ENDBRANCH   2  15
BRANCH  13  27
ATOM     27  C17 UNL     1      18.922   6.526  36.781  0.00  0.00    +0.032 A 
ATOM     28  C18 UNL     1      18.944   5.503  35.803  0.00  0.00    +0.026 A 
ATOM     29  C19 UNL     1      18.132   4.372  35.922  0.00  0.00    +0.040 A 
ATOM     30  C20 UNL     1      17.279   4.231  37.014  0.00  0.00    +0.124 A 
ATOM     31  F1  UNL     1      16.494   3.133  37.126  0.00  0.00    -0.205 F 
ATOM     32  C21 UNL     1      17.238   5.224  37.992  0.00  0.00    +0.040 A 
ATOM     33  C22 UNL     1      18.045   6.359  37.881  0.00  0.00    +0.026 A 
ENDBRANCH  13  27
TORSDOF 3
ENDMDL
MODEL 4
REMARK VINA RESULT:    -7.173     11.656     13.625
REMARK INTER + INTRA:          -9.095
REMARK INTER:                  -8.354
REMARK INTRA:                  -0.741
REMARK UNBOUND:                -0.874
REMARK  Name = /home/qwerty/github/datacon2025hack/step_04_hit_selection/docking/ligands/lig_40.pdb
REMARK  3 active torsions:
REMARK  status: ('A' for Active; 'I' for Inactive)
REMARK    1  A    between atoms: C1_2  and  C2_3
REMARK    2  A    between atoms: C8_9  and  O2_10
REMARK    3  A    between atoms: N4_23  and  C17_24
REMARK                            x       y       z     vdW  Elec       q    Type
REMARK                         _______ _______ _______ _____ _____    ______ ____
ROOT
ATOM      1  O1  UNL     1      16.299   3.028  22.468  0.00  0.00    -0.268 OA
ATOM      2  C1  UNL     1      15.210   2.396  22.532  0.00  0.00    +0.263 C 
ATOM      3  N2  UNL     1      14.011   2.990  22.010  0.00  0.00    -0.296 N 
ATOM      4  C10 UNL     1      13.266   2.312  20.946  0.00  0.00    +0.110 C 
ATOM      5  C11 UNL     1      11.757   2.482  21.156  0.00  0.00    +0.054 C 
ATOM      6  C12 UNL     1      11.348   3.949  21.473  0.00  0.00    +0.115 C 
ATOM      7  C13 UNL     1      12.290   4.681  22.474  0.00  0.00    +0.054 C 
ATOM      8  C14 UNL     1      13.774   4.422  22.196  0.00  0.00    +0.110 C 
ATOM      9  C15 UNL     1      11.298   4.728  20.196  0.00  0.00    +0.238 C 
ATOM     10  O3  UNL     1      12.279   4.941  19.434  0.00  0.00    -0.273 OA
ATOM     11  N3  UNL     1      10.006   5.213  19.918  0.00  0.00    -0.298 N 
ATOM     12  C16 UNL     1       9.117   4.791  20.977  0.00  0.00    +0.214 C 
ATOM     13  N4  UNL     1       9.937   4.019  21.928  0.00  0.00    -0.300 N 
ATOM     14  H15 UNL     1       9.734   5.778  19.083  0.00  0.00    +0.150 HD
ENDROOT
BRANCH   2  15
ATOM     15  C2  UNL     1      15.186   1.065  23.166  0.00  0.00    +0.103 A 
ATOM     16  C3  UNL     1      14.210   0.609  24.051  0.00  0.00    +0.041 A 
ATOM     17  C4  UNL     1      14.617  -0.657  24.408  0.00  0.00    +0.004 A 
ATOM     18  C5  UNL     1      14.038  -1.584  25.271  0.00  0.00    +0.010 A 
ATOM     19  C6  UNL     1      14.696  -2.814  25.452  0.00  0.00    +0.004 A 
ATOM     20  C7  UNL     1      15.906  -3.085  24.776  0.00  0.00    +0.047 A 
ATOM     21  C8  UNL     1      16.471  -2.124  23.911  0.00  0.00    +0.141 A 
ATOM     22  C9  UNL     1      15.792  -0.914  23.751  0.00  0.00    +0.089 A 
ATOM     23  N1  UNL     1      16.154   0.133  22.990  0.00  0.00    -0.348 N 
ATOM     24  H6  UNL     1      17.005   0.212  22.391  0.00  0.00    +0.166 HD
BRANCH  21  25
ATOM     25  O2  UNL     1      17.664  -2.367  23.236  0.00  0.00    -0.505 OA
ATOM     26  H5  UNL     1      17.824  -2.010  22.303  0.00  0.00    +0.292 HD
ENDBRANCH  21  25
ENDBRANCH   2  15
BRANCH  13  27
ATOM     27  C17 UNL     1       9.353   3.430  23.132  0.00  0.00    +0.032 A 
ATOM     28  C18 UNL     1       8.496   4.201  23.953  0.00  0.00    +0.026 A 
ATOM     29  C19 UNL     1       7.921   3.661  25.107  0.00  0.00    +0.040 A 
ATOM     30  C20 UNL     1       8.185   2.343  25.472  0.00  0.00    +0.124 A 
ATOM     31  F1  UNL     1       7.626   1.823  26.591  0.00  0.00    -0.205 F 
ATOM     32  C21 UNL     1       9.027   1.562  24.682  0.00  0.00    +0.040 A 
ATOM     33  C22 UNL     1       9.606   2.094  23.527  0.00  0.00    +0.026 A 
ENDBRANCH  13  27
TORSDOF 3
ENDMDL
MODEL 5
REMARK VINA RESULT:    -7.154      8.152     11.238
REMARK INTER + INTRA:          -9.073
REMARK INTER:                  -8.113
REMARK INTRA:                  -0.960
REMARK UNBOUND:                -0.874
REMARK  Name = /home/qwerty/github/datacon2025hack/step_04_hit_selection/docking/ligands/lig_40.pdb
REMARK  3 active torsions:
REMARK  status: ('A' for Active; 'I' for Inactive)
REMARK    1  A    between atoms: C1_2  and  C2_3
REMARK    2  A    between atoms: C8_9  and  O2_10
REMARK    3  A    between atoms: N4_23  and  C17_24
REMARK                            x       y       z     vdW  Elec       q    Type
REMARK                         _______ _______ _______ _____ _____    ______ ____
ROOT
ATOM      1  O1  UNL     1      19.964   6.777  35.058  0.00  0.00    -0.268 OA
ATOM      2  C1  UNL     1      20.165   7.997  34.810  0.00  0.00    +0.263 C 
ATOM      3  N2  UNL     1      19.295   8.990  35.374  0.00  0.00    -0.296 N 
ATOM      4  C10 UNL     1      19.847  10.037  36.237  0.00  0.00    +0.110 C 
ATOM      5  C11 UNL     1      19.137  11.372  35.984  0.00  0.00    +0.054 C 
ATOM      6  C12 UNL     1      17.587  11.240  35.945  0.00  0.00    +0.115 C 
ATOM      7  C13 UNL     1      17.064   9.999  35.164  0.00  0.00    +0.054 C 
ATOM      8  C14 UNL     1      17.858   8.724  35.465  0.00  0.00    +0.110 C 
ATOM      9  C15 UNL     1      17.067  11.185  37.348  0.00  0.00    +0.238 C 
ATOM     10  O3  UNL     1      17.336  10.287  38.189  0.00  0.00    -0.273 OA
ATOM     11  N3  UNL     1      16.225  12.272  37.646  0.00  0.00    -0.298 N 
ATOM     12  C16 UNL     1      16.130  13.117  36.476  0.00  0.00    +0.214 C 
ATOM     13  N4  UNL     1      16.962  12.487  35.437  0.00  0.00    -0.300 N 
ATOM     14  H15 UNL     1      15.751  12.443  38.561  0.00  0.00    +0.150 HD
ENDROOT
BRANCH   2  15
ATOM     15  C2  UNL     1      21.279   8.378  33.922  0.00  0.00    +0.103 A 
ATOM     16  C3  UNL     1      22.628   8.383  34.274  0.00  0.00    +0.041 A 
ATOM     17  C4  UNL     1      23.286   8.840  33.155  0.00  0.00    +0.004 A 
ATOM     18  C5  UNL     1      24.643   9.057  32.929  0.00  0.00    +0.010 A 
ATOM     19  C6  UNL     1      25.029   9.548  31.668  0.00  0.00    +0.004 A 
ATOM     20  C7  UNL     1      24.060   9.810  30.674  0.00  0.00    +0.047 A 
ATOM     21  C8  UNL     1      22.692   9.583  30.934  0.00  0.00    +0.141 A 
ATOM     22  C9  UNL     1      22.342   9.094  32.195  0.00  0.00    +0.089 A 
ATOM     23  N1  UNL     1      21.109   8.819  32.652  0.00  0.00    -0.348 N 
ATOM     24  H6  UNL     1      20.207   8.927  32.137  0.00  0.00    +0.166 HD
BRANCH  21  25
ATOM     25  O2  UNL     1      21.718   9.837  29.972  0.00  0.00    -0.505 OA
ATOM     26  H5  UNL     1      21.946   9.859  28.986  0.00  0.00    +0.292 HD
ENDBRANCH  21  25
ENDBRANCH   2  15
BRANCH  13  27
ATOM     27  C17 UNL     1      17.102  13.083  34.109  0.00  0.00    +0.032 A 
ATOM     28  C18 UNL     1      18.155  13.992  33.848  0.00  0.00    +0.026 A 
ATOM     29  C19 UNL     1      18.314  14.573  32.587  0.00  0.00    +0.040 A 
ATOM     30  C20 UNL     1      17.430  14.264  31.556  0.00  0.00    +0.124 A 
ATOM     31  F1  UNL     1      17.588  14.828  30.334  0.00  0.00    -0.205 F 
ATOM     32  C21 UNL     1      16.384  13.372  31.785  0.00  0.00    +0.040 A 
ATOM     33  C22 UNL     1      16.217  12.787  33.043  0.00  0.00    +0.026 A 
ENDBRANCH  13  27
TORSDOF 3
ENDMDL
MODEL 6
REMARK VINA RESULT:    -7.141      7.580     10.426
REMARK INTER + INTRA:          -9.059
REMARK INTER:                  -8.243
REMARK INTRA:                  -0.816
REMARK UNBOUND:                -0.874
REMARK  Name = /home/qwerty/github/datacon2025hack/step_04_hit_selection/docking/ligands/lig_40.pdb
REMARK  3 active torsions:
REMARK  status: ('A' for Active; 'I' for Inactive)
REMARK    1  A    between atoms: C1_2  and  C2_3
REMARK    2  A    between atoms: C8_9  and  O2_10
REMARK    3  A    between atoms: N4_23  and  C17_24
REMARK                            x       y       z     vdW  Elec       q    Type
REMARK                         _______ _______ _______ _____ _____    ______ ____
ROOT
ATOM      1  O1  UNL     1      20.333  10.586  31.462  0.00  0.00    -0.268 OA
ATOM      2  C1  UNL     1      19.890  11.418  32.299  0.00  0.00    +0.263 C 
ATOM      3  N2  UNL     1      19.570  10.986  33.631  0.00  0.00    -0.296 N 
ATOM      4  C10 UNL     1      20.242  11.600  34.778  0.00  0.00    +0.110 C 
ATOM      5  C11 UNL     1      19.266  11.764  35.948  0.00  0.00    +0.054 C 
ATOM      6  C12 UNL     1      18.432  10.480  36.230  0.00  0.00    +0.115 C 
ATOM      7  C13 UNL     1      17.896   9.765  34.954  0.00  0.00    +0.054 C 
ATOM      8  C14 UNL     1      18.939   9.680  33.834  0.00  0.00    +0.110 C 
ATOM      9  C15 UNL     1      19.269   9.516  37.011  0.00  0.00    +0.238 C 
ATOM     10  O3  UNL     1      20.340   8.990  36.608  0.00  0.00    -0.273 OA
ATOM     11  N3  UNL     1      18.727   9.250  38.282  0.00  0.00    -0.298 N 
ATOM     12  C16 UNL     1      17.508  10.012  38.434  0.00  0.00    +0.214 C 
ATOM     13  N4  UNL     1      17.327  10.764  37.179  0.00  0.00    -0.300 N 
ATOM     14  H15 UNL     1      19.139   8.612  38.999  0.00  0.00    +0.150 HD
ENDROOT
BRANCH   2  15
ATOM     15  C2  UNL     1      19.685  12.818  31.884  0.00  0.00    +0.103 A 
ATOM     16  C3  UNL     1      18.494  13.349  31.390  0.00  0.00    +0.041 A 
ATOM     17  C4  UNL     1      18.783  14.664  31.104  0.00  0.00    +0.004 A 
ATOM     18  C5  UNL     1      17.979  15.673  30.579  0.00  0.00    +0.010 A 
ATOM     19  C6  UNL     1      18.559  16.939  30.381  0.00  0.00    +0.004 A 
ATOM     20  C7  UNL     1      19.915  17.164  30.707  0.00  0.00    +0.047 A 
ATOM     21  C8  UNL     1      20.705  16.121  31.233  0.00  0.00    +0.141 A 
ATOM     22  C9  UNL     1      20.100  14.877  31.419  0.00  0.00    +0.089 A 
ATOM     23  N1  UNL     1      20.664  13.754  31.895  0.00  0.00    -0.348 N 
ATOM     24  H6  UNL     1      21.654  13.629  32.204  0.00  0.00    +0.166 HD
BRANCH  21  25
ATOM     25  O2  UNL     1      22.045  16.318  31.558  0.00  0.00    -0.505 OA
ATOM     26  H5  UNL     1      22.353  16.361  32.521  0.00  0.00    +0.292 HD
ENDBRANCH  21  25
ENDBRANCH   2  15
BRANCH  13  27
ATOM     27  C17 UNL     1      16.184  11.654  36.984  0.00  0.00    +0.032 A 
ATOM     28  C18 UNL     1      14.880  11.116  36.861  0.00  0.00    +0.026 A 
ATOM     29  C19 UNL     1      13.770  11.945  36.678  0.00  0.00    +0.040 A 
ATOM     30  C20 UNL     1      13.929  13.327  36.612  0.00  0.00    +0.124 A 
ATOM     31  F1  UNL     1      12.850  14.127  36.436  0.00  0.00    -0.205 F 
ATOM     32  C21 UNL     1      15.201  13.883  36.730  0.00  0.00    +0.040 A 
ATOM     33  C22 UNL     1      16.317  13.063  36.913  0.00  0.00    +0.026 A 
ENDBRANCH  13  27
TORSDOF 3
ENDMDL
MODEL 7
REMARK VINA RESULT:    -7.092      5.411      8.688
REMARK INTER + INTRA:          -9.002
REMARK INTER:                  -8.149
REMARK INTRA:                  -0.853
REMARK UNBOUND:                -0.874
REMARK  Name = /home/qwerty/github/datacon2025hack/step_04_hit_selection/docking/ligands/lig_40.pdb
REMARK  3 active torsions:
REMARK  status: ('A' for Active; 'I' for Inactive)
REMARK    1  A    between atoms: C1_2  and  C2_3
REMARK    2  A    between atoms: C8_9  and  O2_10
REMARK    3  A    between atoms: N4_23  and  C17_24
REMARK                            x       y       z     vdW  Elec       q    Type
REMARK                         _______ _______ _______ _____ _____    ______ ____
ROOT
ATOM      1  O1  UNL     1      19.580  11.392  33.818  0.00  0.00    -0.268 OA
ATOM      2  C1  UNL     1      18.746  12.327  33.672  0.00  0.00    +0.263 C 
ATOM      3  N2  UNL     1      17.515  12.304  34.412  0.00  0.00    -0.296 N 
ATOM      4  C10 UNL     1      17.188  13.409  35.317  0.00  0.00    +0.110 C 
ATOM      5  C11 UNL     1      15.689  13.720  35.264  0.00  0.00    +0.054 C 
ATOM      6  C12 UNL     1      14.799  12.447  35.363  0.00  0.00    +0.115 C 
ATOM      7  C13 UNL     1      15.303  11.240  34.518  0.00  0.00    +0.054 C 
ATOM      8  C14 UNL     1      16.818  11.033  34.615  0.00  0.00    +0.110 C 
ATOM      9  C15 UNL     1      14.702  12.029  36.797  0.00  0.00    +0.238 C 
ATOM     10  O3  UNL     1      15.671  11.667  37.516  0.00  0.00    -0.273 OA
ATOM     11  N3  UNL     1      13.382  12.085  37.280  0.00  0.00    -0.298 N 
ATOM     12  C16 UNL     1      12.519  12.542  36.213  0.00  0.00    +0.214 C 
ATOM     13  N4  UNL     1      13.384  12.763  35.041  0.00  0.00    -0.300 N 
ATOM     14  H15 UNL     1      13.076  11.842  38.249  0.00  0.00    +0.150 HD
ENDROOT
BRANCH   2  15
ATOM     15  C2  UNL     1      19.042  13.416  32.723  0.00  0.00    +0.103 A 
ATOM     16  C3  UNL     1      18.093  14.157  32.022  0.00  0.00    +0.041 A 
ATOM     17  C4  UNL     1      18.824  15.021  31.238  0.00  0.00    +0.004 A 
ATOM     18  C5  UNL     1      18.408  15.990  30.328  0.00  0.00    +0.010 A 
ATOM     19  C6  UNL     1      19.398  16.728  29.654  0.00  0.00    +0.004 A 
ATOM     20  C7  UNL     1      20.767  16.481  29.901  0.00  0.00    +0.047 A 
ATOM     21  C8  UNL     1      21.158  15.490  30.827  0.00  0.00    +0.141 A 
ATOM     22  C9  UNL     1      20.151  14.777  31.480  0.00  0.00    +0.089 A 
ATOM     23  N1  UNL     1      20.299  13.794  32.384  0.00  0.00    -0.348 N 
ATOM     24  H6  UNL     1      21.196  13.401  32.746  0.00  0.00    +0.166 HD
BRANCH  21  25
ATOM     25  O2  UNL     1      22.501  15.227  31.084  0.00  0.00    -0.505 OA
ATOM     26  H5  UNL     1      23.131  15.956  31.393  0.00  0.00    +0.292 HD
ENDBRANCH  21  25
ENDBRANCH   2  15
BRANCH  13  27
ATOM     27  C17 UNL     1      12.838  13.238  33.771  0.00  0.00    +0.032 A 
ATOM     28  C18 UNL     1      12.267  12.320  32.858  0.00  0.00    +0.026 A 
ATOM     29  C19 UNL     1      11.734  12.748  31.639  0.00  0.00    +0.040 A 
ATOM     30  C20 UNL     1      11.758  14.098  31.299  0.00  0.00    +0.124 A 
ATOM     31  F1  UNL     1      11.240  14.510  30.116  0.00  0.00    -0.205 F 
ATOM     32  C21 UNL     1      12.315  15.024  32.179  0.00  0.00    +0.040 A 
ATOM     33  C22 UNL     1      12.851  14.605  33.399  0.00  0.00    +0.026 A 
ENDBRANCH  13  27
TORSDOF 3
ENDMDL
MODEL 8
REMARK VINA RESULT:    -7.030     11.173     13.706
REMARK INTER + INTRA:          -8.932
REMARK INTER:                  -8.203
REMARK INTRA:                  -0.729
REMARK UNBOUND:                -0.874
REMARK  Name = /home/qwerty/github/datacon2025hack/step_04_hit_selection/docking/ligands/lig_40.pdb
REMARK  3 active torsions:
REMARK  status: ('A' for Active; 'I' for Inactive)
REMARK    1  A    between atoms: C1_2  and  C2_3
REMARK    2  A    between atoms: C8_9  and  O2_10
REMARK    3  A    between atoms: N4_23  and  C17_24
REMARK                            x       y       z     vdW  Elec       q    Type
REMARK                         _______ _______ _______ _____ _____    ______ ____
ROOT
ATOM      1  O1  UNL     1       9.463   5.694  24.034  0.00  0.00    -0.268 OA
ATOM      2  C1  UNL     1      10.114   5.711  22.955  0.00  0.00    +0.263 C 
ATOM      3  N2  UNL     1      10.857   4.549  22.554  0.00  0.00    -0.296 N 
ATOM      4  C10 UNL     1      10.558   3.899  21.276  0.00  0.00    +0.110 C 
ATOM      5  C11 UNL     1      11.847   3.403  20.611  0.00  0.00    +0.054 C 
ATOM      6  C12 UNL     1      12.778   2.630  21.590  0.00  0.00    +0.115 C 
ATOM      7  C13 UNL     1      12.911   3.276  23.001  0.00  0.00    +0.054 C 
ATOM      8  C14 UNL     1      11.572   3.765  23.562  0.00  0.00    +0.110 C 
ATOM      9  C15 UNL     1      12.272   1.230  21.743  0.00  0.00    +0.238 C 
ATOM     10  O3  UNL     1      11.150   0.910  22.219  0.00  0.00    -0.273 OA
ATOM     11  N3  UNL     1      13.198   0.275  21.284  0.00  0.00    -0.298 N 
ATOM     12  C16 UNL     1      14.370   0.967  20.797  0.00  0.00    +0.214 C 
ATOM     13  N4  UNL     1      14.115   2.406  20.983  0.00  0.00    -0.300 N 
ATOM     14  H15 UNL     1      13.060  -0.760  21.289  0.00  0.00    +0.150 HD
ENDROOT
BRANCH   2  15
ATOM     15  C2  UNL     1      10.121   6.938  22.136  0.00  0.00    +0.103 A 
ATOM     16  C3  UNL     1      11.163   7.351  21.308  0.00  0.00    +0.041 A 
ATOM     17  C4  UNL     1      10.745   8.553  20.783  0.00  0.00    +0.004 A 
ATOM     18  C5  UNL     1      11.378   9.425  19.901  0.00  0.00    +0.010 A 
ATOM     19  C6  UNL     1      10.701  10.604  19.542  0.00  0.00    +0.004 A 
ATOM     20  C7  UNL     1       9.420  10.883  20.069  0.00  0.00    +0.047 A 
ATOM     21  C8  UNL     1       8.806   9.983  20.965  0.00  0.00    +0.141 A 
ATOM     22  C9  UNL     1       9.503   8.820  21.299  0.00  0.00    +0.089 A 
ATOM     23  N1  UNL     1       9.111   7.841  22.132  0.00  0.00    -0.348 N 
ATOM     24  H6  UNL     1       8.216   7.791  22.667  0.00  0.00    +0.166 HD
BRANCH  21  25
ATOM     25  O2  UNL     1       7.546  10.238  21.500  0.00  0.00    -0.505 OA
ATOM     26  H5  UNL     1       6.745  10.410  20.905  0.00  0.00    +0.292 HD
ENDBRANCH  21  25
ENDBRANCH   2  15
BRANCH  13  27
ATOM     27  C17 UNL     1      15.100   3.412  20.590  0.00  0.00    +0.032 A 
ATOM     28  C18 UNL     1      16.421   3.343  21.093  0.00  0.00    +0.026 A 
ATOM     29  C19 UNL     1      17.384   4.289  20.729  0.00  0.00    +0.040 A 
ATOM     30  C20 UNL     1      17.056   5.325  19.858  0.00  0.00    +0.124 A 
ATOM     31  F1  UNL     1      17.992   6.239  19.507  0.00  0.00    -0.205 F 
ATOM     32  C21 UNL     1      15.762   5.417  19.348  0.00  0.00    +0.040 A 
ATOM     33  C22 UNL     1      14.793   4.476  19.707  0.00  0.00    +0.026 A 
ENDBRANCH  13  27
TORSDOF 3
ENDMDL
MODEL 9
REMARK VINA RESULT:    -7.005     11.006     13.429
REMARK INTER + INTRA:          -8.902
REMARK INTER:                  -8.244
REMARK INTRA:                  -0.658
REMARK UNBOUND:                -0.874
REMARK  Name = /home/qwerty/github/datacon2025hack/step_04_hit_selection/docking/ligands/lig_40.pdb
REMARK  3 active torsions:
REMARK  status: ('A' for Active; 'I' for Inactive)
REMARK    1  A    between atoms: C1_2  and  C2_3
REMARK    2  A    between atoms: C8_9  and  O2_10
REMARK    3  A    between atoms: N4_23  and  C17_24
REMARK                            x       y       z     vdW  Elec       q    Type
REMARK                         _______ _______ _______ _____ _____    ______ ____
ROOT
ATOM      1  O1  UNL     1      24.190   5.645  33.706  0.00  0.00    -0.268 OA
ATOM      2  C1  UNL     1      22.933   5.549  33.677  0.00  0.00    +0.263 C 
ATOM      3  N2  UNL     1      22.136   6.376  34.540  0.00  0.00    -0.296 N 
ATOM      4  C10 UNL     1      21.146   7.289  33.964  0.00  0.00    +0.110 C 
ATOM      5  C11 UNL     1      19.890   7.342  34.840  0.00  0.00    +0.054 C 
ATOM      6  C12 UNL     1      20.210   7.518  36.353  0.00  0.00    +0.115 C 
ATOM      7  C13 UNL     1      21.398   6.653  36.867  0.00  0.00    +0.054 C 
ATOM      8  C14 UNL     1      22.591   6.643  35.906  0.00  0.00    +0.110 C 
ATOM      9  C15 UNL     1      20.507   8.960  36.624  0.00  0.00    +0.238 C 
ATOM     10  O3  UNL     1      21.463   9.612  36.127  0.00  0.00    -0.273 OA
ATOM     11  N3  UNL     1      19.581   9.536  37.513  0.00  0.00    -0.298 N 
ATOM     12  C16 UNL     1      18.614   8.530  37.889  0.00  0.00    +0.214 C 
ATOM     13  N4  UNL     1      18.998   7.296  37.180  0.00  0.00    -0.300 N 
ATOM     14  H15 UNL     1      19.588  10.527  37.843  0.00  0.00    +0.150 HD
ENDROOT
BRANCH   2  15
ATOM     15  C2  UNL     1      22.306   4.569  32.772  0.00  0.00    +0.103 A 
ATOM     16  C3  UNL     1      22.040   4.772  31.419  0.00  0.00    +0.041 A 
ATOM     17  C4  UNL     1      21.422   3.615  31.000  0.00  0.00    +0.004 A 
ATOM     18  C5  UNL     1      20.928   3.256  29.748  0.00  0.00    +0.010 A 
ATOM     19  C6  UNL     1      20.328   1.990  29.617  0.00  0.00    +0.004 A 
ATOM     20  C7  UNL     1      20.235   1.124  30.729  0.00  0.00    +0.047 A 
ATOM     21  C8  UNL     1      20.741   1.518  31.985  0.00  0.00    +0.141 A 
ATOM     22  C9  UNL     1      21.332   2.779  32.082  0.00  0.00    +0.089 A 
ATOM     23  N1  UNL     1      21.866   3.352  33.174  0.00  0.00    -0.348 N 
ATOM     24  H6  UNL     1      21.925   2.944  34.134  0.00  0.00    +0.166 HD
BRANCH  21  25
ATOM     25  O2  UNL     1      20.657   0.682  33.096  0.00  0.00    -0.505 OA
ATOM     26  H5  UNL     1      21.486   0.392  33.601  0.00  0.00    +0.292 HD
ENDBRANCH  21  25
ENDBRANCH   2  15
BRANCH  13  27
ATOM     27  C17 UNL     1      18.226   6.063  37.326  0.00  0.00    +0.032 A 
ATOM     28  C18 UNL     1      17.231   5.965  38.329  0.00  0.00    +0.026 A 
ATOM     29  C19 UNL     1      16.476   4.799  38.487  0.00  0.00    +0.040 A 
ATOM     30  C20 UNL     1      16.692   3.705  37.653  0.00  0.00    +0.124 A 
ATOM     31  F1  UNL     1      15.957   2.577  37.809  0.00  0.00    -0.205 F 
ATOM     32  C21 UNL     1      17.665   3.774  36.658  0.00  0.00    +0.040 A 
ATOM     33  C22 UNL     1      18.425   4.935  36.493  0.00  0.00    +0.026 A 
ENDBRANCH  13  27
TORSDOF 3
ENDMDL
