MODEL 1
REMARK VINA RESULT:    -6.872      0.000      0.000
REMARK INTER + INTRA:          -9.027
REMARK INTER:                  -8.479
REMARK INTRA:                  -0.548
REMARK UNBOUND:                -0.548
REMARK  Name = /home/qwerty/github/datacon2025hack/step_04_hit_selection/docking/ligands/lig_460.pdb
REMARK  6 active torsions:
REMARK  status: ('A' for Active; 'I' for Inactive)
REMARK    1  A    between atoms: C1_1  and  C2_2
REMARK    2  A    between atoms: C5_5  and  C6_6
REMARK    3  A    between atoms: C7_7  and  C8_8
REMARK    4  A    between atoms: C8_8  and  N1_9
REMARK    5  A    between atoms: C11_12  and  N2_13
REMARK    6  A    between atoms: C12_14  and  C13_16
REMARK                            x       y       z     vdW  Elec       q    Type
REMARK                         _______ _______ _______ _____ _____    ______ ____
ROOT
ATOM      1  N1  UNL     1      21.716   4.223  24.644  0.00  0.00    -0.296 NA
ATOM      2  C9  UNL     1      22.685   4.483  25.716  0.00  0.00    +0.086 C 
ATOM      3  C10 UNL     1      22.694   3.257  26.618  0.00  0.00    +0.039 C 
ATOM      4  C11 UNL     1      21.437   2.474  26.250  0.00  0.00    +0.088 C 
ATOM      5  C20 UNL     1      20.703   3.351  25.242  0.00  0.00    +0.107 C 
ENDROOT
BRANCH   4   6
ATOM      6  N2  UNL     1      20.604   2.218  27.430  0.00  0.00    -0.307 N 
ATOM      7  C12 UNL     1      20.906   1.186  28.383  0.00  0.00    +0.244 C 
ATOM      8  O1  UNL     1      21.819   0.353  28.131  0.00  0.00    -0.270 OA
ATOM      9  H16 UNL     1      19.698   2.732  27.509  0.00  0.00    +0.149 HD
BRANCH   7  10
ATOM     10  C13 UNL     1      20.146   1.072  29.652  0.00  0.00    +0.037 A 
ATOM     11  C14 UNL     1      20.679   0.301  30.728  0.00  0.00    +0.015 A 
ATOM     12  C15 UNL     1      19.984   0.182  31.946  0.00  0.00    +0.031 A 
ATOM     13  C16 UNL     1      18.767   0.845  32.062  0.00  0.00    +0.093 A 
ATOM     14  N3  UNL     1      17.944   0.874  33.124  0.00  0.00    -0.174 NA
ATOM     15  N4  UNL     1      16.910   1.636  32.774  0.00  0.00    -0.284 N 
ATOM     16  C17 UNL     1      17.063   2.094  31.510  0.00  0.00    +0.113 A 
ATOM     17  C18 UNL     1      18.252   1.592  31.039  0.00  0.00    +0.020 A 
ATOM     18  C19 UNL     1      18.907   1.739  29.821  0.00  0.00    +0.024 A 
ATOM     19  H19 UNL     1      16.101   1.844  33.401  0.00  0.00    +0.188 HD
ENDBRANCH   7  10
ENDBRANCH   4   6
BRANCH   1  20
ATOM     20  C8  UNL     1      21.120   5.461  24.106  0.00  0.00    +0.120 C 
BRANCH  20  27
ATOM     21  C1  UNL     1      24.574   7.634  21.171  0.00  0.00    +0.044 C 
ATOM     22  C2  UNL     1      23.359   6.763  21.307  0.00  0.00    -0.050 A 
ATOM     23  C3  UNL     1      22.733   6.239  20.170  0.00  0.00    +0.003 A 
ATOM     24  C4  UNL     1      21.588   5.449  20.297  0.00  0.00    +0.004 A 
ATOM     25  C5  UNL     1      21.043   5.175  21.563  0.00  0.00    -0.046 A 
ATOM     26  C6  UNL     1      19.801   4.325  21.660  0.00  0.00    +0.044 C 
ATOM     27  C7  UNL     1      21.650   5.734  22.716  0.00  0.00    -0.030 A 
ATOM     28  C21 UNL     1      22.808   6.520  22.573  0.00  0.00    +0.008 A 
ENDBRANCH  20  27
ENDBRANCH   1  20
TORSDOF 4
ENDMDL
MODEL 2
REMARK VINA RESULT:    -6.777      4.804      6.739
REMARK INTER + INTRA:          -8.910
REMARK INTER:                  -8.300
REMARK INTRA:                  -0.609
REMARK UNBOUND:                -0.548
REMARK  Name = /home/qwerty/github/datacon2025hack/step_04_hit_selection/docking/ligands/lig_460.pdb
REMARK  6 active torsions:
REMARK  status: ('A' for Active; 'I' for Inactive)
REMARK    1  A    between atoms: C1_1  and  C2_2
REMARK    2  A    between atoms: C5_5  and  C6_6
REMARK    3  A    between atoms: C7_7  and  C8_8
REMARK    4  A    between atoms: C8_8  and  N1_9
REMARK    5  A    between atoms: C11_12  and  N2_13
REMARK    6  A    between atoms: C12_14  and  C13_16
REMARK                            x       y       z     vdW  Elec       q    Type
REMARK                         _______ _______ _______ _____ _____    ______ ____
ROOT
ATOM      1  N1  UNL     1      21.130   1.587  28.976  0.00  0.00    -0.296 NA
ATOM      2  C9  UNL     1      21.713   0.772  30.050  0.00  0.00    +0.086 C 
ATOM      3  C10 UNL     1      21.045   1.200  31.349  0.00  0.00    +0.039 C 
ATOM      4  C11 UNL     1      20.362   2.529  31.036  0.00  0.00    +0.088 C 
ATOM      5  C20 UNL     1      20.776   2.861  29.607  0.00  0.00    +0.107 C 
ENDROOT
BRANCH   4   6
ATOM      6  N2  UNL     1      20.790   3.580  31.966  0.00  0.00    -0.307 N 
ATOM      7  C12 UNL     1      19.993   3.997  33.085  0.00  0.00    +0.244 C 
ATOM      8  O1  UNL     1      18.809   3.575  33.198  0.00  0.00    -0.270 OA
ATOM      9  H16 UNL     1      21.654   4.118  31.730  0.00  0.00    +0.149 HD
BRANCH   7  10
ATOM     10  C13 UNL     1      20.533   4.932  34.102  0.00  0.00    +0.037 A 
ATOM     11  C14 UNL     1      19.642   5.588  35.004  0.00  0.00    +0.015 A 
ATOM     12  C15 UNL     1      20.126   6.473  35.984  0.00  0.00    +0.031 A 
ATOM     13  C16 UNL     1      21.501   6.681  36.043  0.00  0.00    +0.093 A 
ATOM     14  N3  UNL     1      22.177   7.473  36.892  0.00  0.00    -0.174 NA
ATOM     15  N4  UNL     1      23.464   7.346  36.576  0.00  0.00    -0.284 N 
ATOM     16  C17 UNL     1      23.617   6.487  35.542  0.00  0.00    +0.113 A 
ATOM     17  C18 UNL     1      22.363   6.052  35.188  0.00  0.00    +0.020 A 
ATOM     18  C19 UNL     1      21.927   5.167  34.207  0.00  0.00    +0.024 A 
ATOM     19  H19 UNL     1      24.237   7.847  37.068  0.00  0.00    +0.188 HD
ENDBRANCH   7  10
ENDBRANCH   4   6
BRANCH   1  20
ATOM     20  C8  UNL     1      22.056   1.779  27.844  0.00  0.00    +0.120 C 
BRANCH  20  27
ATOM     21  C1  UNL     1      18.477  -0.410  25.075  0.00  0.00    +0.044 C 
ATOM     22  C2  UNL     1      19.534   0.647  25.218  0.00  0.00    -0.050 A 
ATOM     23  C3  UNL     1      19.817   1.513  24.154  0.00  0.00    +0.003 A 
ATOM     24  C4  UNL     1      20.817   2.479  24.280  0.00  0.00    +0.004 A 
ATOM     25  C5  UNL     1      21.559   2.593  25.468  0.00  0.00    -0.046 A 
ATOM     26  C6  UNL     1      22.636   3.644  25.563  0.00  0.00    +0.044 C 
ATOM     27  C7  UNL     1      21.303   1.695  26.535  0.00  0.00    -0.030 A 
ATOM     28  C21 UNL     1      20.286   0.732  26.397  0.00  0.00    +0.008 A 
ENDBRANCH  20  27
ENDBRANCH   1  20
TORSDOF 4
ENDMDL
MODEL 3
REMARK VINA RESULT:    -6.665      3.966      5.273
REMARK INTER + INTRA:          -8.772
REMARK INTER:                  -8.257
REMARK INTRA:                  -0.515
REMARK UNBOUND:                -0.548
REMARK  Name = /home/qwerty/github/datacon2025hack/step_04_hit_selection/docking/ligands/lig_460.pdb
REMARK  6 active torsions:
REMARK  status: ('A' for Active; 'I' for Inactive)
REMARK    1  A    between atoms: C1_1  and  C2_2
REMARK    2  A    between atoms: C5_5  and  C6_6
REMARK    3  A    between atoms: C7_7  and  C8_8
REMARK    4  A    between atoms: C8_8  and  N1_9
REMARK    5  A    between atoms: C11_12  and  N2_13
REMARK    6  A    between atoms: C12_14  and  C13_16
REMARK                            x       y       z     vdW  Elec       q    Type
REMARK                         _______ _______ _______ _____ _____    ______ ____
ROOT
ATOM      1  N1  UNL     1      18.214   1.061  24.339  0.00  0.00    -0.296 NA
ATOM      2  C9  UNL     1      18.755   2.415  24.516  0.00  0.00    +0.086 C 
ATOM      3  C10 UNL     1      19.939   2.302  25.466  0.00  0.00    +0.039 C 
ATOM      4  C11 UNL     1      19.809   0.927  26.116  0.00  0.00    +0.088 C 
ATOM      5  C20 UNL     1      18.488   0.368  25.600  0.00  0.00    +0.107 C 
ENDROOT
BRANCH   4   6
ATOM      6  N2  UNL     1      19.802   1.029  27.580  0.00  0.00    -0.307 N 
ATOM      7  C12 UNL     1      21.007   1.055  28.361  0.00  0.00    +0.244 C 
ATOM      8  O1  UNL     1      22.115   0.819  27.805  0.00  0.00    -0.270 OA
ATOM      9  H16 UNL     1      18.882   0.961  28.069  0.00  0.00    +0.149 HD
BRANCH   7  10
ATOM     10  C13 UNL     1      20.968   1.336  29.817  0.00  0.00    +0.037 A 
ATOM     11  C14 UNL     1      20.061   0.618  30.652  0.00  0.00    +0.015 A 
ATOM     12  C15 UNL     1      20.009   0.858  32.038  0.00  0.00    +0.031 A 
ATOM     13  C16 UNL     1      20.875   1.812  32.560  0.00  0.00    +0.093 A 
ATOM     14  N3  UNL     1      20.999   2.197  33.842  0.00  0.00    -0.174 NA
ATOM     15  N4  UNL     1      21.952   3.126  33.863  0.00  0.00    -0.284 N 
ATOM     16  C17 UNL     1      22.437   3.337  32.617  0.00  0.00    +0.113 A 
ATOM     17  C18 UNL     1      21.753   2.500  31.769  0.00  0.00    +0.020 A 
ATOM     18  C19 UNL     1      21.840   2.292  30.396  0.00  0.00    +0.024 A 
ATOM     19  H19 UNL     1      22.271   3.614  34.728  0.00  0.00    +0.188 HD
ENDBRANCH   7  10
ENDBRANCH   4   6
BRANCH   1  20
ATOM     20  C8  UNL     1      16.773   1.063  24.022  0.00  0.00    +0.120 C 
BRANCH  20  27
ATOM     21  C1  UNL     1      16.039   3.270  19.566  0.00  0.00    +0.044 C 
ATOM     22  C2  UNL     1      16.251   2.019  20.367  0.00  0.00    -0.050 A 
ATOM     23  C3  UNL     1      16.240   0.766  19.741  0.00  0.00    +0.003 A 
ATOM     24  C4  UNL     1      16.413  -0.398  20.491  0.00  0.00    +0.004 A 
ATOM     25  C5  UNL     1      16.593  -0.334  21.884  0.00  0.00    -0.046 A 
ATOM     26  C6  UNL     1      16.769  -1.614  22.662  0.00  0.00    +0.044 C 
ATOM     27  C7  UNL     1      16.568   0.928  22.529  0.00  0.00    -0.030 A 
ATOM     28  C21 UNL     1      16.401   2.093  21.759  0.00  0.00    +0.008 A 
ENDBRANCH  20  27
ENDBRANCH   1  20
TORSDOF 4
ENDMDL
MODEL 4
REMARK VINA RESULT:    -6.653     10.854     14.028
REMARK INTER + INTRA:          -8.757
REMARK INTER:                  -8.173
REMARK INTRA:                  -0.584
REMARK UNBOUND:                -0.548
REMARK  Name = /home/qwerty/github/datacon2025hack/step_04_hit_selection/docking/ligands/lig_460.pdb
REMARK  6 active torsions:
REMARK  status: ('A' for Active; 'I' for Inactive)
REMARK    1  A    between atoms: C1_1  and  C2_2
REMARK    2  A    between atoms: C5_5  and  C6_6
REMARK    3  A    between atoms: C7_7  and  C8_8
REMARK    4  A    between atoms: C8_8  and  N1_9
REMARK    5  A    between atoms: C11_12  and  N2_13
REMARK    6  A    between atoms: C12_14  and  C13_16
REMARK                            x       y       z     vdW  Elec       q    Type
REMARK                         _______ _______ _______ _____ _____    ______ ____
ROOT
ATOM      1  N1  UNL     1      18.924   9.575  36.469  0.00  0.00    -0.296 NA
ATOM      2  C9  UNL     1      18.600   9.852  37.875  0.00  0.00    +0.086 C 
ATOM      3  C10 UNL     1      17.108   9.600  38.048  0.00  0.00    +0.039 C 
ATOM      4  C11 UNL     1      16.538   9.553  36.633  0.00  0.00    +0.088 C 
ATOM      5  C20 UNL     1      17.708   9.904  35.721  0.00  0.00    +0.107 C 
ENDROOT
BRANCH   4   6
ATOM      6  N2  UNL     1      15.438  10.511  36.470  0.00  0.00    -0.307 N 
ATOM      7  C12 UNL     1      14.096  10.105  36.161  0.00  0.00    +0.244 C 
ATOM      8  O1  UNL     1      13.864   8.904  35.851  0.00  0.00    -0.270 OA
ATOM      9  H16 UNL     1      15.674  11.529  36.467  0.00  0.00    +0.149 HD
BRANCH   7  10
ATOM     10  C13 UNL     1      12.979  11.080  36.179  0.00  0.00    +0.037 A 
ATOM     11  C14 UNL     1      11.999  11.015  37.215  0.00  0.00    +0.015 A 
ATOM     12  C15 UNL     1      10.934  11.933  37.262  0.00  0.00    +0.031 A 
ATOM     13  C16 UNL     1      10.874  12.904  36.268  0.00  0.00    +0.093 A 
ATOM     14  N3  UNL     1       9.956  13.875  36.120  0.00  0.00    -0.174 NA
ATOM     15  N4  UNL     1      10.311  14.562  35.037  0.00  0.00    -0.284 N 
ATOM     16  C17 UNL     1      11.439  14.046  34.495  0.00  0.00    +0.113 A 
ATOM     17  C18 UNL     1      11.812  12.979  35.275  0.00  0.00    +0.020 A 
ATOM     18  C19 UNL     1      12.882  12.095  35.193  0.00  0.00    +0.024 A 
ATOM     19  H19 UNL     1       9.782  15.383  34.669  0.00  0.00    +0.188 HD
ENDBRANCH   7  10
ENDBRANCH   4   6
BRANCH   1  20
ATOM     20  C8  UNL     1      20.084  10.352  35.991  0.00  0.00    +0.120 C 
BRANCH  20  27
ATOM     21  C1  UNL     1      23.363   6.637  36.838  0.00  0.00    +0.044 C 
ATOM     22  C2  UNL     1      22.710   7.589  35.878  0.00  0.00    -0.050 A 
ATOM     23  C3  UNL     1      23.099   7.616  34.533  0.00  0.00    +0.003 A 
ATOM     24  C4  UNL     1      22.507   8.518  33.647  0.00  0.00    +0.004 A 
ATOM     25  C5  UNL     1      21.521   9.417  34.090  0.00  0.00    -0.046 A 
ATOM     26  C6  UNL     1      20.911  10.382  33.105  0.00  0.00    +0.044 C 
ATOM     27  C7  UNL     1      21.150   9.421  35.458  0.00  0.00    -0.030 A 
ATOM     28  C21 UNL     1      21.748   8.499  36.337  0.00  0.00    +0.008 A 
ENDBRANCH  20  27
ENDBRANCH   1  20
TORSDOF 4
ENDMDL
MODEL 5
REMARK VINA RESULT:    -6.652      3.089     11.272
REMARK INTER + INTRA:          -8.755
REMARK INTER:                  -8.294
REMARK INTRA:                  -0.461
REMARK UNBOUND:                -0.548
REMARK  Name = /home/qwerty/github/datacon2025hack/step_04_hit_selection/docking/ligands/lig_460.pdb
REMARK  6 active torsions:
REMARK  status: ('A' for Active; 'I' for Inactive)
REMARK    1  A    between atoms: C1_1  and  C2_2
REMARK    2  A    between atoms: C5_5  and  C6_6
REMARK    3  A    between atoms: C7_7  and  C8_8
REMARK    4  A    between atoms: C8_8  and  N1_9
REMARK    5  A    between atoms: C11_12  and  N2_13
REMARK    6  A    between atoms: C12_14  and  C13_16
REMARK                            x       y       z     vdW  Elec       q    Type
REMARK                         _______ _______ _______ _____ _____    ______ ____
ROOT
ATOM      1  N1  UNL     1      18.867   1.146  33.389  0.00  0.00    -0.296 NA
ATOM      2  C9  UNL     1      18.971  -0.112  32.639  0.00  0.00    +0.086 C 
ATOM      3  C10 UNL     1      20.159   0.026  31.697  0.00  0.00    +0.039 C 
ATOM      4  C11 UNL     1      20.476   1.518  31.660  0.00  0.00    +0.088 C 
ATOM      5  C20 UNL     1      19.377   2.178  32.484  0.00  0.00    +0.107 C 
ENDROOT
BRANCH   4   6
ATOM      6  N2  UNL     1      20.481   2.027  30.284  0.00  0.00    -0.307 N 
ATOM      7  C12 UNL     1      21.607   1.877  29.406  0.00  0.00    +0.244 C 
ATOM      8  O1  UNL     1      22.700   1.441  29.862  0.00  0.00    -0.270 OA
ATOM      9  H16 UNL     1      19.677   2.621  29.981  0.00  0.00    +0.149 HD
BRANCH   7  10
ATOM     10  C13 UNL     1      21.513   2.245  27.972  0.00  0.00    +0.037 A 
ATOM     11  C14 UNL     1      20.741   1.437  27.084  0.00  0.00    +0.015 A 
ATOM     12  C15 UNL     1      20.626   1.767  25.721  0.00  0.00    +0.031 A 
ATOM     13  C16 UNL     1      21.287   2.907  25.275  0.00  0.00    +0.093 A 
ATOM     14  N3  UNL     1      21.313   3.408  24.028  0.00  0.00    -0.174 NA
ATOM     15  N4  UNL     1      22.064   4.506  24.083  0.00  0.00    -0.284 N 
ATOM     16  C17 UNL     1      22.514   4.712  25.343  0.00  0.00    +0.113 A 
ATOM     17  C18 UNL     1      22.024   3.691  26.120  0.00  0.00    +0.020 A 
ATOM     18  C19 UNL     1      22.160   3.403  27.474  0.00  0.00    +0.024 A 
ATOM     19  H19 UNL     1      22.268   5.114  23.259  0.00  0.00    +0.188 HD
ENDBRANCH   7  10
ENDBRANCH   4   6
BRANCH   1  20
ATOM     20  C8  UNL     1      17.486   1.435  33.822  0.00  0.00    +0.120 C 
BRANCH  20  27
ATOM     21  C1  UNL     1      15.817  -2.323  36.713  0.00  0.00    +0.044 C 
ATOM     22  C2  UNL     1      16.467  -0.975  36.596  0.00  0.00    -0.050 A 
ATOM     23  C3  UNL     1      16.821  -0.258  37.746  0.00  0.00    +0.003 A 
ATOM     24  C4  UNL     1      17.404   1.006  37.635  0.00  0.00    +0.004 A 
ATOM     25  C5  UNL     1      17.637   1.581  36.374  0.00  0.00    -0.046 A 
ATOM     26  C6  UNL     1      18.260   2.952  36.295  0.00  0.00    +0.044 C 
ATOM     27  C7  UNL     1      17.246   0.877  35.207  0.00  0.00    -0.030 A 
ATOM     28  C21 UNL     1      16.669  -0.400  35.334  0.00  0.00    +0.008 A 
ENDBRANCH  20  27
ENDBRANCH   1  20
TORSDOF 4
ENDMDL
MODEL 6
REMARK VINA RESULT:    -6.607     10.986     13.785
REMARK INTER + INTRA:          -8.700
REMARK INTER:                  -8.370
REMARK INTRA:                  -0.330
REMARK UNBOUND:                -0.548
REMARK  Name = /home/qwerty/github/datacon2025hack/step_04_hit_selection/docking/ligands/lig_460.pdb
REMARK  6 active torsions:
REMARK  status: ('A' for Active; 'I' for Inactive)
REMARK    1  A    between atoms: C1_1  and  C2_2
REMARK    2  A    between atoms: C5_5  and  C6_6
REMARK    3  A    between atoms: C7_7  and  C8_8
REMARK    4  A    between atoms: C8_8  and  N1_9
REMARK    5  A    between atoms: C11_12  and  N2_13
REMARK    6  A    between atoms: C12_14  and  C13_16
REMARK                            x       y       z     vdW  Elec       q    Type
REMARK                         _______ _______ _______ _____ _____    ______ ____
ROOT
ATOM      1  N1  UNL     1      17.468  12.179  35.929  0.00  0.00    -0.296 NA
ATOM      2  C9  UNL     1      16.981  10.817  35.673  0.00  0.00    +0.086 C 
ATOM      3  C10 UNL     1      17.895   9.866  36.433  0.00  0.00    +0.039 C 
ATOM      4  C11 UNL     1      19.125  10.691  36.800  0.00  0.00    +0.088 C 
ATOM      5  C20 UNL     1      18.913  12.041  36.126  0.00  0.00    +0.107 C 
ENDROOT
BRANCH   4   6
ATOM      6  N2  UNL     1      20.357  10.052  36.324  0.00  0.00    -0.307 N 
ATOM      7  C12 UNL     1      20.738   8.721  36.706  0.00  0.00    +0.244 C 
ATOM      8  O1  UNL     1      20.091   8.124  37.611  0.00  0.00    -0.270 OA
ATOM      9  H16 UNL     1      21.032  10.637  35.782  0.00  0.00    +0.149 HD
BRANCH   7  10
ATOM     10  C13 UNL     1      21.893   8.044  36.069  0.00  0.00    +0.037 A 
ATOM     11  C14 UNL     1      22.451   6.877  36.672  0.00  0.00    +0.015 A 
ATOM     12  C15 UNL     1      23.541   6.209  36.086  0.00  0.00    +0.031 A 
ATOM     13  C16 UNL     1      24.050   6.724  34.898  0.00  0.00    +0.093 A 
ATOM     14  N3  UNL     1      25.075   6.251  34.168  0.00  0.00    -0.174 NA
ATOM     15  N4  UNL     1      25.192   7.063  33.119  0.00  0.00    -0.284 N 
ATOM     16  C17 UNL     1      24.259   8.042  33.169  0.00  0.00    +0.113 A 
ATOM     17  C18 UNL     1      23.518   7.838  34.308  0.00  0.00    +0.020 A 
ATOM     18  C19 UNL     1      22.439   8.526  34.852  0.00  0.00    +0.024 A 
ATOM     19  H19 UNL     1      25.909   6.946  32.370  0.00  0.00    +0.188 HD
ENDBRANCH   7  10
ENDBRANCH   4   6
BRANCH   1  20
ATOM     20  C8  UNL     1      17.155  13.109  34.827  0.00  0.00    +0.120 C 
BRANCH  20  27
ATOM     21  C1  UNL     1      15.150  16.982  37.327  0.00  0.00    +0.044 C 
ATOM     22  C2  UNL     1      14.985  15.843  36.362  0.00  0.00    -0.050 A 
ATOM     23  C3  UNL     1      13.728  15.553  35.817  0.00  0.00    +0.003 A 
ATOM     24  C4  UNL     1      13.572  14.479  34.939  0.00  0.00    +0.004 A 
ATOM     25  C5  UNL     1      14.668  13.669  34.594  0.00  0.00    -0.046 A 
ATOM     26  C6  UNL     1      14.459  12.513  33.649  0.00  0.00    +0.044 C 
ATOM     27  C7  UNL     1      15.935  13.934  35.172  0.00  0.00    -0.030 A 
ATOM     28  C21 UNL     1      16.080  15.025  36.048  0.00  0.00    +0.008 A 
ENDBRANCH  20  27
ENDBRANCH   1  20
TORSDOF 4
ENDMDL
MODEL 7
REMARK VINA RESULT:    -6.535     13.508     15.059
REMARK INTER + INTRA:          -8.611
REMARK INTER:                  -8.042
REMARK INTRA:                  -0.570
REMARK UNBOUND:                -0.548
REMARK  Name = /home/qwerty/github/datacon2025hack/step_04_hit_selection/docking/ligands/lig_460.pdb
REMARK  6 active torsions:
REMARK  status: ('A' for Active; 'I' for Inactive)
REMARK    1  A    between atoms: C1_1  and  C2_2
REMARK    2  A    between atoms: C5_5  and  C6_6
REMARK    3  A    between atoms: C7_7  and  C8_8
REMARK    4  A    between atoms: C8_8  and  N1_9
REMARK    5  A    between atoms: C11_12  and  N2_13
REMARK    6  A    between atoms: C12_14  and  C13_16
REMARK                            x       y       z     vdW  Elec       q    Type
REMARK                         _______ _______ _______ _____ _____    ______ ____
ROOT
ATOM      1  N1  UNL     1       9.744  12.100  28.151  0.00  0.00    -0.296 NA
ATOM      2  C9  UNL     1       8.281  12.008  28.065  0.00  0.00    +0.086 C 
ATOM      3  C10 UNL     1       7.939  10.546  27.817  0.00  0.00    +0.039 C 
ATOM      4  C11 UNL     1       9.247   9.891  27.383  0.00  0.00    +0.088 C 
ATOM      5  C20 UNL     1      10.250  11.034  27.282  0.00  0.00    +0.107 C 
ENDROOT
BRANCH   4   6
ATOM      6  N2  UNL     1       9.098   9.207  26.093  0.00  0.00    -0.307 N 
ATOM      7  C12 UNL     1       8.996   7.779  25.980  0.00  0.00    +0.244 C 
ATOM      8  O1  UNL     1       9.204   7.057  26.994  0.00  0.00    -0.270 OA
ATOM      9  H16 UNL     1       9.187   9.779  25.224  0.00  0.00    +0.149 HD
BRANCH   7  10
ATOM     10  C13 UNL     1       8.669   7.136  24.684  0.00  0.00    +0.037 A 
ATOM     11  C14 UNL     1       8.734   7.898  23.480  0.00  0.00    +0.015 A 
ATOM     12  C15 UNL     1       8.438   7.312  22.235  0.00  0.00    +0.031 A 
ATOM     13  C16 UNL     1       8.085   5.966  22.224  0.00  0.00    +0.093 A 
ATOM     14  N3  UNL     1       7.768   5.208  21.160  0.00  0.00    -0.174 NA
ATOM     15  N4  UNL     1       7.508   3.991  21.633  0.00  0.00    -0.284 N 
ATOM     16  C17 UNL     1       7.657   3.963  22.978  0.00  0.00    +0.113 A 
ATOM     17  C18 UNL     1       8.026   5.226  23.372  0.00  0.00    +0.020 A 
ATOM     18  C19 UNL     1       8.314   5.764  24.622  0.00  0.00    +0.024 A 
ATOM     19  H19 UNL     1       7.231   3.181  21.036  0.00  0.00    +0.188 HD
ENDBRANCH   7  10
ENDBRANCH   4   6
BRANCH   1  20
ATOM     20  C8  UNL     1      10.254  13.423  27.743  0.00  0.00    +0.120 C 
BRANCH  20  27
ATOM     21  C1  UNL     1      11.352  13.976  32.617  0.00  0.00    +0.044 C 
ATOM     22  C2  UNL     1      11.715  14.203  31.178  0.00  0.00    -0.050 A 
ATOM     23  C3  UNL     1      12.868  14.925  30.844  0.00  0.00    +0.003 A 
ATOM     24  C4  UNL     1      13.191  15.155  29.505  0.00  0.00    +0.004 A 
ATOM     25  C5  UNL     1      12.364  14.676  28.474  0.00  0.00    -0.046 A 
ATOM     26  C6  UNL     1      12.741  14.952  27.041  0.00  0.00    +0.044 C 
ATOM     27  C7  UNL     1      11.175  13.978  28.807  0.00  0.00    -0.030 A 
ATOM     28  C21 UNL     1      10.868  13.745  30.160  0.00  0.00    +0.008 A 
ENDBRANCH  20  27
ENDBRANCH   1  20
TORSDOF 4
ENDMDL
MODEL 8
REMARK VINA RESULT:    -6.519     10.875     13.507
REMARK INTER + INTRA:          -8.591
REMARK INTER:                  -8.039
REMARK INTRA:                  -0.552
REMARK UNBOUND:                -0.548
REMARK  Name = /home/qwerty/github/datacon2025hack/step_04_hit_selection/docking/ligands/lig_460.pdb
REMARK  6 active torsions:
REMARK  status: ('A' for Active; 'I' for Inactive)
REMARK    1  A    between atoms: C1_1  and  C2_2
REMARK    2  A    between atoms: C5_5  and  C6_6
REMARK    3  A    between atoms: C7_7  and  C8_8
REMARK    4  A    between atoms: C8_8  and  N1_9
REMARK    5  A    between atoms: C11_12  and  N2_13
REMARK    6  A    between atoms: C12_14  and  C13_16
REMARK                            x       y       z     vdW  Elec       q    Type
REMARK                         _______ _______ _______ _____ _____    ______ ____
ROOT
ATOM      1  N1  UNL     1      20.541  10.468  35.234  0.00  0.00    -0.296 NA
ATOM      2  C9  UNL     1      20.661  11.914  35.463  0.00  0.00    +0.086 C 
ATOM      3  C10 UNL     1      19.561  12.305  36.440  0.00  0.00    +0.039 C 
ATOM      4  C11 UNL     1      18.590  11.127  36.450  0.00  0.00    +0.088 C 
ATOM      5  C20 UNL     1      19.114  10.171  35.386  0.00  0.00    +0.107 C 
ENDROOT
BRANCH   4   6
ATOM      6  N2  UNL     1      17.223  11.561  36.141  0.00  0.00    -0.307 N 
ATOM      7  C12 UNL     1      16.077  11.089  36.866  0.00  0.00    +0.244 C 
ATOM      8  O1  UNL     1      16.208  10.144  37.693  0.00  0.00    -0.270 OA
ATOM      9  H16 UNL     1      17.078  12.144  35.287  0.00  0.00    +0.149 HD
BRANCH   7  10
ATOM     10  C13 UNL     1      14.735  11.681  36.645  0.00  0.00    +0.037 A 
ATOM     11  C14 UNL     1      13.572  10.989  37.099  0.00  0.00    +0.015 A 
ATOM     12  C15 UNL     1      12.288  11.531  36.910  0.00  0.00    +0.031 A 
ATOM     13  C16 UNL     1      12.195  12.763  36.271  0.00  0.00    +0.093 A 
ATOM     14  N3  UNL     1      11.082  13.462  35.991  0.00  0.00    -0.174 NA
ATOM     15  N4  UNL     1      11.484  14.576  35.382  0.00  0.00    -0.284 N 
ATOM     16  C17 UNL     1      12.833  14.597  35.272  0.00  0.00    +0.113 A 
ATOM     17  C18 UNL     1      13.304  13.437  35.838  0.00  0.00    +0.020 A 
ATOM     18  C19 UNL     1      14.591  12.939  36.008  0.00  0.00    +0.024 A 
ATOM     19  H19 UNL     1      10.836  15.321  35.043  0.00  0.00    +0.188 HD
ENDBRANCH   7  10
ENDBRANCH   4   6
BRANCH   1  20
ATOM     20  C8  UNL     1      21.044  10.060  33.908  0.00  0.00    +0.120 C 
BRANCH  20  27
ATOM     21  C1  UNL     1      23.270   6.541  36.723  0.00  0.00    +0.044 C 
ATOM     22  C2  UNL     1      23.182   7.292  35.426  0.00  0.00    -0.050 A 
ATOM     23  C3  UNL     1      24.104   7.045  34.401  0.00  0.00    +0.003 A 
ATOM     24  C4  UNL     1      24.035   7.761  33.204  0.00  0.00    +0.004 A 
ATOM     25  C5  UNL     1      23.049   8.745  33.013  0.00  0.00    -0.046 A 
ATOM     26  C6  UNL     1      23.013   9.504  31.710  0.00  0.00    +0.044 C 
ATOM     27  C7  UNL     1      22.137   9.026  34.061  0.00  0.00    -0.030 A 
ATOM     28  C21 UNL     1      22.213   8.290  35.257  0.00  0.00    +0.008 A 
ENDBRANCH  20  27
ENDBRANCH   1  20
TORSDOF 4
ENDMDL
MODEL 9
REMARK VINA RESULT:    -6.479     10.865     14.303
REMARK INTER + INTRA:          -8.542
REMARK INTER:                  -7.938
REMARK INTRA:                  -0.604
REMARK UNBOUND:                -0.548
REMARK  Name = /home/qwerty/github/datacon2025hack/step_04_hit_selection/docking/ligands/lig_460.pdb
REMARK  6 active torsions:
REMARK  status: ('A' for Active; 'I' for Inactive)
REMARK    1  A    between atoms: C1_1  and  C2_2
REMARK    2  A    between atoms: C5_5  and  C6_6
REMARK    3  A    between atoms: C7_7  and  C8_8
REMARK    4  A    between atoms: C8_8  and  N1_9
REMARK    5  A    between atoms: C11_12  and  N2_13
REMARK    6  A    between atoms: C12_14  and  C13_16
REMARK                            x       y       z     vdW  Elec       q    Type
REMARK                         _______ _______ _______ _____ _____    ______ ____
ROOT
ATOM      1  N1  UNL     1      15.047  11.709  35.714  0.00  0.00    -0.296 NA
ATOM      2  C9  UNL     1      15.450  11.745  37.126  0.00  0.00    +0.086 C 
ATOM      3  C10 UNL     1      16.972  11.792  37.155  0.00  0.00    +0.039 C 
ATOM      4  C11 UNL     1      17.417  11.393  35.751  0.00  0.00    +0.088 C 
ATOM      5  C20 UNL     1      16.134  11.015  35.019  0.00  0.00    +0.107 C 
ENDROOT
BRANCH   4   6
ATOM      6  N2  UNL     1      18.353  10.263  35.790  0.00  0.00    -0.307 N 
ATOM      7  C12 UNL     1      19.778  10.438  35.801  0.00  0.00    +0.244 C 
ATOM      8  O1  UNL     1      20.267  11.584  35.606  0.00  0.00    -0.270 OA
ATOM      9  H16 UNL     1      17.960   9.301  35.688  0.00  0.00    +0.149 HD
BRANCH   7  10
ATOM     10  C13 UNL     1      20.687   9.286  36.019  0.00  0.00    +0.037 A 
ATOM     11  C14 UNL     1      20.563   8.501  37.204  0.00  0.00    +0.015 A 
ATOM     12  C15 UNL     1      21.406   7.398  37.434  0.00  0.00    +0.031 A 
ATOM     13  C16 UNL     1      22.357   7.101  36.464  0.00  0.00    +0.093 A 
ATOM     14  N3  UNL     1      23.256   6.101  36.472  0.00  0.00    -0.174 NA
ATOM     15  N4  UNL     1      23.946   6.210  35.338  0.00  0.00    -0.284 N 
ATOM     16  C17 UNL     1      23.500   7.260  34.610  0.00  0.00    +0.113 A 
ATOM     17  C18 UNL     1      22.480   7.843  35.321  0.00  0.00    +0.020 A 
ATOM     18  C19 UNL     1      21.665   8.938  35.054  0.00  0.00    +0.024 A 
ATOM     19  H19 UNL     1      24.720   5.566  35.063  0.00  0.00    +0.188 HD
ENDBRANCH   7  10
ENDBRANCH   4   6
BRANCH   1  20
ATOM     20  C8  UNL     1      13.751  11.032  35.511  0.00  0.00    +0.120 C 
BRANCH  20  27
ATOM     21  C1  UNL     1      11.640  14.728  32.839  0.00  0.00    +0.044 C 
ATOM     22  C2  UNL     1      11.611  13.821  34.035  0.00  0.00    -0.050 A 
ATOM     23  C3  UNL     1      10.594  13.940  34.990  0.00  0.00    +0.003 A 
ATOM     24  C4  UNL     1      10.582  13.111  36.113  0.00  0.00    +0.004 A 
ATOM     25  C5  UNL     1      11.593  12.153  36.309  0.00  0.00    -0.046 A 
ATOM     26  C6  UNL     1      11.551  11.282  37.539  0.00  0.00    +0.044 C 
ATOM     27  C7  UNL     1      12.646  12.054  35.365  0.00  0.00    -0.030 A 
ATOM     28  C21 UNL     1      12.639  12.889  34.233  0.00  0.00    +0.008 A 
ENDBRANCH  20  27
ENDBRANCH   1  20
TORSDOF 4
ENDMDL
