MODEL 1
REMARK VINA RESULT:    -6.563      0.000      0.000
REMARK INTER + INTRA:          -8.872
REMARK INTER:                  -8.098
REMARK INTRA:                  -0.774
REMARK UNBOUND:                -0.774
REMARK  Name = /home/qwerty/github/datacon2025hack/step_04_hit_selection/docking/ligands/lig_690.pdb
REMARK  6 active torsions:
REMARK  status: ('A' for Active; 'I' for Inactive)
REMARK    1  A    between atoms: C1_1  and  C2_2
REMARK    2  A    between atoms: C2_2  and  C3_3
REMARK    3  A    between atoms: C2_2  and  C4_4
REMARK    4  A    between atoms: C9_11  and  C10_12
REMARK    5  A    between atoms: N4_15  and  C12_16
REMARK    6  A    between atoms: C12_16  and  C13_17
REMARK                            x       y       z     vdW  Elec       q    Type
REMARK                         _______ _______ _______ _____ _____    ______ ____
ROOT
ATOM      1  C4  UNL     1       8.293  12.015  28.363  0.00  0.00    -0.044 A 
ATOM      2  C5  UNL     1       8.102  11.435  29.629  0.00  0.00    +0.006 A 
ATOM      3  C6  UNL     1       7.795  10.080  29.750  0.00  0.00    +0.029 A 
ATOM      4  C7  UNL     1       7.691   9.277  28.611  0.00  0.00    +0.075 A 
ATOM      5  N1  UNL     1       7.349   7.970  28.741  0.00  0.00    -0.235 NA
ATOM      6  C8  UNL     1       7.218   7.170  27.654  0.00  0.00    +0.222 A 
ATOM      7  N2  UNL     1       7.452   7.664  26.414  0.00  0.00    -0.235 NA
ATOM      8  C9  UNL     1       7.815   8.960  26.213  0.00  0.00    +0.085 A 
ATOM      9  C19 UNL     1       7.919   9.827  27.328  0.00  0.00    +0.027 A 
ATOM     10  C20 UNL     1       8.190  11.206  27.217  0.00  0.00    +0.016 A 
ENDROOT
BRANCH   8  11
ATOM     11  C10 UNL     1       8.109   9.378  24.827  0.00  0.00    +0.038 A 
ATOM     12  C11 UNL     1       7.296  10.090  23.960  0.00  0.00    +0.144 A 
ATOM     13  N3  UNL     1       7.994  10.401  22.851  0.00  0.00    -0.179 NA
ATOM     14  N4  UNL     1       9.215   9.910  22.996  0.00  0.00    -0.266 N 
ATOM     15  C18 UNL     1       9.332   9.307  24.194  0.00  0.00    +0.118 A 
BRANCH  14  16
ATOM     16  C12 UNL     1      10.292  10.117  22.034  0.00  0.00    +0.180 C 
BRANCH  16  17
ATOM     17  C13 UNL     1      10.779   8.790  21.521  0.00  0.00    -0.008 A 
ATOM     18  C14 UNL     1       9.939   7.972  20.754  0.00  0.00    +0.008 A 
ATOM     19  C15 UNL     1      10.417   6.760  20.247  0.00  0.00    +0.020 A 
ATOM     20  C16 UNL     1      11.737   6.386  20.504  0.00  0.00    +0.111 A 
ATOM     21  N5  UNL     1      12.545   7.198  21.235  0.00  0.00    -0.263 NA
ATOM     22  C17 UNL     1      12.103   8.381  21.740  0.00  0.00    +0.116 A 
ENDBRANCH  16  17
ENDBRANCH  14  16
ENDBRANCH   8  11
BRANCH   1  24
ATOM     23  C1  UNL     1      10.009  13.719  27.664  0.00  0.00    +0.012 C 
ATOM     24  C2  UNL     1       8.598  13.496  28.221  0.00  0.00    +0.013 C 
ATOM     25  C3  UNL     1       7.544  14.197  27.356  0.00  0.00    +0.012 C 
ENDBRANCH   1  24
TORSDOF 4
ENDMDL
MODEL 2
REMARK VINA RESULT:    -6.537      6.635     10.918
REMARK INTER + INTRA:          -8.840
REMARK INTER:                  -8.178
REMARK INTRA:                  -0.662
REMARK UNBOUND:                -0.774
REMARK  Name = /home/qwerty/github/datacon2025hack/step_04_hit_selection/docking/ligands/lig_690.pdb
REMARK  6 active torsions:
REMARK  status: ('A' for Active; 'I' for Inactive)
REMARK    1  A    between atoms: C1_1  and  C2_2
REMARK    2  A    between atoms: C2_2  and  C3_3
REMARK    3  A    between atoms: C2_2  and  C4_4
REMARK    4  A    between atoms: C9_11  and  C10_12
REMARK    5  A    between atoms: N4_15  and  C12_16
REMARK    6  A    between atoms: C12_16  and  C13_17
REMARK                            x       y       z     vdW  Elec       q    Type
REMARK                         _______ _______ _______ _____ _____    ______ ____
ROOT
ATOM      1  C4  UNL     1       9.422  13.461  28.967  0.00  0.00    -0.044 A 
ATOM      2  C5  UNL     1      10.006  13.701  27.711  0.00  0.00    +0.006 A 
ATOM      3  C6  UNL     1      11.331  14.126  27.614  0.00  0.00    +0.029 A 
ATOM      4  C7  UNL     1      12.100  14.304  28.767  0.00  0.00    +0.075 A 
ATOM      5  N1  UNL     1      13.374  14.760  28.660  0.00  0.00    -0.235 NA
ATOM      6  C8  UNL     1      14.138  14.963  29.761  0.00  0.00    +0.222 A 
ATOM      7  N2  UNL     1      13.644  14.688  30.993  0.00  0.00    -0.235 NA
ATOM      8  C9  UNL     1      12.382  14.212  31.171  0.00  0.00    +0.085 A 
ATOM      9  C19 UNL     1      11.549  14.030  30.040  0.00  0.00    +0.027 A 
ATOM     10  C20 UNL     1      10.197  13.637  30.127  0.00  0.00    +0.016 A 
ENDROOT
BRANCH   8  11
ATOM     11  C10 UNL     1      11.966  13.884  32.550  0.00  0.00    +0.038 A 
ATOM     12  C11 UNL     1      11.034  14.540  33.338  0.00  0.00    +0.144 A 
ATOM     13  N3  UNL     1      10.832  13.834  34.468  0.00  0.00    -0.179 NA
ATOM     14  N4  UNL     1      11.605  12.760  34.412  0.00  0.00    -0.266 N 
ATOM     15  C18 UNL     1      12.286  12.741  33.251  0.00  0.00    +0.118 A 
BRANCH  14  16
ATOM     16  C12 UNL     1      11.602  11.705  35.419  0.00  0.00    +0.180 C 
BRANCH  16  17
ATOM     17  C13 UNL     1      12.958  11.612  36.063  0.00  0.00    -0.008 A 
ATOM     18  C14 UNL     1      13.671  10.405  36.050  0.00  0.00    +0.008 A 
ATOM     19  C15 UNL     1      14.947  10.343  36.616  0.00  0.00    +0.020 A 
ATOM     20  C16 UNL     1      15.501  11.493  37.179  0.00  0.00    +0.111 A 
ATOM     21  N5  UNL     1      14.805  12.660  37.170  0.00  0.00    -0.263 NA
ATOM     22  C17 UNL     1      13.561  12.746  36.626  0.00  0.00    +0.116 A 
ENDBRANCH  16  17
ENDBRANCH  14  16
ENDBRANCH   8  11
BRANCH   1  24
ATOM     23  C1  UNL     1       7.866  11.575  29.565  0.00  0.00    +0.012 C 
ATOM     24  C2  UNL     1       7.972  13.027  29.082  0.00  0.00    +0.013 C 
ATOM     25  C3  UNL     1       7.181  13.973  29.993  0.00  0.00    +0.012 C 
ENDBRANCH   1  24
TORSDOF 4
ENDMDL
MODEL 3
REMARK VINA RESULT:    -6.262     10.923     14.282
REMARK INTER + INTRA:          -8.500
REMARK INTER:                  -7.980
REMARK INTRA:                  -0.520
REMARK UNBOUND:                -0.774
REMARK  Name = /home/qwerty/github/datacon2025hack/step_04_hit_selection/docking/ligands/lig_690.pdb
REMARK  6 active torsions:
REMARK  status: ('A' for Active; 'I' for Inactive)
REMARK    1  A    between atoms: C1_1  and  C2_2
REMARK    2  A    between atoms: C2_2  and  C3_3
REMARK    3  A    between atoms: C2_2  and  C4_4
REMARK    4  A    between atoms: C9_11  and  C10_12
REMARK    5  A    between atoms: N4_15  and  C12_16
REMARK    6  A    between atoms: C12_16  and  C13_17
REMARK                            x       y       z     vdW  Elec       q    Type
REMARK                         _______ _______ _______ _____ _____    ______ ____
ROOT
ATOM      1  C4  UNL     1      22.007   1.162  28.120  0.00  0.00    -0.044 A 
ATOM      2  C5  UNL     1      22.918   2.178  27.786  0.00  0.00    +0.006 A 
ATOM      3  C6  UNL     1      22.707   2.980  26.664  0.00  0.00    +0.029 A 
ATOM      4  C7  UNL     1      21.576   2.791  25.866  0.00  0.00    +0.075 A 
ATOM      5  N1  UNL     1      21.407   3.549  24.753  0.00  0.00    -0.235 NA
ATOM      6  C8  UNL     1      20.331   3.375  23.946  0.00  0.00    +0.222 A 
ATOM      7  N2  UNL     1      19.391   2.450  24.256  0.00  0.00    -0.235 NA
ATOM      8  C9  UNL     1      19.489   1.669  25.365  0.00  0.00    +0.085 A 
ATOM      9  C19 UNL     1      20.623   1.802  26.203  0.00  0.00    +0.027 A 
ATOM     10  C20 UNL     1      20.867   0.973  27.317  0.00  0.00    +0.016 A 
ENDROOT
BRANCH   8  11
ATOM     11  C10 UNL     1      18.376   0.737  25.644  0.00  0.00    +0.038 A 
ATOM     12  C11 UNL     1      17.640   0.613  26.811  0.00  0.00    +0.144 A 
ATOM     13  N3  UNL     1      16.619  -0.240  26.602  0.00  0.00    -0.179 NA
ATOM     14  N4  UNL     1      16.691  -0.651  25.346  0.00  0.00    -0.266 N 
ATOM     15  C18 UNL     1      17.727  -0.058  24.724  0.00  0.00    +0.118 A 
BRANCH  14  16
ATOM     16  C12 UNL     1      15.703  -1.523  24.719  0.00  0.00    +0.180 C 
BRANCH  16  17
ATOM     17  C13 UNL     1      14.602  -0.696  24.116  0.00  0.00    -0.008 A 
ATOM     18  C14 UNL     1      14.633  -0.352  22.757  0.00  0.00    +0.008 A 
ATOM     19  C15 UNL     1      13.583   0.382  22.199  0.00  0.00    +0.020 A 
ATOM     20  C16 UNL     1      12.506   0.754  23.005  0.00  0.00    +0.111 A 
ATOM     21  N5  UNL     1      12.482   0.400  24.317  0.00  0.00    -0.263 NA
ATOM     22  C17 UNL     1      13.492  -0.313  24.883  0.00  0.00    +0.116 A 
ENDBRANCH  16  17
ENDBRANCH  14  16
ENDBRANCH   8  11
BRANCH   1  24
ATOM     23  C1  UNL     1      21.036   0.274  30.266  0.00  0.00    +0.012 C 
ATOM     24  C2  UNL     1      22.245   0.265  29.322  0.00  0.00    +0.013 C 
ATOM     25  C3  UNL     1      22.597  -1.162  28.887  0.00  0.00    +0.012 C 
ENDBRANCH   1  24
TORSDOF 4
ENDMDL
MODEL 4
REMARK VINA RESULT:    -6.160     13.497     15.010
REMARK INTER + INTRA:          -8.375
REMARK INTER:                  -7.649
REMARK INTRA:                  -0.726
REMARK UNBOUND:                -0.774
REMARK  Name = /home/qwerty/github/datacon2025hack/step_04_hit_selection/docking/ligands/lig_690.pdb
REMARK  6 active torsions:
REMARK  status: ('A' for Active; 'I' for Inactive)
REMARK    1  A    between atoms: C1_1  and  C2_2
REMARK    2  A    between atoms: C2_2  and  C3_3
REMARK    3  A    between atoms: C2_2  and  C4_4
REMARK    4  A    between atoms: C9_11  and  C10_12
REMARK    5  A    between atoms: N4_15  and  C12_16
REMARK    6  A    between atoms: C12_16  and  C13_17
REMARK                            x       y       z     vdW  Elec       q    Type
REMARK                         _______ _______ _______ _____ _____    ______ ____
ROOT
ATOM      1  C4  UNL     1      22.958  14.196  22.889  0.00  0.00    -0.044 A 
ATOM      2  C5  UNL     1      21.888  15.102  22.790  0.00  0.00    +0.006 A 
ATOM      3  C6  UNL     1      20.964  14.998  21.751  0.00  0.00    +0.029 A 
ATOM      4  C7  UNL     1      21.082  13.980  20.802  0.00  0.00    +0.075 A 
ATOM      5  N1  UNL     1      20.201  13.918  19.772  0.00  0.00    -0.235 NA
ATOM      6  C8  UNL     1      20.302  12.954  18.823  0.00  0.00    +0.222 A 
ATOM      7  N2  UNL     1      21.279  12.018  18.905  0.00  0.00    -0.235 NA
ATOM      8  C9  UNL     1      22.184  12.011  19.920  0.00  0.00    +0.085 A 
ATOM      9  C19 UNL     1      22.126  13.030  20.902  0.00  0.00    +0.027 A 
ATOM     10  C20 UNL     1      23.076  13.168  21.935  0.00  0.00    +0.016 A 
ENDROOT
BRANCH   8  11
ATOM     11  C10 UNL     1      23.166  10.908  19.950  0.00  0.00    +0.038 A 
ATOM     12  C11 UNL     1      24.453  10.898  19.435  0.00  0.00    +0.144 A 
ATOM     13  N3  UNL     1      25.071   9.760  19.807  0.00  0.00    -0.179 NA
ATOM     14  N4  UNL     1      24.216   9.061  20.537  0.00  0.00    -0.266 N 
ATOM     15  C18 UNL     1      23.059   9.737  20.670  0.00  0.00    +0.118 A 
BRANCH  14  16
ATOM     16  C12 UNL     1      24.549   7.801  21.193  0.00  0.00    +0.180 C 
BRANCH  16  17
ATOM     17  C13 UNL     1      23.362   6.880  21.162  0.00  0.00    -0.008 A 
ATOM     18  C14 UNL     1      22.933   6.310  19.955  0.00  0.00    +0.008 A 
ATOM     19  C15 UNL     1      21.854   5.423  19.947  0.00  0.00    +0.020 A 
ATOM     20  C16 UNL     1      21.223   5.104  21.149  0.00  0.00    +0.111 A 
ATOM     21  N5  UNL     1      21.659   5.651  22.315  0.00  0.00    -0.263 NA
ATOM     22  C17 UNL     1      22.707   6.518  22.349  0.00  0.00    +0.116 A 
ENDBRANCH  16  17
ENDBRANCH  14  16
ENDBRANCH   8  11
BRANCH   1  24
ATOM     23  C1  UNL     1      24.686  15.683  23.955  0.00  0.00    +0.012 C 
ATOM     24  C2  UNL     1      23.985  14.320  24.000  0.00  0.00    +0.013 C 
ATOM     25  C3  UNL     1      23.349  14.069  25.373  0.00  0.00    +0.012 C 
ENDBRANCH   1  24
TORSDOF 4
ENDMDL
MODEL 5
REMARK VINA RESULT:    -6.140     14.623     16.628
REMARK INTER + INTRA:          -8.351
REMARK INTER:                  -7.640
REMARK INTRA:                  -0.711
REMARK UNBOUND:                -0.774
REMARK  Name = /home/qwerty/github/datacon2025hack/step_04_hit_selection/docking/ligands/lig_690.pdb
REMARK  6 active torsions:
REMARK  status: ('A' for Active; 'I' for Inactive)
REMARK    1  A    between atoms: C1_1  and  C2_2
REMARK    2  A    between atoms: C2_2  and  C3_3
REMARK    3  A    between atoms: C2_2  and  C4_4
REMARK    4  A    between atoms: C9_11  and  C10_12
REMARK    5  A    between atoms: N4_15  and  C12_16
REMARK    6  A    between atoms: C12_16  and  C13_17
REMARK                            x       y       z     vdW  Elec       q    Type
REMARK                         _______ _______ _______ _____ _____    ______ ____
ROOT
ATOM      1  C4  UNL     1      22.022   1.175  30.032  0.00  0.00    -0.044 A 
ATOM      2  C5  UNL     1      21.049   0.203  30.324  0.00  0.00    +0.006 A 
ATOM      3  C6  UNL     1      20.240   0.327  31.454  0.00  0.00    +0.029 A 
ATOM      4  C7  UNL     1      20.377   1.429  32.301  0.00  0.00    +0.075 A 
ATOM      5  N1  UNL     1      19.613   1.514  33.420  0.00  0.00    -0.235 NA
ATOM      6  C8  UNL     1      19.737   2.560  34.273  0.00  0.00    +0.222 A 
ATOM      7  N2  UNL     1      20.617   3.556  34.005  0.00  0.00    -0.235 NA
ATOM      8  C9  UNL     1      21.400   3.543  32.894  0.00  0.00    +0.085 A 
ATOM      9  C19 UNL     1      21.319   2.441  32.007  0.00  0.00    +0.027 A 
ATOM     10  C20 UNL     1      22.158   2.286  30.883  0.00  0.00    +0.016 A 
ENDROOT
BRANCH   8  11
ATOM     11  C10 UNL     1      22.278   4.709  32.665  0.00  0.00    +0.038 A 
ATOM     12  C11 UNL     1      23.622   4.840  32.976  0.00  0.00    +0.144 A 
ATOM     13  N3  UNL     1      24.086   5.995  32.462  0.00  0.00    -0.179 NA
ATOM     14  N4  UNL     1      23.080   6.590  31.841  0.00  0.00    -0.266 N 
ATOM     15  C18 UNL     1      21.973   5.827  31.917  0.00  0.00    +0.118 A 
BRANCH  14  16
ATOM     16  C12 UNL     1      23.212   7.831  31.085  0.00  0.00    +0.180 C 
BRANCH  16  17
ATOM     17  C13 UNL     1      22.229   8.847  31.596  0.00  0.00    -0.008 A 
ATOM     18  C14 UNL     1      22.128   9.113  32.968  0.00  0.00    +0.008 A 
ATOM     19  C15 UNL     1      21.240  10.089  33.426  0.00  0.00    +0.020 A 
ATOM     20  C16 UNL     1      20.470  10.798  32.504  0.00  0.00    +0.111 A 
ATOM     21  N5  UNL     1      20.590  10.542  31.175  0.00  0.00    -0.263 NA
ATOM     22  C17 UNL     1      21.446   9.595  30.704  0.00  0.00    +0.116 A 
ENDBRANCH  16  17
ENDBRANCH  14  16
ENDBRANCH   8  11
BRANCH   1  24
ATOM     23  C1  UNL     1      22.731   2.198  27.844  0.00  0.00    +0.012 C 
ATOM     24  C2  UNL     1      22.926   1.032  28.821  0.00  0.00    +0.013 C 
ATOM     25  C3  UNL     1      24.396   0.902  29.239  0.00  0.00    +0.012 C 
ENDBRANCH   1  24
TORSDOF 4
ENDMDL
MODEL 6
REMARK VINA RESULT:    -6.121      8.665     12.268
REMARK INTER + INTRA:          -8.327
REMARK INTER:                  -7.425
REMARK INTRA:                  -0.902
REMARK UNBOUND:                -0.774
REMARK  Name = /home/qwerty/github/datacon2025hack/step_04_hit_selection/docking/ligands/lig_690.pdb
REMARK  6 active torsions:
REMARK  status: ('A' for Active; 'I' for Inactive)
REMARK    1  A    between atoms: C1_1  and  C2_2
REMARK    2  A    between atoms: C2_2  and  C3_3
REMARK    3  A    between atoms: C2_2  and  C4_4
REMARK    4  A    between atoms: C9_11  and  C10_12
REMARK    5  A    between atoms: N4_15  and  C12_16
REMARK    6  A    between atoms: C12_16  and  C13_17
REMARK                            x       y       z     vdW  Elec       q    Type
REMARK                         _______ _______ _______ _____ _____    ______ ____
ROOT
ATOM      1  C4  UNL     1      11.670   2.364  21.498  0.00  0.00    -0.044 A 
ATOM      2  C5  UNL     1      11.387   3.542  20.786  0.00  0.00    +0.006 A 
ATOM      3  C6  UNL     1      12.405   4.241  20.137  0.00  0.00    +0.029 A 
ATOM      4  C7  UNL     1      13.719   3.767  20.174  0.00  0.00    +0.075 A 
ATOM      5  N1  UNL     1      14.706   4.480  19.574  0.00  0.00    -0.235 NA
ATOM      6  C8  UNL     1      15.994   4.058  19.611  0.00  0.00    +0.222 A 
ATOM      7  N2  UNL     1      16.312   2.896  20.232  0.00  0.00    -0.235 NA
ATOM      8  C9  UNL     1      15.370   2.124  20.837  0.00  0.00    +0.085 A 
ATOM      9  C19 UNL     1      14.023   2.562  20.848  0.00  0.00    +0.027 A 
ATOM     10  C20 UNL     1      12.992   1.886  21.533  0.00  0.00    +0.016 A 
ENDROOT
BRANCH   8  11
ATOM     11  C10 UNL     1      15.814   0.844  21.427  0.00  0.00    +0.038 A 
ATOM     12  C11 UNL     1      16.197  -0.313  20.768  0.00  0.00    +0.144 A 
ATOM     13  N3  UNL     1      16.679  -1.195  21.663  0.00  0.00    -0.179 NA
ATOM     14  N4  UNL     1      16.613  -0.630  22.859  0.00  0.00    -0.266 N 
ATOM     15  C18 UNL     1      16.120   0.619  22.753  0.00  0.00    +0.118 A 
BRANCH  14  16
ATOM     16  C12 UNL     1      17.123  -1.246  24.078  0.00  0.00    +0.180 C 
BRANCH  16  17
ATOM     17  C13 UNL     1      15.992  -1.495  25.037  0.00  0.00    -0.008 A 
ATOM     18  C14 UNL     1      15.086  -2.541  24.813  0.00  0.00    +0.008 A 
ATOM     19  C15 UNL     1      14.064  -2.788  25.733  0.00  0.00    +0.020 A 
ATOM     20  C16 UNL     1      13.967  -1.992  26.875  0.00  0.00    +0.111 A 
ATOM     21  N5  UNL     1      14.862  -0.991  27.087  0.00  0.00    -0.263 NA
ATOM     22  C17 UNL     1      15.865  -0.731  26.206  0.00  0.00    +0.116 A 
ENDBRANCH  16  17
ENDBRANCH  14  16
ENDBRANCH   8  11
BRANCH   1  24
ATOM     23  C1  UNL     1      11.159   0.669  23.287  0.00  0.00    +0.012 C 
ATOM     24  C2  UNL     1      10.572   1.614  22.232  0.00  0.00    +0.013 C 
ATOM     25  C3  UNL     1       9.563   2.584  22.858  0.00  0.00    +0.012 C 
ENDBRANCH   1  24
TORSDOF 4
ENDMDL
MODEL 7
REMARK VINA RESULT:    -6.079     15.244     16.803
REMARK INTER + INTRA:          -8.275
REMARK INTER:                  -8.107
REMARK INTRA:                  -0.168
REMARK UNBOUND:                -0.774
REMARK  Name = /home/qwerty/github/datacon2025hack/step_04_hit_selection/docking/ligands/lig_690.pdb
REMARK  6 active torsions:
REMARK  status: ('A' for Active; 'I' for Inactive)
REMARK    1  A    between atoms: C1_1  and  C2_2
REMARK    2  A    between atoms: C2_2  and  C3_3
REMARK    3  A    between atoms: C2_2  and  C4_4
REMARK    4  A    between atoms: C9_11  and  C10_12
REMARK    5  A    between atoms: N4_15  and  C12_16
REMARK    6  A    between atoms: C12_16  and  C13_17
REMARK                            x       y       z     vdW  Elec       q    Type
REMARK                         _______ _______ _______ _____ _____    ______ ____
ROOT
ATOM      1  C4  UNL     1      21.328   1.284  30.725  0.00  0.00    -0.044 A 
ATOM      2  C5  UNL     1      20.373   0.253  30.739  0.00  0.00    +0.006 A 
ATOM      3  C6  UNL     1      19.414   0.188  31.750  0.00  0.00    +0.029 A 
ATOM      4  C7  UNL     1      19.383   1.158  32.755  0.00  0.00    +0.075 A 
ATOM      5  N1  UNL     1      18.472   1.058  33.756  0.00  0.00    -0.235 NA
ATOM      6  C8  UNL     1      18.430   1.971  34.757  0.00  0.00    +0.222 A 
ATOM      7  N2  UNL     1      19.290   3.019  34.758  0.00  0.00    -0.235 NA
ATOM      8  C9  UNL     1      20.215   3.191  33.776  0.00  0.00    +0.085 A 
ATOM      9  C19 UNL     1      20.307   2.229  32.740  0.00  0.00    +0.027 A 
ATOM     10  C20 UNL     1      21.295   2.262  31.735  0.00  0.00    +0.016 A 
ENDROOT
BRANCH   8  11
ATOM     11  C10 UNL     1      21.059   4.402  33.838  0.00  0.00    +0.038 A 
ATOM     12  C11 UNL     1      20.806   5.584  34.516  0.00  0.00    +0.144 A 
ATOM     13  N3  UNL     1      21.893   6.377  34.447  0.00  0.00    -0.179 NA
ATOM     14  N4  UNL     1      22.815   5.731  33.751  0.00  0.00    -0.266 N 
ATOM     15  C18 UNL     1      22.357   4.518  33.389  0.00  0.00    +0.118 A 
BRANCH  14  16
ATOM     16  C12 UNL     1      24.167   6.234  33.532  0.00  0.00    +0.180 C 
BRANCH  16  17
ATOM     17  C13 UNL     1      24.122   7.456  32.658  0.00  0.00    -0.008 A 
ATOM     18  C14 UNL     1      24.955   8.551  32.922  0.00  0.00    +0.008 A 
ATOM     19  C15 UNL     1      24.933   9.664  32.077  0.00  0.00    +0.020 A 
ATOM     20  C16 UNL     1      24.085   9.664  30.969  0.00  0.00    +0.111 A 
ATOM     21  N5  UNL     1      23.294   8.588  30.716  0.00  0.00    -0.263 NA
ATOM     22  C17 UNL     1      23.297   7.493  31.524  0.00  0.00    +0.116 A 
ENDBRANCH  16  17
ENDBRANCH  14  16
ENDBRANCH   8  11
BRANCH   1  24
ATOM     23  C1  UNL     1      22.605  -0.030  28.999  0.00  0.00    +0.012 C 
ATOM     24  C2  UNL     1      22.393   1.345  29.644  0.00  0.00    +0.013 C 
ATOM     25  C3  UNL     1      22.052   2.405  28.590  0.00  0.00    +0.012 C 
ENDBRANCH   1  24
TORSDOF 4
ENDMDL
MODEL 8
REMARK VINA RESULT:    -6.014     11.905     14.625
REMARK INTER + INTRA:          -8.195
REMARK INTER:                  -8.005
REMARK INTRA:                  -0.190
REMARK UNBOUND:                -0.774
REMARK  Name = /home/qwerty/github/datacon2025hack/step_04_hit_selection/docking/ligands/lig_690.pdb
REMARK  6 active torsions:
REMARK  status: ('A' for Active; 'I' for Inactive)
REMARK    1  A    between atoms: C1_1  and  C2_2
REMARK    2  A    between atoms: C2_2  and  C3_3
REMARK    3  A    between atoms: C2_2  and  C4_4
REMARK    4  A    between atoms: C9_11  and  C10_12
REMARK    5  A    between atoms: N4_15  and  C12_16
REMARK    6  A    between atoms: C12_16  and  C13_17
REMARK                            x       y       z     vdW  Elec       q    Type
REMARK                         _______ _______ _______ _____ _____    ______ ____
ROOT
ATOM      1  C4  UNL     1      21.792   1.347  27.757  0.00  0.00    -0.044 A 
ATOM      2  C5  UNL     1      22.552   2.529  27.797  0.00  0.00    +0.006 A 
ATOM      3  C6  UNL     1      22.457   3.469  26.771  0.00  0.00    +0.029 A 
ATOM      4  C7  UNL     1      21.590   3.254  25.697  0.00  0.00    +0.075 A 
ATOM      5  N1  UNL     1      21.539   4.157  24.685  0.00  0.00    -0.235 NA
ATOM      6  C8  UNL     1      20.725   3.966  23.618  0.00  0.00    +0.222 A 
ATOM      7  N2  UNL     1      19.925   2.874  23.559  0.00  0.00    -0.235 NA
ATOM      8  C9  UNL     1      19.912   1.939  24.547  0.00  0.00    +0.085 A 
ATOM      9  C19 UNL     1      20.784   2.093  25.653  0.00  0.00    +0.027 A 
ATOM     10  C20 UNL     1      20.917   1.132  26.676  0.00  0.00    +0.016 A 
ENDROOT
BRANCH   8  11
ATOM     11  C10 UNL     1      18.956   0.820  24.415  0.00  0.00    +0.038 A 
ATOM     12  C11 UNL     1      19.027  -0.436  24.995  0.00  0.00    +0.144 A 
ATOM     13  N3  UNL     1      17.882  -1.103  24.751  0.00  0.00    -0.179 NA
ATOM     14  N4  UNL     1      17.099  -0.306  24.041  0.00  0.00    -0.266 N 
ATOM     15  C18 UNL     1      17.703   0.880  23.841  0.00  0.00    +0.118 A 
BRANCH  14  16
ATOM     16  C12 UNL     1      15.734  -0.646  23.652  0.00  0.00    +0.180 C 
BRANCH  16  17
ATOM     17  C13 UNL     1      14.928  -0.994  24.873  0.00  0.00    -0.008 A 
ATOM     18  C14 UNL     1      14.597  -2.328  25.151  0.00  0.00    +0.008 A 
ATOM     19  C15 UNL     1      13.883  -2.642  26.310  0.00  0.00    +0.020 A 
ATOM     20  C16 UNL     1      13.518  -1.619  27.186  0.00  0.00    +0.111 A 
ATOM     21  N5  UNL     1      13.860  -0.333  26.912  0.00  0.00    -0.263 NA
ATOM     22  C17 UNL     1      14.554  -0.001  25.790  0.00  0.00    +0.116 A 
ENDBRANCH  16  17
ENDBRANCH  14  16
ENDBRANCH   8  11
BRANCH   1  24
ATOM     23  C1  UNL     1      23.370  -0.131  29.045  0.00  0.00    +0.012 C 
ATOM     24  C2  UNL     1      21.912   0.305  28.854  0.00  0.00    +0.013 C 
ATOM     25  C3  UNL     1      21.310   0.814  30.170  0.00  0.00    +0.012 C 
ENDBRANCH   1  24
TORSDOF 4
ENDMDL
MODEL 9
REMARK VINA RESULT:    -5.978     14.008     16.562
REMARK INTER + INTRA:          -8.150
REMARK INTER:                  -7.469
REMARK INTRA:                  -0.681
REMARK UNBOUND:                -0.774
REMARK  Name = /home/qwerty/github/datacon2025hack/step_04_hit_selection/docking/ligands/lig_690.pdb
REMARK  6 active torsions:
REMARK  status: ('A' for Active; 'I' for Inactive)
REMARK    1  A    between atoms: C1_1  and  C2_2
REMARK    2  A    between atoms: C2_2  and  C3_3
REMARK    3  A    between atoms: C2_2  and  C4_4
REMARK    4  A    between atoms: C9_11  and  C10_12
REMARK    5  A    between atoms: N4_15  and  C12_16
REMARK    6  A    between atoms: C12_16  and  C13_17
REMARK                            x       y       z     vdW  Elec       q    Type
REMARK                         _______ _______ _______ _____ _____    ______ ____
ROOT
ATOM      1  C4  UNL     1      23.381   8.464  33.357  0.00  0.00    -0.044 A 
ATOM      2  C5  UNL     1      24.164   7.373  33.772  0.00  0.00    +0.006 A 
ATOM      3  C6  UNL     1      23.939   6.768  35.009  0.00  0.00    +0.029 A 
ATOM      4  C7  UNL     1      22.920   7.232  35.844  0.00  0.00    +0.075 A 
ATOM      5  N1  UNL     1      22.741   6.662  37.063  0.00  0.00    -0.235 NA
ATOM      6  C8  UNL     1      21.775   7.103  37.906  0.00  0.00    +0.222 A 
ATOM      7  N2  UNL     1      20.953   8.112  37.529  0.00  0.00    -0.235 NA
ATOM      8  C9  UNL     1      21.065   8.716  36.315  0.00  0.00    +0.085 A 
ATOM      9  C19 UNL     1      22.092   8.301  35.432  0.00  0.00    +0.027 A 
ATOM     10  C20 UNL     1      22.354   8.929  34.197  0.00  0.00    +0.016 A 
ENDROOT
BRANCH   8  11
ATOM     11  C10 UNL     1      20.076   9.761  35.980  0.00  0.00    +0.038 A 
ATOM     12  C11 UNL     1      20.249  11.136  35.998  0.00  0.00    +0.144 A 
ATOM     13  N3  UNL     1      19.157  11.727  35.475  0.00  0.00    -0.179 NA
ATOM     14  N4  UNL     1      18.310  10.770  35.131  0.00  0.00    -0.266 N 
ATOM     15  C18 UNL     1      18.843   9.563  35.395  0.00  0.00    +0.118 A 
BRANCH  14  16
ATOM     16  C12 UNL     1      17.043  11.014  34.451  0.00  0.00    +0.180 C 
BRANCH  16  17
ATOM     17  C13 UNL     1      16.210  11.977  35.252  0.00  0.00    -0.008 A 
ATOM     18  C14 UNL     1      16.044  13.301  34.823  0.00  0.00    +0.008 A 
ATOM     19  C15 UNL     1      15.234  14.174  35.555  0.00  0.00    +0.020 A 
ATOM     20  C16 UNL     1      14.589  13.708  36.701  0.00  0.00    +0.111 A 
ATOM     21  N5  UNL     1      14.746  12.417  37.095  0.00  0.00    -0.263 NA
ATOM     22  C17 UNL     1      15.530  11.549  36.401  0.00  0.00    +0.116 A 
ENDBRANCH  16  17
ENDBRANCH  14  16
ENDBRANCH   8  11
BRANCH   1  24
ATOM     23  C1  UNL     1      25.087   9.644  31.931  0.00  0.00    +0.012 C 
ATOM     24  C2  UNL     1      23.640   9.146  32.025  0.00  0.00    +0.013 C 
ATOM     25  C3  UNL     1      23.295   8.221  30.852  0.00  0.00    +0.012 C 
ENDBRANCH   1  24
TORSDOF 4
ENDMDL
