MODEL 1
REMARK VINA RESULT:    -7.326      0.000      0.000
REMARK INTER + INTRA:          -9.856
REMARK INTER:                  -9.039
REMARK INTRA:                  -0.817
REMARK UNBOUND:                -0.817
REMARK  Name = /home/qwerty/github/datacon2025hack/step_04_hit_selection/docking/ligands/lig_408.pdb
REMARK  4 active torsions:
REMARK  status: ('A' for Active; 'I' for Inactive)
REMARK    1  A    between atoms: C1_2  and  C12_16
REMARK    2  A    between atoms: N1_3  and  C2_4
REMARK    3  A    between atoms: C5_7  and  N2_8
REMARK    4  A    between atoms: C15_19  and  C16_20
REMARK                            x       y       z     vdW  Elec       q    Type
REMARK                         _______ _______ _______ _____ _____    ______ ____
ROOT
ATOM      1  O1  UNL     1      15.623  15.590  28.771  0.00  0.00    -0.270 OA
ATOM      2  C1  UNL     1      15.886  15.218  27.594  0.00  0.00    +0.248 C 
ATOM      3  N1  UNL     1      14.817  14.809  26.725  0.00  0.00    -0.282 N 
ATOM      4  H1  UNL     1      14.919  14.995  25.701  0.00  0.00    +0.155 HD
ENDROOT
BRANCH   3   5
ATOM      5  C2  UNL     1      13.569  14.270  27.193  0.00  0.00    +0.034 A 
ATOM      6  C3  UNL     1      12.478  15.105  27.494  0.00  0.00    +0.025 A 
ATOM      7  C4  UNL     1      11.287  14.564  27.985  0.00  0.00    +0.025 A 
ATOM      8  C5  UNL     1      11.166  13.180  28.191  0.00  0.00    +0.030 A 
ATOM      9  C10 UNL     1      12.262  12.348  27.908  0.00  0.00    +0.025 A 
ATOM     10  C11 UNL     1      13.454  12.891  27.420  0.00  0.00    +0.025 A 
BRANCH   8  11
ATOM     11  N2  UNL     1       9.947  12.616  28.711  0.00  0.00    -0.326 N 
ATOM     12  C6  UNL     1       9.727  11.167  28.674  0.00  0.00    +0.133 C 
ATOM     13  C7  UNL     1       8.225  10.877  28.611  0.00  0.00    +0.178 C 
ATOM     14  O2  UNL     1       7.538  11.546  29.652  0.00  0.00    -0.377 OA
ATOM     15  C8  UNL     1       7.639  12.946  29.471  0.00  0.00    +0.178 C 
ATOM     16  C9  UNL     1       9.094  13.410  29.601  0.00  0.00    +0.133 C 
ENDBRANCH   8  11
ENDBRANCH   3   5
BRANCH   2  17
ATOM     17  C12 UNL     1      17.288  15.248  27.112  0.00  0.00    +0.037 A 
ATOM     18  C13 UNL     1      17.823  16.406  26.522  0.00  0.00    +0.013 A 
ATOM     19  C14 UNL     1      19.138  16.419  26.049  0.00  0.00    +0.009 A 
ATOM     20  C15 UNL     1      19.946  15.274  26.149  0.00  0.00    -0.018 A 
ATOM     21  C24 UNL     1      19.409  14.115  26.738  0.00  0.00    +0.009 A 
ATOM     22  C25 UNL     1      18.095  14.101  27.211  0.00  0.00    +0.013 A 
BRANCH  20  23
ATOM     23  C16 UNL     1      21.339  15.284  25.634  0.00  0.00    -0.017 A 
ATOM     24  C17 UNL     1      22.416  14.864  26.462  0.00  0.00    +0.010 A 
ATOM     25  C18 UNL     1      23.739  14.872  25.985  0.00  0.00    +0.027 A 
ATOM     26  C19 UNL     1      23.959  15.305  24.680  0.00  0.00    +0.046 A 
ATOM     27  N3  UNL     1      25.134  15.397  24.037  0.00  0.00    -0.361 N 
ATOM     28  C20 UNL     1      24.844  15.871  22.804  0.00  0.00    +0.083 A 
ATOM     29  C21 UNL     1      23.475  16.081  22.665  0.00  0.00    +0.027 A 
ATOM     30  C22 UNL     1      22.930  15.712  23.876  0.00  0.00    +0.000 A 
ATOM     31  C23 UNL     1      21.609  15.717  24.313  0.00  0.00    +0.018 A 
ATOM     32  H18 UNL     1      26.079  15.155  24.410  0.00  0.00    +0.165 HD
ENDBRANCH  20  23
ENDBRANCH   2  17
TORSDOF 4
ENDMDL
MODEL 2
REMARK VINA RESULT:    -7.134     13.209     15.756
REMARK INTER + INTRA:          -9.619
REMARK INTER:                  -8.843
REMARK INTRA:                  -0.777
REMARK UNBOUND:                -0.817
REMARK  Name = /home/qwerty/github/datacon2025hack/step_04_hit_selection/docking/ligands/lig_408.pdb
REMARK  4 active torsions:
REMARK  status: ('A' for Active; 'I' for Inactive)
REMARK    1  A    between atoms: C1_2  and  C12_16
REMARK    2  A    between atoms: N1_3  and  C2_4
REMARK    3  A    between atoms: C5_7  and  N2_8
REMARK    4  A    between atoms: C15_19  and  C16_20
REMARK                            x       y       z     vdW  Elec       q    Type
REMARK                         _______ _______ _______ _____ _____    ______ ____
ROOT
ATOM      1  O1  UNL     1      19.053   1.312  29.906  0.00  0.00    -0.270 OA
ATOM      2  C1  UNL     1      19.701   1.545  28.849  0.00  0.00    +0.248 C 
ATOM      3  N1  UNL     1      21.009   2.134  28.936  0.00  0.00    -0.282 N 
ATOM      4  H1  UNL     1      21.715   1.870  28.210  0.00  0.00    +0.155 HD
ENDROOT
BRANCH   3   5
ATOM      5  C2  UNL     1      21.439   2.967  30.026  0.00  0.00    +0.034 A 
ATOM      6  C3  UNL     1      21.244   4.359  30.003  0.00  0.00    +0.025 A 
ATOM      7  C4  UNL     1      21.705   5.155  31.055  0.00  0.00    +0.025 A 
ATOM      8  C5  UNL     1      22.374   4.576  32.146  0.00  0.00    +0.030 A 
ATOM      9  C10 UNL     1      22.584   3.187  32.160  0.00  0.00    +0.025 A 
ATOM     10  C11 UNL     1      22.125   2.392  31.105  0.00  0.00    +0.025 A 
BRANCH   8  11
ATOM     11  N2  UNL     1      22.864   5.391  33.228  0.00  0.00    -0.326 N 
ATOM     12  C6  UNL     1      22.194   5.372  34.531  0.00  0.00    +0.133 C 
ATOM     13  C7  UNL     1      22.406   6.713  35.239  0.00  0.00    +0.178 C 
ATOM     14  O2  UNL     1      23.781   7.042  35.293  0.00  0.00    -0.377 OA
ATOM     15  C8  UNL     1      24.278   7.246  33.984  0.00  0.00    +0.178 C 
ATOM     16  C9  UNL     1      24.218   5.950  33.168  0.00  0.00    +0.133 C 
ENDBRANCH   8  11
ENDBRANCH   3   5
BRANCH   2  17
ATOM     17  C12 UNL     1      19.121   1.172  27.537  0.00  0.00    +0.037 A 
ATOM     18  C13 UNL     1      19.946   0.958  26.419  0.00  0.00    +0.013 A 
ATOM     19  C14 UNL     1      19.390   0.630  25.178  0.00  0.00    +0.009 A 
ATOM     20  C15 UNL     1      17.998   0.513  25.027  0.00  0.00    -0.018 A 
ATOM     21  C24 UNL     1      17.174   0.729  26.145  0.00  0.00    +0.009 A 
ATOM     22  C25 UNL     1      17.729   1.057  27.385  0.00  0.00    +0.013 A 
BRANCH  20  23
ATOM     23  C16 UNL     1      17.407   0.177  23.706  0.00  0.00    -0.017 A 
ATOM     24  C17 UNL     1      17.384  -1.169  23.249  0.00  0.00    +0.010 A 
ATOM     25  C18 UNL     1      16.830  -1.498  21.999  0.00  0.00    +0.027 A 
ATOM     26  C19 UNL     1      16.307  -0.465  21.226  0.00  0.00    +0.046 A 
ATOM     27  N3  UNL     1      15.742  -0.559  20.011  0.00  0.00    -0.361 N 
ATOM     28  C20 UNL     1      15.398   0.703  19.666  0.00  0.00    +0.083 A 
ATOM     29  C21 UNL     1      15.746   1.602  20.669  0.00  0.00    +0.027 A 
ATOM     30  C22 UNL     1      16.324   0.833  21.656  0.00  0.00    +0.000 A 
ATOM     31  C23 UNL     1      16.864   1.196  22.886  0.00  0.00    +0.018 A 
ATOM     32  H18 UNL     1      15.600  -1.425  19.446  0.00  0.00    +0.165 HD
ENDBRANCH  20  23
ENDBRANCH   2  17
TORSDOF 4
ENDMDL
MODEL 3
REMARK VINA RESULT:    -7.067     13.977     18.276
REMARK INTER + INTRA:          -9.536
REMARK INTER:                  -8.783
REMARK INTRA:                  -0.753
REMARK UNBOUND:                -0.817
REMARK  Name = /home/qwerty/github/datacon2025hack/step_04_hit_selection/docking/ligands/lig_408.pdb
REMARK  4 active torsions:
REMARK  status: ('A' for Active; 'I' for Inactive)
REMARK    1  A    between atoms: C1_2  and  C12_16
REMARK    2  A    between atoms: N1_3  and  C2_4
REMARK    3  A    between atoms: C5_7  and  N2_8
REMARK    4  A    between atoms: C15_19  and  C16_20
REMARK                            x       y       z     vdW  Elec       q    Type
REMARK                         _______ _______ _______ _____ _____    ______ ____
ROOT
ATOM      1  O1  UNL     1      11.093   0.840  27.251  0.00  0.00    -0.270 OA
ATOM      2  C1  UNL     1       9.944   0.491  27.639  0.00  0.00    +0.248 C 
ATOM      3  N1  UNL     1       8.839   0.544  26.721  0.00  0.00    -0.282 N 
ATOM      4  H1  UNL     1       8.079  -0.165  26.828  0.00  0.00    +0.155 HD
ENDROOT
BRANCH   3   5
ATOM      5  C2  UNL     1       8.779   1.438  25.597  0.00  0.00    +0.034 A 
ATOM      6  C3  UNL     1       9.448   1.147  24.394  0.00  0.00    +0.025 A 
ATOM      7  C4  UNL     1       9.408   2.048  23.327  0.00  0.00    +0.025 A 
ATOM      8  C5  UNL     1       8.705   3.259  23.443  0.00  0.00    +0.030 A 
ATOM      9  C10 UNL     1       8.052   3.557  24.650  0.00  0.00    +0.025 A 
ATOM     10  C11 UNL     1       8.096   2.656  25.719  0.00  0.00    +0.025 A 
BRANCH   8  11
ATOM     11  N2  UNL     1       8.671   4.199  22.352  0.00  0.00    -0.326 N 
ATOM     12  C6  UNL     1       9.619   4.076  21.240  0.00  0.00    +0.133 C 
ATOM     13  C7  UNL     1       9.867   5.453  20.621  0.00  0.00    +0.178 C 
ATOM     14  O2  UNL     1       8.645   6.080  20.281  0.00  0.00    -0.377 OA
ATOM     15  C8  UNL     1       7.898   6.345  21.454  0.00  0.00    +0.178 C 
ATOM     16  C9  UNL     1       7.488   5.041  22.147  0.00  0.00    +0.133 C 
ENDBRANCH   8  11
ENDBRANCH   3   5
BRANCH   2  17
ATOM     17  C12 UNL     1       9.759  -0.008  29.023  0.00  0.00    +0.037 A 
ATOM     18  C13 UNL     1       9.582   0.884  30.093  0.00  0.00    +0.013 A 
ATOM     19  C14 UNL     1       9.433   0.407  31.399  0.00  0.00    +0.009 A 
ATOM     20  C15 UNL     1       9.462  -0.973  31.664  0.00  0.00    -0.018 A 
ATOM     21  C24 UNL     1       9.642  -1.865  30.593  0.00  0.00    +0.009 A 
ATOM     22  C25 UNL     1       9.792  -1.389  29.288  0.00  0.00    +0.013 A 
BRANCH  20  23
ATOM     23  C16 UNL     1       9.316  -1.478  33.053  0.00  0.00    -0.017 A 
ATOM     24  C17 UNL     1       8.485  -2.599  33.328  0.00  0.00    +0.010 A 
ATOM     25  C18 UNL     1       8.338  -3.085  34.639  0.00  0.00    +0.027 A 
ATOM     26  C19 UNL     1       9.030  -2.434  35.657  0.00  0.00    +0.046 A 
ATOM     27  N3  UNL     1       9.024  -2.728  36.967  0.00  0.00    -0.361 N 
ATOM     28  C20 UNL     1       9.835  -1.818  37.553  0.00  0.00    +0.083 A 
ATOM     29  C21 UNL     1      10.359  -0.942  36.608  0.00  0.00    +0.027 A 
ATOM     30  C22 UNL     1       9.832  -1.355  35.404  0.00  0.00    +0.000 A 
ATOM     31  C23 UNL     1      10.001  -0.847  34.119  0.00  0.00    +0.018 A 
ATOM     32  H18 UNL     1       8.501  -3.498  37.439  0.00  0.00    +0.165 HD
ENDBRANCH  20  23
ENDBRANCH   2  17
TORSDOF 4
ENDMDL
MODEL 4
REMARK VINA RESULT:    -7.060      6.579      7.105
REMARK INTER + INTRA:          -9.528
REMARK INTER:                  -8.726
REMARK INTRA:                  -0.801
REMARK UNBOUND:                -0.817
REMARK  Name = /home/qwerty/github/datacon2025hack/step_04_hit_selection/docking/ligands/lig_408.pdb
REMARK  4 active torsions:
REMARK  status: ('A' for Active; 'I' for Inactive)
REMARK    1  A    between atoms: C1_2  and  C12_16
REMARK    2  A    between atoms: N1_3  and  C2_4
REMARK    3  A    between atoms: C5_7  and  N2_8
REMARK    4  A    between atoms: C15_19  and  C16_20
REMARK                            x       y       z     vdW  Elec       q    Type
REMARK                         _______ _______ _______ _____ _____    ______ ____
ROOT
ATOM      1  O1  UNL     1      22.021  15.356  31.157  0.00  0.00    -0.270 OA
ATOM      2  C1  UNL     1      21.295  15.007  30.185  0.00  0.00    +0.248 C 
ATOM      3  N1  UNL     1      19.934  14.613  30.424  0.00  0.00    -0.282 N 
ATOM      4  H1  UNL     1      19.226  14.819  29.682  0.00  0.00    +0.155 HD
ENDROOT
BRANCH   3   5
ATOM      5  C2  UNL     1      19.468  14.065  31.669  0.00  0.00    +0.034 A 
ATOM      6  C3  UNL     1      19.892  12.800  32.115  0.00  0.00    +0.025 A 
ATOM      7  C4  UNL     1      19.397  12.269  33.309  0.00  0.00    +0.025 A 
ATOM      8  C5  UNL     1      18.465  12.988  34.076  0.00  0.00    +0.030 A 
ATOM      9  C10 UNL     1      18.028  14.243  33.620  0.00  0.00    +0.025 A 
ATOM     10  C11 UNL     1      18.522  14.772  32.424  0.00  0.00    +0.025 A 
BRANCH   8  11
ATOM     11  N2  UNL     1      17.939  12.440  35.300  0.00  0.00    -0.326 N 
ATOM     12  C6  UNL     1      18.813  11.700  36.214  0.00  0.00    +0.133 C 
ATOM     13  C7  UNL     1      17.986  10.686  37.009  0.00  0.00    +0.178 C 
ATOM     14  O2  UNL     1      16.884  11.315  37.635  0.00  0.00    -0.377 OA
ATOM     15  C8  UNL     1      15.994  11.812  36.654  0.00  0.00    +0.178 C 
ATOM     16  C9  UNL     1      16.656  12.919  35.825  0.00  0.00    +0.133 C 
ENDBRANCH   8  11
ENDBRANCH   3   5
BRANCH   2  17
ATOM     17  C12 UNL     1      21.844  15.047  28.809  0.00  0.00    +0.037 A 
ATOM     18  C13 UNL     1      21.554  16.119  27.948  0.00  0.00    +0.013 A 
ATOM     19  C14 UNL     1      22.055  16.138  26.642  0.00  0.00    +0.009 A 
ATOM     20  C15 UNL     1      22.853  15.083  26.168  0.00  0.00    -0.018 A 
ATOM     21  C24 UNL     1      23.141  14.010  27.029  0.00  0.00    +0.009 A 
ATOM     22  C25 UNL     1      22.640  13.990  28.333  0.00  0.00    +0.013 A 
BRANCH  20  23
ATOM     23  C16 UNL     1      23.375  15.097  24.777  0.00  0.00    -0.017 A 
ATOM     24  C17 UNL     1      24.446  15.962  24.419  0.00  0.00    +0.010 A 
ATOM     25  C18 UNL     1      24.946  15.985  23.104  0.00  0.00    +0.027 A 
ATOM     26  C19 UNL     1      24.359  15.137  22.169  0.00  0.00    +0.046 A 
ATOM     27  N3  UNL     1      24.677  15.008  20.870  0.00  0.00    -0.361 N 
ATOM     28  C20 UNL     1      23.832  14.076  20.374  0.00  0.00    +0.083 A 
ATOM     29  C21 UNL     1      22.973  13.611  21.365  0.00  0.00    +0.027 A 
ATOM     30  C22 UNL     1      23.329  14.302  22.503  0.00  0.00    +0.000 A 
ATOM     31  C23 UNL     1      22.808  14.252  23.793  0.00  0.00    +0.018 A 
ATOM     32  H18 UNL     1      25.421  15.522  20.348  0.00  0.00    +0.165 HD
ENDBRANCH  20  23
ENDBRANCH   2  17
TORSDOF 4
ENDMDL
MODEL 5
REMARK VINA RESULT:    -7.040     12.917     14.339
REMARK INTER + INTRA:          -9.504
REMARK INTER:                  -8.701
REMARK INTRA:                  -0.803
REMARK UNBOUND:                -0.817
REMARK  Name = /home/qwerty/github/datacon2025hack/step_04_hit_selection/docking/ligands/lig_408.pdb
REMARK  4 active torsions:
REMARK  status: ('A' for Active; 'I' for Inactive)
REMARK    1  A    between atoms: C1_2  and  C12_16
REMARK    2  A    between atoms: N1_3  and  C2_4
REMARK    3  A    between atoms: C5_7  and  N2_8
REMARK    4  A    between atoms: C15_19  and  C16_20
REMARK                            x       y       z     vdW  Elec       q    Type
REMARK                         _______ _______ _______ _____ _____    ______ ____
ROOT
ATOM      1  O1  UNL     1      21.038   3.707  27.146  0.00  0.00    -0.270 OA
ATOM      2  C1  UNL     1      20.980   3.046  28.220  0.00  0.00    +0.248 C 
ATOM      3  N1  UNL     1      20.538   1.679  28.188  0.00  0.00    -0.282 N 
ATOM      4  H1  UNL     1      20.947   1.015  28.884  0.00  0.00    +0.155 HD
ENDROOT
BRANCH   3   5
ATOM      5  C2  UNL     1      19.659   1.148  27.181  0.00  0.00    +0.034 A 
ATOM      6  C3  UNL     1      20.160   0.609  25.983  0.00  0.00    +0.025 A 
ATOM      7  C4  UNL     1      19.286   0.134  25.001  0.00  0.00    +0.025 A 
ATOM      8  C5  UNL     1      17.896   0.195  25.195  0.00  0.00    +0.030 A 
ATOM      9  C10 UNL     1      17.396   0.751  26.384  0.00  0.00    +0.025 A 
ATOM     10  C11 UNL     1      18.271   1.228  27.364  0.00  0.00    +0.025 A 
BRANCH   8  11
ATOM     11  N2  UNL     1      16.989  -0.279  24.182  0.00  0.00    -0.326 N 
ATOM     12  C6  UNL     1      17.360  -1.412  23.328  0.00  0.00    +0.133 C 
ATOM     13  C7  UNL     1      16.643  -1.298  21.981  0.00  0.00    +0.178 C 
ATOM     14  O2  UNL     1      15.249  -1.137  22.164  0.00  0.00    -0.377 OA
ATOM     15  C8  UNL     1      14.990   0.095  22.813  0.00  0.00    +0.178 C 
ATOM     16  C9  UNL     1      15.573   0.099  24.230  0.00  0.00    +0.133 C 
ENDBRANCH   8  11
ENDBRANCH   3   5
BRANCH   2  17
ATOM     17  C12 UNL     1      21.409   3.676  29.491  0.00  0.00    +0.037 A 
ATOM     18  C13 UNL     1      21.803   2.891  30.588  0.00  0.00    +0.013 A 
ATOM     19  C14 UNL     1      22.183   3.492  31.792  0.00  0.00    +0.009 A 
ATOM     20  C15 UNL     1      22.172   4.890  31.928  0.00  0.00    -0.018 A 
ATOM     21  C24 UNL     1      21.775   5.675  30.831  0.00  0.00    +0.009 A 
ATOM     22  C25 UNL     1      21.395   5.075  29.628  0.00  0.00    +0.013 A 
BRANCH  20  23
ATOM     23  C16 UNL     1      22.562   5.528  33.212  0.00  0.00    -0.017 A 
ATOM     24  C17 UNL     1      23.915   5.897  33.450  0.00  0.00    +0.010 A 
ATOM     25  C18 UNL     1      24.297   6.499  34.662  0.00  0.00    +0.027 A 
ATOM     26  C19 UNL     1      23.310   6.719  35.619  0.00  0.00    +0.046 A 
ATOM     27  N3  UNL     1      23.459   7.269  36.835  0.00  0.00    -0.361 N 
ATOM     28  C20 UNL     1      22.228   7.264  37.396  0.00  0.00    +0.083 A 
ATOM     29  C21 UNL     1      21.293   6.707  36.530  0.00  0.00    +0.027 A 
ATOM     30  C22 UNL     1      22.006   6.368  35.401  0.00  0.00    +0.000 A 
ATOM     31  C23 UNL     1      21.592   5.771  34.214  0.00  0.00    +0.018 A 
ATOM     32  H18 UNL     1      24.342   7.626  37.263  0.00  0.00    +0.165 HD
ENDBRANCH  20  23
ENDBRANCH   2  17
TORSDOF 4
ENDMDL
MODEL 6
REMARK VINA RESULT:    -6.924     14.951     17.261
REMARK INTER + INTRA:          -9.360
REMARK INTER:                  -8.504
REMARK INTRA:                  -0.855
REMARK UNBOUND:                -0.817
REMARK  Name = /home/qwerty/github/datacon2025hack/step_04_hit_selection/docking/ligands/lig_408.pdb
REMARK  4 active torsions:
REMARK  status: ('A' for Active; 'I' for Inactive)
REMARK    1  A    between atoms: C1_2  and  C12_16
REMARK    2  A    between atoms: N1_3  and  C2_4
REMARK    3  A    between atoms: C5_7  and  N2_8
REMARK    4  A    between atoms: C15_19  and  C16_20
REMARK                            x       y       z     vdW  Elec       q    Type
REMARK                         _______ _______ _______ _____ _____    ______ ____
ROOT
ATOM      1  O1  UNL     1       6.934   0.002  29.521  0.00  0.00    -0.270 OA
ATOM      2  C1  UNL     1       8.059   0.080  28.956  0.00  0.00    +0.248 C 
ATOM      3  N1  UNL     1       9.191  -0.588  29.537  0.00  0.00    -0.282 N 
ATOM      4  H1  UNL     1       9.927  -0.958  28.892  0.00  0.00    +0.155 HD
ENDROOT
BRANCH   3   5
ATOM      5  C2  UNL     1       9.312  -0.881  30.940  0.00  0.00    +0.034 A 
ATOM      6  C3  UNL     1       8.864  -2.103  31.473  0.00  0.00    +0.025 A 
ATOM      7  C4  UNL     1       8.954  -2.352  32.845  0.00  0.00    +0.025 A 
ATOM      8  C5  UNL     1       9.489  -1.383  33.710  0.00  0.00    +0.030 A 
ATOM      9  C10 UNL     1       9.919  -0.156  33.180  0.00  0.00    +0.025 A 
ATOM     10  C11 UNL     1       9.825   0.093  31.807  0.00  0.00    +0.025 A 
BRANCH   8  11
ATOM     11  N2  UNL     1       9.572  -1.627  35.127  0.00  0.00    -0.326 N 
ATOM     12  C6  UNL     1       8.796  -2.710  35.739  0.00  0.00    +0.133 C 
ATOM     13  C7  UNL     1       8.497  -2.367  37.200  0.00  0.00    +0.178 C 
ATOM     14  O2  UNL     1       9.685  -2.036  37.894  0.00  0.00    -0.377 OA
ATOM     15  C8  UNL     1      10.241  -0.851  37.355  0.00  0.00    +0.178 C 
ATOM     16  C9  UNL     1      10.683  -1.066  35.903  0.00  0.00    +0.133 C 
ENDBRANCH   8  11
ENDBRANCH   3   5
BRANCH   2  17
ATOM     17  C12 UNL     1       8.189   0.825  27.682  0.00  0.00    +0.037 A 
ATOM     18  C13 UNL     1       7.100   1.536  27.148  0.00  0.00    +0.013 A 
ATOM     19  C14 UNL     1       7.222   2.217  25.933  0.00  0.00    +0.009 A 
ATOM     20  C15 UNL     1       8.434   2.198  25.221  0.00  0.00    -0.018 A 
ATOM     21  C24 UNL     1       9.522   1.485  25.754  0.00  0.00    +0.009 A 
ATOM     22  C25 UNL     1       9.400   0.804  26.969  0.00  0.00    +0.013 A 
BRANCH  20  23
ATOM     23  C16 UNL     1       8.560   2.910  23.924  0.00  0.00    -0.017 A 
ATOM     24  C17 UNL     1       9.656   2.643  23.059  0.00  0.00    +0.010 A 
ATOM     25  C18 UNL     1       9.786   3.313  21.829  0.00  0.00    +0.027 A 
ATOM     26  C19 UNL     1       8.809   4.246  21.489  0.00  0.00    +0.046 A 
ATOM     27  N3  UNL     1       8.747   4.995  20.376  0.00  0.00    -0.361 N 
ATOM     28  C20 UNL     1       7.631   5.747  20.500  0.00  0.00    +0.083 A 
ATOM     29  C21 UNL     1       6.981   5.474  21.700  0.00  0.00    +0.027 A 
ATOM     30  C22 UNL     1       7.751   4.511  22.314  0.00  0.00    +0.000 A 
ATOM     31  C23 UNL     1       7.590   3.867  23.538  0.00  0.00    +0.018 A 
ATOM     32  H18 UNL     1       9.421   4.999  19.579  0.00  0.00    +0.165 HD
ENDBRANCH  20  23
ENDBRANCH   2  17
TORSDOF 4
ENDMDL
MODEL 7
REMARK VINA RESULT:    -6.898      8.750     10.085
REMARK INTER + INTRA:          -9.328
REMARK INTER:                  -8.482
REMARK INTRA:                  -0.845
REMARK UNBOUND:                -0.817
REMARK  Name = /home/qwerty/github/datacon2025hack/step_04_hit_selection/docking/ligands/lig_408.pdb
REMARK  4 active torsions:
REMARK  status: ('A' for Active; 'I' for Inactive)
REMARK    1  A    between atoms: C1_2  and  C12_16
REMARK    2  A    between atoms: N1_3  and  C2_4
REMARK    3  A    between atoms: C5_7  and  N2_8
REMARK    4  A    between atoms: C15_19  and  C16_20
REMARK                            x       y       z     vdW  Elec       q    Type
REMARK                         _______ _______ _______ _____ _____    ______ ____
ROOT
ATOM      1  O1  UNL     1       9.964  10.018  30.513  0.00  0.00    -0.270 OA
ATOM      2  C1  UNL     1      10.432  11.179  30.351  0.00  0.00    +0.248 C 
ATOM      3  N1  UNL     1      10.147  11.895  29.139  0.00  0.00    -0.282 N 
ATOM      4  H1  UNL     1      10.067  12.937  29.192  0.00  0.00    +0.155 HD
ENDROOT
BRANCH   3   5
ATOM      5  C2  UNL     1       9.849  11.257  27.886  0.00  0.00    +0.034 A 
ATOM      6  C3  UNL     1      10.871  10.774  27.049  0.00  0.00    +0.025 A 
ATOM      7  C4  UNL     1      10.561  10.192  25.817  0.00  0.00    +0.025 A 
ATOM      8  C5  UNL     1       9.224  10.086  25.396  0.00  0.00    +0.030 A 
ATOM      9  C10 UNL     1       8.206  10.585  26.224  0.00  0.00    +0.025 A 
ATOM     10  C11 UNL     1       8.518  11.170  27.455  0.00  0.00    +0.025 A 
BRANCH   8  11
ATOM     11  N2  UNL     1       8.898   9.500  24.121  0.00  0.00    -0.326 N 
ATOM     12  C6  UNL     1       9.371   8.155  23.783  0.00  0.00    +0.133 C 
ATOM     13  C7  UNL     1       9.517   8.028  22.264  0.00  0.00    +0.178 C 
ATOM     14  O2  UNL     1       8.322   8.409  21.609  0.00  0.00    -0.377 OA
ATOM     15  C8  UNL     1       8.071   9.784  21.831  0.00  0.00    +0.178 C 
ATOM     16  C9  UNL     1       7.808  10.060  23.315  0.00  0.00    +0.133 C 
ENDBRANCH   8  11
ENDBRANCH   3   5
BRANCH   2  17
ATOM     17  C12 UNL     1      11.233  11.802  31.432  0.00  0.00    +0.037 A 
ATOM     18  C13 UNL     1      11.926  13.005  31.214  0.00  0.00    +0.013 A 
ATOM     19  C14 UNL     1      12.700  13.574  32.230  0.00  0.00    +0.009 A 
ATOM     20  C15 UNL     1      12.802  12.951  33.485  0.00  0.00    -0.018 A 
ATOM     21  C24 UNL     1      12.111  11.746  33.702  0.00  0.00    +0.009 A 
ATOM     22  C25 UNL     1      11.338  11.176  32.686  0.00  0.00    +0.013 A 
BRANCH  20  23
ATOM     23  C16 UNL     1      13.635  13.548  34.560  0.00  0.00    -0.017 A 
ATOM     24  C17 UNL     1      14.520  12.736  35.321  0.00  0.00    +0.010 A 
ATOM     25  C18 UNL     1      15.311  13.292  36.343  0.00  0.00    +0.027 A 
ATOM     26  C19 UNL     1      15.198  14.659  36.584  0.00  0.00    +0.046 A 
ATOM     27  N3  UNL     1      15.851  15.382  37.509  0.00  0.00    -0.361 N 
ATOM     28  C20 UNL     1      15.407  16.651  37.365  0.00  0.00    +0.083 A 
ATOM     29  C21 UNL     1      14.466  16.733  36.343  0.00  0.00    +0.027 A 
ATOM     30  C22 UNL     1      14.350  15.448  35.858  0.00  0.00    +0.000 A 
ATOM     31  C23 UNL     1      13.552  14.934  34.840  0.00  0.00    +0.018 A 
ATOM     32  H18 UNL     1      16.555  15.038  38.198  0.00  0.00    +0.165 HD
ENDBRANCH  20  23
ENDBRANCH   2  17
TORSDOF 4
ENDMDL
MODEL 8
REMARK VINA RESULT:    -6.702      8.594     11.511
REMARK INTER + INTRA:          -9.086
REMARK INTER:                  -8.338
REMARK INTRA:                  -0.748
REMARK UNBOUND:                -0.817
REMARK  Name = /home/qwerty/github/datacon2025hack/step_04_hit_selection/docking/ligands/lig_408.pdb
REMARK  4 active torsions:
REMARK  status: ('A' for Active; 'I' for Inactive)
REMARK    1  A    between atoms: C1_2  and  C12_16
REMARK    2  A    between atoms: N1_3  and  C2_4
REMARK    3  A    between atoms: C5_7  and  N2_8
REMARK    4  A    between atoms: C15_19  and  C16_20
REMARK                            x       y       z     vdW  Elec       q    Type
REMARK                         _______ _______ _______ _____ _____    ______ ____
ROOT
ATOM      1  O1  UNL     1      11.823  12.694  27.759  0.00  0.00    -0.270 OA
ATOM      2  C1  UNL     1      10.799  11.965  27.869  0.00  0.00    +0.248 C 
ATOM      3  N1  UNL     1      10.025  12.008  29.079  0.00  0.00    -0.282 N 
ATOM      4  H1  UNL     1       8.994  11.850  29.008  0.00  0.00    +0.155 HD
ENDROOT
BRANCH   3   5
ATOM      5  C2  UNL     1      10.567  12.371  30.360  0.00  0.00    +0.034 A 
ATOM      6  C3  UNL     1      10.733  13.718  30.730  0.00  0.00    +0.025 A 
ATOM      7  C4  UNL     1      11.298  14.049  31.964  0.00  0.00    +0.025 A 
ATOM      8  C5  UNL     1      11.714  13.040  32.850  0.00  0.00    +0.030 A 
ATOM      9  C10 UNL     1      11.565  11.696  32.472  0.00  0.00    +0.025 A 
ATOM     10  C11 UNL     1      11.003  11.366  31.236  0.00  0.00    +0.025 A 
BRANCH   8  11
ATOM     11  N2  UNL     1      12.311  13.374  34.118  0.00  0.00    -0.326 N 
ATOM     12  C6  UNL     1      13.193  14.538  34.237  0.00  0.00    +0.133 C 
ATOM     13  C7  UNL     1      14.193  14.312  35.373  0.00  0.00    +0.178 C 
ATOM     14  O2  UNL     1      13.525  13.961  36.570  0.00  0.00    -0.377 OA
ATOM     15  C8  UNL     1      12.877  12.713  36.410  0.00  0.00    +0.178 C 
ATOM     16  C9  UNL     1      11.768  12.803  35.355  0.00  0.00    +0.133 C 
ENDBRANCH   8  11
ENDBRANCH   3   5
BRANCH   2  17
ATOM     17  C12 UNL     1      10.386  11.107  26.733  0.00  0.00    +0.037 A 
ATOM     18  C13 UNL     1      11.291  10.784  25.707  0.00  0.00    +0.013 A 
ATOM     19  C14 UNL     1      10.887   9.994  24.626  0.00  0.00    +0.009 A 
ATOM     20  C15 UNL     1       9.569   9.513  24.544  0.00  0.00    -0.018 A 
ATOM     21  C24 UNL     1       8.664   9.839  25.570  0.00  0.00    +0.009 A 
ATOM     22  C25 UNL     1       9.066  10.629  26.649  0.00  0.00    +0.013 A 
BRANCH  20  23
ATOM     23  C16 UNL     1       9.138   8.685  23.390  0.00  0.00    -0.017 A 
ATOM     24  C17 UNL     1       9.140   9.226  22.074  0.00  0.00    +0.010 A 
ATOM     25  C18 UNL     1       8.731   8.451  20.974  0.00  0.00    +0.027 A 
ATOM     26  C19 UNL     1       8.324   7.142  21.215  0.00  0.00    +0.046 A 
ATOM     27  N3  UNL     1       7.893   6.242  20.316  0.00  0.00    -0.361 N 
ATOM     28  C20 UNL     1       7.607   5.124  21.021  0.00  0.00    +0.083 A 
ATOM     29  C21 UNL     1       7.859   5.316  22.376  0.00  0.00    +0.027 A 
ATOM     30  C22 UNL     1       8.317   6.612  22.476  0.00  0.00    +0.000 A 
ATOM     31  C23 UNL     1       8.715   7.348  23.588  0.00  0.00    +0.018 A 
ATOM     32  H18 UNL     1       7.795   6.376  19.285  0.00  0.00    +0.165 HD
ENDBRANCH  20  23
ENDBRANCH   2  17
TORSDOF 4
ENDMDL
MODEL 9
REMARK VINA RESULT:    -6.629     13.318     14.492
REMARK INTER + INTRA:          -8.996
REMARK INTER:                  -8.138
REMARK INTRA:                  -0.858
REMARK UNBOUND:                -0.817
REMARK  Name = /home/qwerty/github/datacon2025hack/step_04_hit_selection/docking/ligands/lig_408.pdb
REMARK  4 active torsions:
REMARK  status: ('A' for Active; 'I' for Inactive)
REMARK    1  A    between atoms: C1_2  and  C12_16
REMARK    2  A    between atoms: N1_3  and  C2_4
REMARK    3  A    between atoms: C5_7  and  N2_8
REMARK    4  A    between atoms: C15_19  and  C16_20
REMARK                            x       y       z     vdW  Elec       q    Type
REMARK                         _______ _______ _______ _____ _____    ______ ____
ROOT
ATOM      1  O1  UNL     1      17.860   1.371  33.541  0.00  0.00    -0.270 OA
ATOM      2  C1  UNL     1      18.538   1.870  34.481  0.00  0.00    +0.248 C 
ATOM      3  N1  UNL     1      18.298   1.443  35.832  0.00  0.00    -0.282 N 
ATOM      4  H1  UNL     1      19.108   1.428  36.493  0.00  0.00    +0.155 HD
ENDROOT
BRANCH   3   5
ATOM      5  C2  UNL     1      17.038   0.925  36.293  0.00  0.00    +0.034 A 
ATOM      6  C3  UNL     1      16.807  -0.459  36.385  0.00  0.00    +0.025 A 
ATOM      7  C4  UNL     1      15.562  -0.942  36.798  0.00  0.00    +0.025 A 
ATOM      8  C5  UNL     1      14.524  -0.052  37.120  0.00  0.00    +0.030 A 
ATOM      9  C10 UNL     1      14.751   1.329  37.010  0.00  0.00    +0.025 A 
ATOM     10  C11 UNL     1      15.995   1.811  36.594  0.00  0.00    +0.025 A 
BRANCH   8  11
ATOM     11  N2  UNL     1      13.234  -0.543  37.533  0.00  0.00    -0.326 N 
ATOM     12  C6  UNL     1      12.798  -1.889  37.151  0.00  0.00    +0.133 C 
ATOM     13  C7  UNL     1      11.270  -1.933  37.077  0.00  0.00    +0.178 C 
ATOM     14  O2  UNL     1      10.693  -1.450  38.275  0.00  0.00    -0.377 OA
ATOM     15  C8  UNL     1      11.004  -0.079  38.439  0.00  0.00    +0.178 C 
ATOM     16  C9  UNL     1      12.512   0.122  38.623  0.00  0.00    +0.133 C 
ENDBRANCH   8  11
ENDBRANCH   3   5
BRANCH   2  17
ATOM     17  C12 UNL     1      19.600   2.858  34.174  0.00  0.00    +0.037 A 
ATOM     18  C13 UNL     1      20.852   2.443  33.687  0.00  0.00    +0.013 A 
ATOM     19  C14 UNL     1      21.857   3.379  33.423  0.00  0.00    +0.009 A 
ATOM     20  C15 UNL     1      21.635   4.749  33.645  0.00  0.00    -0.018 A 
ATOM     21  C24 UNL     1      20.384   5.162  34.134  0.00  0.00    +0.009 A 
ATOM     22  C25 UNL     1      19.379   4.228  34.399  0.00  0.00    +0.013 A 
BRANCH  20  23
ATOM     23  C16 UNL     1      22.707   5.740  33.376  0.00  0.00    -0.017 A 
ATOM     24  C17 UNL     1      24.075   5.375  33.506  0.00  0.00    +0.010 A 
ATOM     25  C18 UNL     1      25.099   6.307  33.257  0.00  0.00    +0.027 A 
ATOM     26  C19 UNL     1      24.729   7.596  32.880  0.00  0.00    +0.046 A 
ATOM     27  N3  UNL     1      25.539   8.631  32.605  0.00  0.00    -0.361 N 
ATOM     28  C20 UNL     1      24.724   9.666  32.298  0.00  0.00    +0.083 A 
ATOM     29  C21 UNL     1      23.389   9.284  32.380  0.00  0.00    +0.027 A 
ATOM     30  C22 UNL     1      23.416   7.958  32.753  0.00  0.00    +0.000 A 
ATOM     31  C23 UNL     1      22.377   7.063  32.991  0.00  0.00    +0.018 A 
ATOM     32  H18 UNL     1      26.583   8.638  32.624  0.00  0.00    +0.165 HD
ENDBRANCH  20  23
ENDBRANCH   2  17
TORSDOF 4
ENDMDL
