REMARK  Name = /home/qwerty/github/datacon2025hack/step_04_hit_selection/docking/ligands/lig_241.pdb
REMARK  5 active torsions:
REMARK  status: ('A' for Active; 'I' for Inactive)
REMARK    1  A    between atoms: C1_1  and  C2_2
REMARK    2  A    between atoms: C2_2  and  N1_3
REMARK    3  A    between atoms: C2_2  and  C13_19
REMARK    4  A    between atoms: C3_4  and  C4_6
REMARK    5  A    between atoms: N2_8  and  C5_9
REMARK                            x       y       z     vdW  Elec       q    Type
REMARK                         _______ _______ _______ _____ _____    ______ ____
ROOT
ATOM      1  C4  UNL     1       0.237  -0.361  -0.033  0.00  0.00    +0.299 C 
ATOM      2  O2  UNL     1       0.313  -1.512   0.476  0.00  0.00    -0.265 OA
ATOM      3  N2  UNL     1      -1.047   0.247  -0.249  0.00  0.00    -0.302 N 
ATOM      4  H6  UNL     1      -1.090   1.163  -0.750  0.00  0.00    +0.150 HD
ENDROOT
BRANCH   3   5
ATOM      5  C5  UNL     1      -2.308  -0.457   0.007  0.00  0.00    +0.102 C 
ATOM      6  C6  UNL     1      -2.882  -1.027  -1.310  0.00  0.00    +0.120 C 
ATOM      7  C7  UNL     1      -4.267  -0.515  -1.333  0.00  0.00    +0.218 C 
ATOM      8  O3  UNL     1      -5.120  -0.837  -2.201  0.00  0.00    -0.276 OA
ATOM      9  N3  UNL     1      -4.547   0.370  -0.269  0.00  0.00    -0.297 N 
ATOM     10  C8  UNL     1      -5.880   0.841   0.105  0.00  0.00    +0.108 C 
ATOM     11  C9  UNL     1      -5.799   1.695   1.376  0.00  0.00    +0.019 C 
ATOM     12  C10 UNL     1      -5.017   0.989   2.506  0.00  0.00    +0.003 C 
ATOM     13  C11 UNL     1      -3.779   0.187   2.032  0.00  0.00    +0.024 C 
ATOM     14  C12 UNL     1      -3.379   0.516   0.583  0.00  0.00    +0.097 C 
ENDBRANCH   3   5
BRANCH   1  16
ATOM     15  N1  UNL     1       2.761  -0.252  -0.189  0.00  0.00    -0.301 N 
ATOM     16  C3  UNL     1       1.475   0.355  -0.400  0.00  0.00    +0.299 C 
ATOM     17  O1  UNL     1       1.399   1.507  -0.908  0.00  0.00    -0.265 OA
ATOM     18  H5  UNL     1       2.797  -1.218   0.210  0.00  0.00    +0.150 HD
BRANCH  15  20
ATOM     19  C1  UNL     1       4.329   1.490   0.572  0.00  0.00    +0.033 C 
ATOM     20  C2  UNL     1       4.015   0.443  -0.503  0.00  0.00    +0.102 C 
BRANCH  20  21
ATOM     21  C13 UNL     1       5.156  -0.548  -0.642  0.00  0.00    -0.009 A 
ATOM     22  C14 UNL     1       5.852  -0.666  -1.857  0.00  0.00    +0.008 A 
ATOM     23  C15 UNL     1       6.901  -1.578  -1.979  0.00  0.00    +0.020 A 
ATOM     24  C16 UNL     1       7.249  -2.371  -0.885  0.00  0.00    +0.111 A 
ATOM     25  N4  UNL     1       6.567  -2.254   0.284  0.00  0.00    -0.263 NA
ATOM     26  C17 UNL     1       5.542  -1.372   0.431  0.00  0.00    +0.116 A 
ENDBRANCH  20  21
ENDBRANCH  15  20
ENDBRANCH   1  16
TORSDOF 4
