REMARK  Name = /home/qwerty/github/datacon2025hack/step_04_hit_selection/docking/ligands/lig_214.pdb
REMARK  8 active torsions:
REMARK  status: ('A' for Active; 'I' for Inactive)
REMARK    1  A    between atoms: C1_1  and  C2_2
REMARK    2  A    between atoms: C2_2  and  C3_3
REMARK    3  A    between atoms: C2_2  and  C4_4
REMARK    4  A    between atoms: C2_2  and  O1_5
REMARK    5  A    between atoms: O1_5  and  C5_6
REMARK    6  A    between atoms: C9_12  and  N2_13
REMARK    7  A    between atoms: N3_16  and  C11_17
REMARK    8  A    between atoms: C15_22  and  C16_23
REMARK                            x       y       z     vdW  Elec       q    Type
REMARK                         _______ _______ _______ _____ _____    ______ ____
ROOT
ATOM      1  N2  UNL     1       0.746   0.834   0.684  0.00  0.00    -0.295 N 
ATOM      2  C10 UNL     1       2.178   0.749   0.670  0.00  0.00    +0.304 C 
ATOM      3  O3  UNL     1       2.859   1.653   0.113  0.00  0.00    -0.253 OA
ATOM      4  N3  UNL     1       2.829  -0.343   1.335  0.00  0.00    -0.269 N 
ATOM      5  H17 UNL     1       0.223   0.140   1.264  0.00  0.00    +0.151 HD
ATOM      6  H18 UNL     1       2.272  -0.893   2.026  0.00  0.00    +0.156 HD
ENDROOT
BRANCH   1  13
ATOM      7  C5  UNL     1      -3.671   0.786   0.064  0.00  0.00    +0.403 C 
ATOM      8  O2  UNL     1      -4.220   1.679   0.766  0.00  0.00    -0.226 OA
ATOM      9  N1  UNL     1      -2.268   0.885  -0.248  0.00  0.00    -0.266 N 
ATOM     10  C6  UNL     1      -1.624  -0.153  -1.070  0.00  0.00    +0.111 C 
ATOM     11  C7  UNL     1      -0.572   0.433  -2.031  0.00  0.00    +0.021 C 
ATOM     12  C8  UNL     1       0.094   1.730  -1.535  0.00  0.00    +0.025 C 
ATOM     13  C9  UNL     1       0.012   1.900  -0.011  0.00  0.00    +0.092 C 
ATOM     14  C18 UNL     1      -1.467   1.929   0.416  0.00  0.00    +0.133 C 
BRANCH   7  15
ATOM     15  O1  UNL     1      -4.418  -0.305  -0.412  0.00  0.00    -0.445 OA
BRANCH  15  17
ATOM     16  C1  UNL     1      -6.170  -1.854  -0.911  0.00  0.00    +0.055 C 
ATOM     17  C2  UNL     1      -5.816  -0.542  -0.194  0.00  0.00    +0.107 C 
ATOM     18  C3  UNL     1      -6.112  -0.702   1.310  0.00  0.00    +0.055 C 
ATOM     19  C4  UNL     1      -6.661   0.597  -0.796  0.00  0.00    +0.055 C 
ENDBRANCH  15  17
ENDBRANCH   7  15
ENDBRANCH   1  13
BRANCH   4  20
ATOM     20  C11 UNL     1       4.223  -0.660   1.184  0.00  0.00    +0.036 A 
ATOM     21  C12 UNL     1       4.924  -1.204   2.268  0.00  0.00    +0.026 A 
ATOM     22  C13 UNL     1       6.271  -1.546   2.139  0.00  0.00    +0.041 A 
ATOM     23  C14 UNL     1       6.935  -1.357   0.924  0.00  0.00    +0.136 A 
ATOM     24  F1  UNL     1       8.227  -1.757   0.819  0.00  0.00    -0.205 F 
ATOM     25  C15 UNL     1       6.247  -0.819  -0.182  0.00  0.00    +0.073 A 
ATOM     26  C17 UNL     1       4.885  -0.492  -0.046  0.00  0.00    +0.039 A 
BRANCH  25  27
ATOM     27  C16 UNL     1       6.917  -0.623  -1.488  0.00  0.00    +0.244 C 
ATOM     28  N4  UNL     1       8.296  -0.254  -1.568  0.00  0.00    -0.325 N 
ATOM     29  O4  UNL     1       6.257  -0.757  -2.554  0.00  0.00    -0.270 OA
ATOM     30  H21 UNL     1       8.827   0.047  -0.722  0.00  0.00    +0.145 HD
ATOM     31  H22 UNL     1       8.764  -0.183  -2.499  0.00  0.00    +0.145 HD
ENDBRANCH  25  27
ENDBRANCH   4  20
TORSDOF 5
