REMARK  Name = /home/qwerty/github/datacon2025hack/step_04_hit_selection/docking/ligands/lig_606.pdb
REMARK  11 active torsions:
REMARK  status: ('A' for Active; 'I' for Inactive)
REMARK    1  A    between atoms: C1_1  and  C2_2
REMARK    2  A    between atoms: C2_2  and  C3_3
REMARK    3  A    between atoms: C2_2  and  C4_4
REMARK    4  A    between atoms: C6_6  and  C7_7
REMARK    5  A    between atoms: N1_9  and  C8_10
REMARK    6  A    between atoms: C8_10  and  C9_11
REMARK    7  A    between atoms: C9_11  and  O2_12
REMARK    8  A    between atoms: C9_11  and  C10_13
REMARK    9  A    between atoms: C10_13  and  N2_14
REMARK   10  A    between atoms: C11_15  and  C12_17
REMARK   11  A    between atoms: N5_20  and  C13_21
REMARK                            x       y       z     vdW  Elec       q    Type
REMARK                         _______ _______ _______ _____ _____    ______ ____
ROOT
ATOM      1  C8  UNL     1      -0.702  -1.459   0.955  0.00  0.00    +0.137 C 
ENDROOT
BRANCH   1   4
ATOM      2  C7  UNL     1       1.711  -1.094   1.660  0.00  0.00    +0.264 C 
ATOM      3  O1  UNL     1       1.483  -1.616   2.785  0.00  0.00    -0.268 OA
ATOM      4  N1  UNL     1       0.667  -1.026   0.676  0.00  0.00    -0.308 N 
ATOM      5  H9  UNL     1       0.889  -0.716  -0.296  0.00  0.00    +0.149 HD
BRANCH   2   8
ATOM      6  C4  UNL     1       4.803   0.382   0.477  0.00  0.00    +0.039 A 
ATOM      7  C5  UNL     1       3.473   0.092   0.235  0.00  0.00    +0.057 A 
ATOM      8  C6  UNL     1       3.059  -0.567   1.381  0.00  0.00    +0.147 A 
ATOM      9  N7  UNL     1       4.085  -0.658   2.251  0.00  0.00    -0.169 NA
ATOM     10  N8  UNL     1       5.138  -0.082   1.695  0.00  0.00    -0.281 N 
ATOM     11  H20 UNL     1       6.074  -0.008   2.151  0.00  0.00    +0.189 HD
BRANCH   6  13
ATOM     12  C1  UNL     1       5.918   0.336  -1.759  0.00  0.00    +0.014 C 
ATOM     13  C2  UNL     1       5.749   1.105  -0.445  0.00  0.00    +0.031 C 
ATOM     14  C3  UNL     1       5.263   2.535  -0.704  0.00  0.00    +0.014 C 
ENDBRANCH   6  13
ENDBRANCH   2   8
ENDBRANCH   1   4
BRANCH   1  15
ATOM     15  C9  UNL     1      -1.430  -0.423   1.826  0.00  0.00    +0.149 C 
BRANCH  15  16
ATOM     16  O2  UNL     1      -1.495   0.800   1.141  0.00  0.00    -0.389 OA
ATOM     17  H13 UNL     1      -1.686   1.500   1.819  0.00  0.00    +0.210 HD
ENDBRANCH  15  16
BRANCH  15  18
ATOM     18  C10 UNL     1      -2.843  -0.905   2.209  0.00  0.00    +0.137 C 
BRANCH  18  19
ATOM     19  N2  UNL     1      -3.676  -1.128   1.026  0.00  0.00    -0.306 N 
ATOM     20  C11 UNL     1      -4.385  -0.071   0.363  0.00  0.00    +0.285 C 
ATOM     21  O3  UNL     1      -4.378   1.096   0.839  0.00  0.00    -0.267 OA
ATOM     22  H16 UNL     1      -3.782  -2.109   0.681  0.00  0.00    +0.149 HD
BRANCH  20  23
ATOM     23  C12 UNL     1      -5.133  -0.338  -0.873  0.00  0.00    +0.259 A 
ATOM     24  N3  UNL     1      -5.209  -1.543  -1.475  0.00  0.00    -0.103 NA
ATOM     25  N4  UNL     1      -5.971  -1.344  -2.539  0.00  0.00    -0.046 NA
ATOM     26  N5  UNL     1      -6.326  -0.071  -2.578  0.00  0.00    -0.166 N 
ATOM     27  C13 UNL     1      -7.221   0.500  -3.572  0.00  0.00    +0.199 C 
ATOM     28  N6  UNL     1      -5.835   0.594  -1.547  0.00  0.00    -0.126 NA
ENDBRANCH  20  23
ENDBRANCH  18  19
ENDBRANCH  15  18
ENDBRANCH   1  15
TORSDOF 8
