MODEL 1
REMARK VINA RESULT:    -7.594      0.000      0.000
REMARK INTER + INTRA:          -9.902
REMARK INTER:                  -9.369
REMARK INTRA:                  -0.533
REMARK UNBOUND:                -0.533
REMARK  Name = /home/qwerty/github/datacon2025hack/step_04_hit_selection/docking/ligands/lig_597.pdb
REMARK  6 active torsions:
REMARK  status: ('A' for Active; 'I' for Inactive)
REMARK    1  A    between atoms: C1_1  and  O1_2
REMARK    2  A    between atoms: O1_2  and  C2_3
REMARK    3  A    between atoms: C6_7  and  C7_8
REMARK    4  A    between atoms: N1_10  and  C8_11
REMARK    5  A    between atoms: C19_24  and  O5_25
REMARK    6  A    between atoms: C24_31  and  O7_32
REMARK                            x       y       z     vdW  Elec       q    Type
REMARK                         _______ _______ _______ _____ _____    ______ ____
ROOT
ATOM      1  C8  UNL     1      17.179   3.454  25.176  0.00  0.00    +0.034 A 
ATOM      2  C9  UNL     1      16.428   4.651  25.047  0.00  0.00    +0.024 A 
ATOM      3  C10 UNL     1      15.139   4.632  24.491  0.00  0.00    +0.017 A 
ATOM      4  C11 UNL     1      14.621   3.406  24.083  0.00  0.00    +0.067 A 
ATOM      5  C12 UNL     1      15.325   2.233  24.217  0.00  0.00    +0.021 A 
ATOM      6  C13 UNL     1      16.608   2.230  24.769  0.00  0.00    +0.032 A 
ATOM      7  C14 UNL     1      14.510   1.067  23.705  0.00  0.00    +0.196 C 
ATOM      8  O3  UNL     1      13.292   1.695  23.274  0.00  0.00    -0.440 OA
ATOM      9  C15 UNL     1      13.352   3.066  23.495  0.00  0.00    +0.341 C 
ATOM     10  O4  UNL     1      12.425   3.871  23.216  0.00  0.00    -0.245 OA
ATOM     11  C16 UNL     1      15.207   0.426  22.514  0.00  0.00    +0.047 A 
ATOM     12  C17 UNL     1      15.417   1.163  21.333  0.00  0.00    +0.015 A 
ATOM     13  C18 UNL     1      16.101   0.597  20.255  0.00  0.00    +0.046 A 
ATOM     14  C19 UNL     1      16.592  -0.711  20.342  0.00  0.00    +0.120 A 
ATOM     15  C20 UNL     1      16.391  -1.450  21.512  0.00  0.00    +0.092 A 
ATOM     16  C21 UNL     1      15.700  -0.892  22.593  0.00  0.00    +0.140 A 
ATOM     17  O6  UNL     1      15.499  -1.661  23.739  0.00  0.00    -0.455 OA
ATOM     18  C22 UNL     1      14.748  -1.208  24.824  0.00  0.00    +0.140 A 
ATOM     19  C23 UNL     1      14.521  -2.072  25.900  0.00  0.00    +0.092 A 
ATOM     20  C24 UNL     1      13.758  -1.655  26.995  0.00  0.00    +0.120 A 
ATOM     21  C25 UNL     1      13.222  -0.362  27.013  0.00  0.00    +0.046 A 
ATOM     22  C26 UNL     1      13.451   0.509  25.945  0.00  0.00    +0.015 A 
ATOM     23  C27 UNL     1      14.216   0.096  24.838  0.00  0.00    +0.047 A 
ENDROOT
BRANCH   1  26
ATOM     24  C7  UNL     1      18.816   2.776  26.990  0.00  0.00    +0.248 C 
ATOM     25  O2  UNL     1      17.899   2.497  27.812  0.00  0.00    -0.270 OA
ATOM     26  N1  UNL     1      18.490   3.455  25.765  0.00  0.00    -0.281 N 
ATOM     27  H7  UNL     1      19.215   4.077  25.340  0.00  0.00    +0.155 HD
BRANCH  24  32
ATOM     28  C2  UNL     1      21.840   0.974  28.414  0.00  0.00    +0.121 A 
ATOM     29  C3  UNL     1      22.886   1.796  27.955  0.00  0.00    +0.045 A 
ATOM     30  C4  UNL     1      22.602   2.925  27.183  0.00  0.00    +0.004 A 
ATOM     31  C5  UNL     1      21.282   3.249  26.867  0.00  0.00    +0.013 A 
ATOM     32  C6  UNL     1      20.223   2.446  27.326  0.00  0.00    +0.040 A 
ATOM     33  C28 UNL     1      20.517   1.304  28.093  0.00  0.00    +0.058 A 
BRANCH  28  35
ATOM     34  C1  UNL     1      22.923  -1.247  28.801  0.00  0.00    +0.277 C 
ATOM     35  O1  UNL     1      22.072  -0.174  29.188  0.00  0.00    -0.495 OA
ENDBRANCH  28  35
ENDBRANCH  24  32
ENDBRANCH   1  26
BRANCH  14  36
ATOM     36  O5  UNL     1      17.281  -1.285  19.276  0.00  0.00    -0.507 OA
ATOM     37  H13 UNL     1      18.269  -1.115  19.131  0.00  0.00    +0.292 HD
ENDBRANCH  14  36
BRANCH  20  38
ATOM     38  O7  UNL     1      13.540  -2.530  28.055  0.00  0.00    -0.507 OA
ATOM     39  H16 UNL     1      14.078  -3.383  28.158  0.00  0.00    +0.292 HD
ENDBRANCH  20  38
TORSDOF 5
ENDMDL
MODEL 2
REMARK VINA RESULT:    -7.402      2.268      5.424
REMARK INTER + INTRA:          -9.665
REMARK INTER:                  -8.999
REMARK INTRA:                  -0.667
REMARK UNBOUND:                -0.533
REMARK  Name = /home/qwerty/github/datacon2025hack/step_04_hit_selection/docking/ligands/lig_597.pdb
REMARK  6 active torsions:
REMARK  status: ('A' for Active; 'I' for Inactive)
REMARK    1  A    between atoms: C1_1  and  O1_2
REMARK    2  A    between atoms: O1_2  and  C2_3
REMARK    3  A    between atoms: C6_7  and  C7_8
REMARK    4  A    between atoms: N1_10  and  C8_11
REMARK    5  A    between atoms: C19_24  and  O5_25
REMARK    6  A    between atoms: C24_31  and  O7_32
REMARK                            x       y       z     vdW  Elec       q    Type
REMARK                         _______ _______ _______ _____ _____    ______ ____
ROOT
ATOM      1  C8  UNL     1      17.554   1.309  25.833  0.00  0.00    +0.034 A 
ATOM      2  C9  UNL     1      17.332   0.297  26.802  0.00  0.00    +0.024 A 
ATOM      3  C10 UNL     1      16.264  -0.604  26.664  0.00  0.00    +0.017 A 
ATOM      4  C11 UNL     1      15.443  -0.480  25.547  0.00  0.00    +0.067 A 
ATOM      5  C12 UNL     1      15.655   0.481  24.588  0.00  0.00    +0.021 A 
ATOM      6  C13 UNL     1      16.711   1.387  24.704  0.00  0.00    +0.032 A 
ATOM      7  C14 UNL     1      14.620   0.367  23.490  0.00  0.00    +0.196 C 
ATOM      8  O3  UNL     1      13.817  -0.742  23.924  0.00  0.00    -0.440 OA
ATOM      9  C15 UNL     1      14.296  -1.242  25.129  0.00  0.00    +0.341 C 
ATOM     10  O4  UNL     1      13.789  -2.216  25.745  0.00  0.00    -0.245 OA
ATOM     11  C16 UNL     1      13.771   1.628  23.439  0.00  0.00    +0.047 A 
ATOM     12  C17 UNL     1      12.973   1.992  24.540  0.00  0.00    +0.015 A 
ATOM     13  C18 UNL     1      12.232   3.176  24.518  0.00  0.00    +0.046 A 
ATOM     14  C19 UNL     1      12.281   4.017  23.401  0.00  0.00    +0.120 A 
ATOM     15  C20 UNL     1      13.072   3.665  22.303  0.00  0.00    +0.092 A 
ATOM     16  C21 UNL     1      13.812   2.478  22.315  0.00  0.00    +0.140 A 
ATOM     17  O6  UNL     1      14.577   2.145  21.197  0.00  0.00    -0.455 OA
ATOM     18  C22 UNL     1      15.274   0.941  21.097  0.00  0.00    +0.140 A 
ATOM     19  C23 UNL     1      15.949   0.644  19.908  0.00  0.00    +0.092 A 
ATOM     20  C24 UNL     1      16.642  -0.562  19.769  0.00  0.00    +0.120 A 
ATOM     21  C25 UNL     1      16.662  -1.476  20.829  0.00  0.00    +0.046 A 
ATOM     22  C26 UNL     1      15.997  -1.183  22.022  0.00  0.00    +0.015 A 
ATOM     23  C27 UNL     1      15.295   0.028  22.170  0.00  0.00    +0.047 A 
ENDROOT
BRANCH   1  26
ATOM     24  C7  UNL     1      19.932   2.022  25.315  0.00  0.00    +0.248 C 
ATOM     25  O2  UNL     1      20.282   0.858  24.975  0.00  0.00    -0.270 OA
ATOM     26  N1  UNL     1      18.657   2.224  25.948  0.00  0.00    -0.281 N 
ATOM     27  H7  UNL     1      18.563   3.019  26.621  0.00  0.00    +0.155 HD
BRANCH  24  32
ATOM     28  C2  UNL     1      21.371   5.304  24.056  0.00  0.00    +0.121 A 
ATOM     29  C3  UNL     1      22.616   5.322  24.711  0.00  0.00    +0.045 A 
ATOM     30  C4  UNL     1      22.977   4.273  25.558  0.00  0.00    +0.004 A 
ATOM     31  C5  UNL     1      22.109   3.197  25.759  0.00  0.00    +0.013 A 
ATOM     32  C6  UNL     1      20.865   3.156  25.105  0.00  0.00    +0.040 A 
ATOM     33  C28 UNL     1      20.504   4.222  24.261  0.00  0.00    +0.058 A 
BRANCH  28  35
ATOM     34  C1  UNL     1      19.879   6.229  22.275  0.00  0.00    +0.277 C 
ATOM     35  O1  UNL     1      20.958   6.335  23.197  0.00  0.00    -0.495 OA
ENDBRANCH  28  35
ENDBRANCH  24  32
ENDBRANCH   1  26
BRANCH  14  36
ATOM     36  O5  UNL     1      11.549   5.202  23.369  0.00  0.00    -0.507 OA
ATOM     37  H13 UNL     1      11.681   5.886  22.633  0.00  0.00    +0.292 HD
ENDBRANCH  14  36
BRANCH  20  38
ATOM     38  O7  UNL     1      17.305  -0.842  18.577  0.00  0.00    -0.507 OA
ATOM     39  H16 UNL     1      17.413  -0.140  17.853  0.00  0.00    +0.292 HD
ENDBRANCH  20  38
TORSDOF 5
ENDMDL
MODEL 3
REMARK VINA RESULT:    -7.382      2.874      5.645
REMARK INTER + INTRA:          -9.641
REMARK INTER:                  -9.094
REMARK INTRA:                  -0.547
REMARK UNBOUND:                -0.533
REMARK  Name = /home/qwerty/github/datacon2025hack/step_04_hit_selection/docking/ligands/lig_597.pdb
REMARK  6 active torsions:
REMARK  status: ('A' for Active; 'I' for Inactive)
REMARK    1  A    between atoms: C1_1  and  O1_2
REMARK    2  A    between atoms: O1_2  and  C2_3
REMARK    3  A    between atoms: C6_7  and  C7_8
REMARK    4  A    between atoms: N1_10  and  C8_11
REMARK    5  A    between atoms: C19_24  and  O5_25
REMARK    6  A    between atoms: C24_31  and  O7_32
REMARK                            x       y       z     vdW  Elec       q    Type
REMARK                         _______ _______ _______ _____ _____    ______ ____
ROOT
ATOM      1  C8  UNL     1      17.181  -0.091  23.490  0.00  0.00    +0.034 A 
ATOM      2  C9  UNL     1      17.497  -1.091  22.535  0.00  0.00    +0.024 A 
ATOM      3  C10 UNL     1      16.920  -1.067  21.255  0.00  0.00    +0.017 A 
ATOM      4  C11 UNL     1      16.043  -0.029  20.952  0.00  0.00    +0.067 A 
ATOM      5  C12 UNL     1      15.741   0.960  21.857  0.00  0.00    +0.021 A 
ATOM      6  C13 UNL     1      16.304   0.955  23.136  0.00  0.00    +0.032 A 
ATOM      7  C14 UNL     1      14.777   1.955  21.249  0.00  0.00    +0.196 C 
ATOM      8  O3  UNL     1      14.573   1.432  19.926  0.00  0.00    -0.440 OA
ATOM      9  C15 UNL     1      15.313   0.269  19.748  0.00  0.00    +0.341 C 
ATOM     10  O4  UNL     1      15.331  -0.405  18.685  0.00  0.00    -0.245 OA
ATOM     11  C16 UNL     1      13.463   1.945  22.015  0.00  0.00    +0.047 A 
ATOM     12  C17 UNL     1      12.674   0.780  22.057  0.00  0.00    +0.015 A 
ATOM     13  C18 UNL     1      11.492   0.749  22.801  0.00  0.00    +0.046 A 
ATOM     14  C19 UNL     1      11.084   1.879  23.519  0.00  0.00    +0.120 A 
ATOM     15  C20 UNL     1      11.862   3.040  23.485  0.00  0.00    +0.092 A 
ATOM     16  C21 UNL     1      13.043   3.080  22.737  0.00  0.00    +0.140 A 
ATOM     17  O6  UNL     1      13.787   4.259  22.708  0.00  0.00    -0.455 OA
ATOM     18  C22 UNL     1      14.929   4.406  21.920  0.00  0.00    +0.140 A 
ATOM     19  C23 UNL     1      15.571   5.649  21.880  0.00  0.00    +0.092 A 
ATOM     20  C24 UNL     1      16.707   5.834  21.086  0.00  0.00    +0.120 A 
ATOM     21  C25 UNL     1      17.205   4.767  20.329  0.00  0.00    +0.046 A 
ATOM     22  C26 UNL     1      16.573   3.522  20.370  0.00  0.00    +0.015 A 
ATOM     23  C27 UNL     1      15.428   3.327  21.164  0.00  0.00    +0.047 A 
ENDROOT
BRANCH   1  26
ATOM     24  C7  UNL     1      19.043   0.532  25.095  0.00  0.00    +0.248 C 
ATOM     25  O2  UNL     1      19.869   0.744  24.165  0.00  0.00    -0.270 OA
ATOM     26  N1  UNL     1      17.781  -0.090  24.797  0.00  0.00    -0.281 N 
ATOM     27  H7  UNL     1      17.331  -0.670  25.541  0.00  0.00    +0.155 HD
BRANCH  24  32
ATOM     28  C2  UNL     1      21.121   1.381  28.158  0.00  0.00    +0.121 A 
ATOM     29  C3  UNL     1      20.116   1.557  29.127  0.00  0.00    +0.045 A 
ATOM     30  C4  UNL     1      18.773   1.404  28.778  0.00  0.00    +0.004 A 
ATOM     31  C5  UNL     1      18.417   1.070  27.470  0.00  0.00    +0.013 A 
ATOM     32  C6  UNL     1      19.408   0.879  26.490  0.00  0.00    +0.040 A 
ATOM     33  C28 UNL     1      20.759   1.046  26.847  0.00  0.00    +0.058 A 
BRANCH  28  35
ATOM     34  C1  UNL     1      23.243   0.603  29.231  0.00  0.00    +0.277 C 
ATOM     35  O1  UNL     1      22.486   1.527  28.456  0.00  0.00    -0.495 OA
ENDBRANCH  28  35
ENDBRANCH  24  32
ENDBRANCH   1  26
BRANCH  14  36
ATOM     36  O5  UNL     1       9.909   1.860  24.268  0.00  0.00    -0.507 OA
ATOM     37  H13 UNL     1       9.630   1.039  24.793  0.00  0.00    +0.292 HD
ENDBRANCH  14  36
BRANCH  20  38
ATOM     38  O7  UNL     1      17.331   7.078  21.057  0.00  0.00    -0.507 OA
ATOM     39  H16 UNL     1      16.943   7.878  21.546  0.00  0.00    +0.292 HD
ENDBRANCH  20  38
TORSDOF 5
ENDMDL
MODEL 4
REMARK VINA RESULT:    -7.379      7.852     12.798
REMARK INTER + INTRA:          -9.637
REMARK INTER:                  -9.124
REMARK INTRA:                  -0.513
REMARK UNBOUND:                -0.533
REMARK  Name = /home/qwerty/github/datacon2025hack/step_04_hit_selection/docking/ligands/lig_597.pdb
REMARK  6 active torsions:
REMARK  status: ('A' for Active; 'I' for Inactive)
REMARK    1  A    between atoms: C1_1  and  O1_2
REMARK    2  A    between atoms: O1_2  and  C2_3
REMARK    3  A    between atoms: C6_7  and  C7_8
REMARK    4  A    between atoms: N1_10  and  C8_11
REMARK    5  A    between atoms: C19_24  and  O5_25
REMARK    6  A    between atoms: C24_31  and  O7_32
REMARK                            x       y       z     vdW  Elec       q    Type
REMARK                         _______ _______ _______ _____ _____    ______ ____
ROOT
ATOM      1  C8  UNL     1      18.897   5.606  32.699  0.00  0.00    +0.034 A 
ATOM      2  C9  UNL     1      17.601   6.170  32.816  0.00  0.00    +0.024 A 
ATOM      3  C10 UNL     1      17.422   7.444  33.379  0.00  0.00    +0.017 A 
ATOM      4  C11 UNL     1      18.552   8.135  33.805  0.00  0.00    +0.067 A 
ATOM      5  C12 UNL     1      19.818   7.614  33.682  0.00  0.00    +0.021 A 
ATOM      6  C13 UNL     1      20.018   6.349  33.124  0.00  0.00    +0.032 A 
ATOM      7  C14 UNL     1      20.844   8.590  34.214  0.00  0.00    +0.196 C 
ATOM      8  O3  UNL     1      20.037   9.699  34.641  0.00  0.00    -0.440 OA
ATOM      9  C15 UNL     1      18.693   9.437  34.403  0.00  0.00    +0.341 C 
ATOM     10  O4  UNL     1      17.756  10.232  34.675  0.00  0.00    -0.245 OA
ATOM     11  C16 UNL     1      21.567   7.988  35.409  0.00  0.00    +0.047 A 
ATOM     12  C17 UNL     1      20.855   7.664  36.580  0.00  0.00    +0.015 A 
ATOM     13  C18 UNL     1      21.504   7.064  37.661  0.00  0.00    +0.046 A 
ATOM     14  C19 UNL     1      22.871   6.773  37.588  0.00  0.00    +0.120 A 
ATOM     15  C20 UNL     1      23.586   7.089  36.430  0.00  0.00    +0.092 A 
ATOM     16  C21 UNL     1      22.944   7.696  35.345  0.00  0.00    +0.140 A 
ATOM     17  O6  UNL     1      23.689   8.017  34.210  0.00  0.00    -0.455 OA
ATOM     18  C22 UNL     1      23.142   8.699  33.122  0.00  0.00    +0.140 A 
ATOM     19  C23 UNL     1      23.976   9.059  32.058  0.00  0.00    +0.092 A 
ATOM     20  C24 UNL     1      23.463   9.759  30.962  0.00  0.00    +0.120 A 
ATOM     21  C25 UNL     1      22.105  10.097  30.929  0.00  0.00    +0.046 A 
ATOM     22  C26 UNL     1      21.266   9.735  31.985  0.00  0.00    +0.015 A 
ATOM     23  C27 UNL     1      21.774   9.032  33.094  0.00  0.00    +0.047 A 
ENDROOT
BRANCH   1  26
ATOM     24  C7  UNL     1      19.880   4.093  30.918  0.00  0.00    +0.248 C 
ATOM     25  O2  UNL     1      20.083   5.048  30.118  0.00  0.00    -0.270 OA
ATOM     26  N1  UNL     1      19.098   4.313  32.104  0.00  0.00    -0.281 N 
ATOM     27  H7  UNL     1      18.553   3.509  32.489  0.00  0.00    +0.155 HD
BRANCH  24  32
ATOM     28  C2  UNL     1      22.109   1.343  29.542  0.00  0.00    +0.121 A 
ATOM     29  C3  UNL     1      21.429   0.195  29.987  0.00  0.00    +0.045 A 
ATOM     30  C4  UNL     1      20.256   0.322  30.734  0.00  0.00    +0.004 A 
ATOM     31  C5  UNL     1      19.747   1.585  31.040  0.00  0.00    +0.013 A 
ATOM     32  C6  UNL     1      20.407   2.744  30.594  0.00  0.00    +0.040 A 
ATOM     33  C28 UNL     1      21.595   2.609  29.851  0.00  0.00    +0.058 A 
BRANCH  28  35
ATOM     34  C1  UNL     1      24.496   0.657  29.244  0.00  0.00    +0.277 C 
ATOM     35  O1  UNL     1      23.294   1.271  28.791  0.00  0.00    -0.495 OA
ENDBRANCH  28  35
ENDBRANCH  24  32
ENDBRANCH   1  26
BRANCH  14  36
ATOM     36  O5  UNL     1      23.528   6.170  38.659  0.00  0.00    -0.507 OA
ATOM     37  H13 UNL     1      24.219   5.443  38.515  0.00  0.00    +0.292 HD
ENDBRANCH  14  36
BRANCH  20  38
ATOM     38  O7  UNL     1      24.309  10.111  29.914  0.00  0.00    -0.507 OA
ATOM     39  H16 UNL     1      24.228   9.680  29.000  0.00  0.00    +0.292 HD
ENDBRANCH  20  38
TORSDOF 5
ENDMDL
MODEL 5
REMARK VINA RESULT:    -7.274     12.074     16.071
REMARK INTER + INTRA:          -9.507
REMARK INTER:                  -9.098
REMARK INTRA:                  -0.410
REMARK UNBOUND:                -0.533
REMARK  Name = /home/qwerty/github/datacon2025hack/step_04_hit_selection/docking/ligands/lig_597.pdb
REMARK  6 active torsions:
REMARK  status: ('A' for Active; 'I' for Inactive)
REMARK    1  A    between atoms: C1_1  and  O1_2
REMARK    2  A    between atoms: O1_2  and  C2_3
REMARK    3  A    between atoms: C6_7  and  C7_8
REMARK    4  A    between atoms: N1_10  and  C8_11
REMARK    5  A    between atoms: C19_24  and  O5_25
REMARK    6  A    between atoms: C24_31  and  O7_32
REMARK                            x       y       z     vdW  Elec       q    Type
REMARK                         _______ _______ _______ _____ _____    ______ ____
ROOT
ATOM      1  C8  UNL     1      10.694  10.932  30.732  0.00  0.00    +0.034 A 
ATOM      2  C9  UNL     1      11.128  11.649  29.587  0.00  0.00    +0.024 A 
ATOM      3  C10 UNL     1      11.940  12.787  29.720  0.00  0.00    +0.017 A 
ATOM      4  C11 UNL     1      12.313  13.177  31.003  0.00  0.00    +0.067 A 
ATOM      5  C12 UNL     1      11.919  12.484  32.122  0.00  0.00    +0.021 A 
ATOM      6  C13 UNL     1      11.112  11.349  32.012  0.00  0.00    +0.032 A 
ATOM      7  C14 UNL     1      12.484  13.129  33.369  0.00  0.00    +0.196 C 
ATOM      8  O3  UNL     1      13.227  14.241  32.842  0.00  0.00    -0.440 OA
ATOM      9  C15 UNL     1      13.129  14.273  31.456  0.00  0.00    +0.341 C 
ATOM     10  O4  UNL     1      13.682  15.137  30.726  0.00  0.00    -0.245 OA
ATOM     11  C16 UNL     1      11.355  13.636  34.252  0.00  0.00    +0.047 A 
ATOM     12  C17 UNL     1      10.484  14.640  33.786  0.00  0.00    +0.015 A 
ATOM     13  C18 UNL     1       9.415  15.074  34.572  0.00  0.00    +0.046 A 
ATOM     14  C19 UNL     1       9.193  14.507  35.833  0.00  0.00    +0.120 A 
ATOM     15  C20 UNL     1      10.050  13.508  36.304  0.00  0.00    +0.092 A 
ATOM     16  C21 UNL     1      11.128  13.074  35.524  0.00  0.00    +0.140 A 
ATOM     17  O6  UNL     1      11.977  12.089  36.030  0.00  0.00    -0.455 OA
ATOM     18  C22 UNL     1      13.120  11.664  35.352  0.00  0.00    +0.140 A 
ATOM     19  C23 UNL     1      13.966  10.733  35.965  0.00  0.00    +0.092 A 
ATOM     20  C24 UNL     1      15.127  10.300  35.320  0.00  0.00    +0.120 A 
ATOM     21  C25 UNL     1      15.443  10.800  34.051  0.00  0.00    +0.046 A 
ATOM     22  C26 UNL     1      14.599  11.724  33.430  0.00  0.00    +0.015 A 
ATOM     23  C27 UNL     1      13.428  12.167  34.073  0.00  0.00    +0.047 A 
ENDROOT
BRANCH   1  26
ATOM     24  C7  UNL     1       8.581   9.738  29.996  0.00  0.00    +0.248 C 
ATOM     25  O2  UNL     1       7.922  10.811  29.907  0.00  0.00    -0.270 OA
ATOM     26  N1  UNL     1       9.881   9.752  30.610  0.00  0.00    -0.281 N 
ATOM     27  H7  UNL     1      10.205   8.884  31.095  0.00  0.00    +0.155 HD
BRANCH  24  32
ATOM     28  C2  UNL     1       6.726   6.424  29.969  0.00  0.00    +0.121 A 
ATOM     29  C3  UNL     1       6.823   6.072  28.610  0.00  0.00    +0.045 A 
ATOM     30  C4  UNL     1       7.484   6.913  27.713  0.00  0.00    +0.004 A 
ATOM     31  C5  UNL     1       8.058   8.106  28.157  0.00  0.00    +0.013 A 
ATOM     32  C6  UNL     1       7.981   8.470  29.513  0.00  0.00    +0.040 A 
ATOM     33  C28 UNL     1       7.304   7.622  30.409  0.00  0.00    +0.058 A 
BRANCH  28  35
ATOM     34  C1  UNL     1       5.289   4.472  30.582  0.00  0.00    +0.277 C 
ATOM     35  O1  UNL     1       6.069   5.616  30.910  0.00  0.00    -0.495 OA
ENDBRANCH  28  35
ENDBRANCH  24  32
ENDBRANCH   1  26
BRANCH  14  36
ATOM     36  O5  UNL     1       8.127  14.928  36.625  0.00  0.00    -0.507 OA
ATOM     37  H13 UNL     1       7.171  14.884  36.292  0.00  0.00    +0.292 HD
ENDBRANCH  14  36
BRANCH  20  38
ATOM     38  O7  UNL     1      15.959   9.376  35.946  0.00  0.00    -0.507 OA
ATOM     39  H16 UNL     1      16.533   9.633  36.742  0.00  0.00    +0.292 HD
ENDBRANCH  20  38
TORSDOF 5
ENDMDL
MODEL 6
REMARK VINA RESULT:    -7.233      8.153     11.943
REMARK INTER + INTRA:          -9.457
REMARK INTER:                  -8.961
REMARK INTRA:                  -0.497
REMARK UNBOUND:                -0.533
REMARK  Name = /home/qwerty/github/datacon2025hack/step_04_hit_selection/docking/ligands/lig_597.pdb
REMARK  6 active torsions:
REMARK  status: ('A' for Active; 'I' for Inactive)
REMARK    1  A    between atoms: C1_1  and  O1_2
REMARK    2  A    between atoms: O1_2  and  C2_3
REMARK    3  A    between atoms: C6_7  and  C7_8
REMARK    4  A    between atoms: N1_10  and  C8_11
REMARK    5  A    between atoms: C19_24  and  O5_25
REMARK    6  A    between atoms: C24_31  and  O7_32
REMARK                            x       y       z     vdW  Elec       q    Type
REMARK                         _______ _______ _______ _____ _____    ______ ____
ROOT
ATOM      1  C8  UNL     1      18.804   3.116  33.472  0.00  0.00    +0.034 A 
ATOM      2  C9  UNL     1      18.684   1.868  34.138  0.00  0.00    +0.024 A 
ATOM      3  C10 UNL     1      18.063   1.783  35.394  0.00  0.00    +0.017 A 
ATOM      4  C11 UNL     1      17.561   2.954  35.956  0.00  0.00    +0.067 A 
ATOM      5  C12 UNL     1      17.650   4.167  35.318  0.00  0.00    +0.021 A 
ATOM      6  C13 UNL     1      18.263   4.274  34.068  0.00  0.00    +0.032 A 
ATOM      7  C14 UNL     1      17.009   5.252  36.156  0.00  0.00    +0.196 C 
ATOM      8  O3  UNL     1      16.557   4.533  37.315  0.00  0.00    -0.440 OA
ATOM      9  C15 UNL     1      16.877   3.185  37.201  0.00  0.00    +0.341 C 
ATOM     10  O4  UNL     1      16.600   2.315  38.067  0.00  0.00    -0.245 OA
ATOM     11  C16 UNL     1      18.052   6.281  36.564  0.00  0.00    +0.047 A 
ATOM     12  C17 UNL     1      19.141   5.906  37.375  0.00  0.00    +0.015 A 
ATOM     13  C18 UNL     1      20.129   6.834  37.710  0.00  0.00    +0.046 A 
ATOM     14  C19 UNL     1      20.049   8.149  37.237  0.00  0.00    +0.120 A 
ATOM     15  C20 UNL     1      18.973   8.531  36.430  0.00  0.00    +0.092 A 
ATOM     16  C21 UNL     1      17.976   7.608  36.096  0.00  0.00    +0.140 A 
ATOM     17  O6  UNL     1      16.905   8.024  35.305  0.00  0.00    -0.455 OA
ATOM     18  C22 UNL     1      15.830   7.189  34.998  0.00  0.00    +0.140 A 
ATOM     19  C23 UNL     1      14.754   7.708  34.270  0.00  0.00    +0.092 A 
ATOM     20  C24 UNL     1      13.654   6.903  33.962  0.00  0.00    +0.120 A 
ATOM     21  C25 UNL     1      13.632   5.568  34.383  0.00  0.00    +0.046 A 
ATOM     22  C26 UNL     1      14.707   5.041  35.104  0.00  0.00    +0.015 A 
ATOM     23  C27 UNL     1      15.818   5.845  35.420  0.00  0.00    +0.047 A 
ENDROOT
BRANCH   1  26
ATOM     24  C7  UNL     1      20.837   3.161  31.958  0.00  0.00    +0.248 C 
ATOM     25  O2  UNL     1      21.625   3.436  32.905  0.00  0.00    -0.270 OA
ATOM     26  N1  UNL     1      19.417   3.214  32.176  0.00  0.00    -0.281 N 
ATOM     27  H7  UNL     1      18.804   3.452  31.363  0.00  0.00    +0.155 HD
BRANCH  24  32
ATOM     28  C2  UNL     1      22.664   1.340  29.170  0.00  0.00    +0.121 A 
ATOM     29  C3  UNL     1      22.428   2.203  28.084  0.00  0.00    +0.045 A 
ATOM     30  C4  UNL     1      21.675   3.365  28.263  0.00  0.00    +0.004 A 
ATOM     31  C5  UNL     1      21.155   3.682  29.520  0.00  0.00    +0.013 A 
ATOM     32  C6  UNL     1      21.390   2.838  30.620  0.00  0.00    +0.040 A 
ATOM     33  C28 UNL     1      22.140   1.663  30.428  0.00  0.00    +0.058 A 
BRANCH  28  35
ATOM     34  C1  UNL     1      22.846  -1.129  28.820  0.00  0.00    +0.277 C 
ATOM     35  O1  UNL     1      23.411   0.158  29.042  0.00  0.00    -0.495 OA
ENDBRANCH  28  35
ENDBRANCH  24  32
ENDBRANCH   1  26
BRANCH  14  36
ATOM     36  O5  UNL     1      21.030   9.083  37.561  0.00  0.00    -0.507 OA
ATOM     37  H13 UNL     1      20.797  10.049  37.759  0.00  0.00    +0.292 HD
ENDBRANCH  14  36
BRANCH  20  38
ATOM     38  O7  UNL     1      12.591   7.437  33.239  0.00  0.00    -0.507 OA
ATOM     39  H16 UNL     1      12.739   7.941  32.372  0.00  0.00    +0.292 HD
ENDBRANCH  20  38
TORSDOF 5
ENDMDL
MODEL 7
REMARK VINA RESULT:    -7.097      3.611      5.725
REMARK INTER + INTRA:          -9.290
REMARK INTER:                  -8.829
REMARK INTRA:                  -0.461
REMARK UNBOUND:                -0.533
REMARK  Name = /home/qwerty/github/datacon2025hack/step_04_hit_selection/docking/ligands/lig_597.pdb
REMARK  6 active torsions:
REMARK  status: ('A' for Active; 'I' for Inactive)
REMARK    1  A    between atoms: C1_1  and  O1_2
REMARK    2  A    between atoms: O1_2  and  C2_3
REMARK    3  A    between atoms: C6_7  and  C7_8
REMARK    4  A    between atoms: N1_10  and  C8_11
REMARK    5  A    between atoms: C19_24  and  O5_25
REMARK    6  A    between atoms: C24_31  and  O7_32
REMARK                            x       y       z     vdW  Elec       q    Type
REMARK                         _______ _______ _______ _____ _____    ______ ____
ROOT
ATOM      1  C8  UNL     1      19.376   4.111  23.839  0.00  0.00    +0.034 A 
ATOM      2  C9  UNL     1      20.525   4.448  23.078  0.00  0.00    +0.024 A 
ATOM      3  C10 UNL     1      20.396   5.029  21.806  0.00  0.00    +0.017 A 
ATOM      4  C11 UNL     1      19.113   5.272  21.325  0.00  0.00    +0.067 A 
ATOM      5  C12 UNL     1      17.989   4.971  22.055  0.00  0.00    +0.021 A 
ATOM      6  C13 UNL     1      18.094   4.394  23.323  0.00  0.00    +0.032 A 
ATOM      7  C14 UNL     1      16.743   5.357  21.289  0.00  0.00    +0.196 C 
ATOM      8  O3  UNL     1      17.275   5.899  20.069  0.00  0.00    -0.440 OA
ATOM      9  C15 UNL     1      18.664   5.852  20.086  0.00  0.00    +0.341 C 
ATOM     10  O4  UNL     1      19.399   6.261  19.150  0.00  0.00    -0.245 OA
ATOM     11  C16 UNL     1      15.914   4.119  20.983  0.00  0.00    +0.047 A 
ATOM     12  C17 UNL     1      16.438   3.096  20.170  0.00  0.00    +0.015 A 
ATOM     13  C18 UNL     1      15.701   1.934  19.928  0.00  0.00    +0.046 A 
ATOM     14  C19 UNL     1      14.433   1.774  20.498  0.00  0.00    +0.120 A 
ATOM     15  C20 UNL     1      13.905   2.783  21.309  0.00  0.00    +0.092 A 
ATOM     16  C21 UNL     1      14.635   3.952  21.550  0.00  0.00    +0.140 A 
ATOM     17  O6  UNL     1      14.072   4.949  22.347  0.00  0.00    -0.455 OA
ATOM     18  C22 UNL     1      14.699   6.177  22.566  0.00  0.00    +0.140 A 
ATOM     19  C23 UNL     1      14.031   7.157  23.308  0.00  0.00    +0.092 A 
ATOM     20  C24 UNL     1      14.623   8.403  23.530  0.00  0.00    +0.120 A 
ATOM     21  C25 UNL     1      15.894   8.670  23.007  0.00  0.00    +0.046 A 
ATOM     22  C26 UNL     1      16.569   7.693  22.272  0.00  0.00    +0.015 A 
ATOM     23  C27 UNL     1      15.980   6.436  22.042  0.00  0.00    +0.047 A 
ENDROOT
BRANCH   1  26
ATOM     24  C7  UNL     1      19.996   2.215  25.404  0.00  0.00    +0.248 C 
ATOM     25  O2  UNL     1      19.973   1.353  24.483  0.00  0.00    -0.270 OA
ATOM     26  N1  UNL     1      19.492   3.538  25.153  0.00  0.00    -0.281 N 
ATOM     27  H7  UNL     1      19.082   4.069  25.954  0.00  0.00    +0.155 HD
BRANCH  24  32
ATOM     28  C2  UNL     1      22.358   1.501  28.291  0.00  0.00    +0.121 A 
ATOM     29  C3  UNL     1      21.449   1.132  29.300  0.00  0.00    +0.045 A 
ATOM     30  C4  UNL     1      20.078   1.123  29.037  0.00  0.00    +0.004 A 
ATOM     31  C5  UNL     1      19.599   1.474  27.773  0.00  0.00    +0.013 A 
ATOM     32  C6  UNL     1      20.493   1.834  26.749  0.00  0.00    +0.040 A 
ATOM     33  C28 UNL     1      21.873   1.852  27.025  0.00  0.00    +0.058 A 
BRANCH  28  35
ATOM     34  C1  UNL     1      24.465   0.558  29.255  0.00  0.00    +0.277 C 
ATOM     35  O1  UNL     1      23.746   1.531  28.504  0.00  0.00    -0.495 OA
ENDBRANCH  28  35
ENDBRANCH  24  32
ENDBRANCH   1  26
BRANCH  14  36
ATOM     36  O5  UNL     1      13.691   0.618  20.268  0.00  0.00    -0.507 OA
ATOM     37  H13 UNL     1      13.380   0.027  21.030  0.00  0.00    +0.292 HD
ENDBRANCH  14  36
BRANCH  20  38
ATOM     38  O7  UNL     1      13.942   9.367  24.268  0.00  0.00    -0.507 OA
ATOM     39  H16 UNL     1      13.338   9.113  25.042  0.00  0.00    +0.292 HD
ENDBRANCH  20  38
TORSDOF 5
ENDMDL
MODEL 8
REMARK VINA RESULT:    -7.087      3.298      8.400
REMARK INTER + INTRA:          -9.276
REMARK INTER:                  -8.755
REMARK INTRA:                  -0.521
REMARK UNBOUND:                -0.533
REMARK  Name = /home/qwerty/github/datacon2025hack/step_04_hit_selection/docking/ligands/lig_597.pdb
REMARK  6 active torsions:
REMARK  status: ('A' for Active; 'I' for Inactive)
REMARK    1  A    between atoms: C1_1  and  O1_2
REMARK    2  A    between atoms: O1_2  and  C2_3
REMARK    3  A    between atoms: C6_7  and  C7_8
REMARK    4  A    between atoms: N1_10  and  C8_11
REMARK    5  A    between atoms: C19_24  and  O5_25
REMARK    6  A    between atoms: C24_31  and  O7_32
REMARK                            x       y       z     vdW  Elec       q    Type
REMARK                         _______ _______ _______ _____ _____    ______ ____
ROOT
ATOM      1  C8  UNL     1      13.743   2.351  21.591  0.00  0.00    +0.034 A 
ATOM      2  C9  UNL     1      13.990   1.677  20.366  0.00  0.00    +0.024 A 
ATOM      3  C10 UNL     1      14.980   0.685  20.282  0.00  0.00    +0.017 A 
ATOM      4  C11 UNL     1      15.697   0.378  21.434  0.00  0.00    +0.067 A 
ATOM      5  C12 UNL     1      15.459   1.005  22.633  0.00  0.00    +0.021 A 
ATOM      6  C13 UNL     1      14.479   1.994  22.740  0.00  0.00    +0.032 A 
ATOM      7  C14 UNL     1      16.376   0.459  23.706  0.00  0.00    +0.196 C 
ATOM      8  O3  UNL     1      17.144  -0.527  22.996  0.00  0.00    -0.440 OA
ATOM      9  C15 UNL     1      16.749  -0.578  21.664  0.00  0.00    +0.341 C 
ATOM     10  O4  UNL     1      17.247  -1.353  20.806  0.00  0.00    -0.245 OA
ATOM     11  C16 UNL     1      17.296   1.558  24.216  0.00  0.00    +0.047 A 
ATOM     12  C17 UNL     1      18.216   2.174  23.346  0.00  0.00    +0.015 A 
ATOM     13  C18 UNL     1      19.027   3.219  23.796  0.00  0.00    +0.046 A 
ATOM     14  C19 UNL     1      18.927   3.668  25.118  0.00  0.00    +0.120 A 
ATOM     15  C20 UNL     1      18.015   3.064  25.988  0.00  0.00    +0.092 A 
ATOM     16  C21 UNL     1      17.204   2.013  25.546  0.00  0.00    +0.140 A 
ATOM     17  O6  UNL     1      16.318   1.417  26.444  0.00  0.00    -0.455 OA
ATOM     18  C22 UNL     1      15.537   0.311  26.105  0.00  0.00    +0.140 A 
ATOM     19  C23 UNL     1      14.736  -0.280  27.088  0.00  0.00    +0.092 A 
ATOM     20  C24 UNL     1      13.957  -1.400  26.786  0.00  0.00    +0.120 A 
ATOM     21  C25 UNL     1      13.978  -1.931  25.490  0.00  0.00    +0.046 A 
ATOM     22  C26 UNL     1      14.770  -1.341  24.503  0.00  0.00    +0.015 A 
ATOM     23  C27 UNL     1      15.559  -0.214  24.798  0.00  0.00    +0.047 A 
ENDROOT
BRANCH   1  26
ATOM     24  C7  UNL     1      12.834   4.677  21.153  0.00  0.00    +0.248 C 
ATOM     25  O2  UNL     1      13.978   5.157  20.920  0.00  0.00    -0.270 OA
ATOM     26  N1  UNL     1      12.717   3.352  21.698  0.00  0.00    -0.281 N 
ATOM     27  H7  UNL     1      11.891   3.141  22.303  0.00  0.00    +0.155 HD
BRANCH  24  32
ATOM     28  C2  UNL     1       9.202   5.698  20.715  0.00  0.00    +0.121 A 
ATOM     29  C3  UNL     1       9.337   7.077  20.470  0.00  0.00    +0.045 A 
ATOM     30  C4  UNL     1      10.603   7.665  20.454  0.00  0.00    +0.004 A 
ATOM     31  C5  UNL     1      11.744   6.891  20.675  0.00  0.00    +0.013 A 
ATOM     32  C6  UNL     1      11.630   5.509  20.910  0.00  0.00    +0.040 A 
ATOM     33  C28 UNL     1      10.350   4.926  20.936  0.00  0.00    +0.058 A 
BRANCH  28  35
ATOM     34  C1  UNL     1       6.702   5.738  20.748  0.00  0.00    +0.277 C 
ATOM     35  O1  UNL     1       7.953   5.058  20.746  0.00  0.00    -0.495 OA
ENDBRANCH  28  35
ENDBRANCH  24  32
ENDBRANCH   1  26
BRANCH  14  36
ATOM     36  O5  UNL     1      19.727   4.712  25.577  0.00  0.00    -0.507 OA
ATOM     37  H13 UNL     1      19.434   5.306  26.343  0.00  0.00    +0.292 HD
ENDBRANCH  14  36
BRANCH  20  38
ATOM     38  O7  UNL     1      13.168  -1.978  27.777  0.00  0.00    -0.507 OA
ATOM     39  H16 UNL     1      13.179  -1.633  28.731  0.00  0.00    +0.292 HD
ENDBRANCH  20  38
TORSDOF 5
ENDMDL
MODEL 9
REMARK VINA RESULT:    -7.015      7.363     11.537
REMARK INTER + INTRA:          -9.188
REMARK INTER:                  -8.630
REMARK INTRA:                  -0.558
REMARK UNBOUND:                -0.533
REMARK  Name = /home/qwerty/github/datacon2025hack/step_04_hit_selection/docking/ligands/lig_597.pdb
REMARK  6 active torsions:
REMARK  status: ('A' for Active; 'I' for Inactive)
REMARK    1  A    between atoms: C1_1  and  O1_2
REMARK    2  A    between atoms: O1_2  and  C2_3
REMARK    3  A    between atoms: C6_7  and  C7_8
REMARK    4  A    between atoms: N1_10  and  C8_11
REMARK    5  A    between atoms: C19_24  and  O5_25
REMARK    6  A    between atoms: C24_31  and  O7_32
REMARK                            x       y       z     vdW  Elec       q    Type
REMARK                         _______ _______ _______ _____ _____    ______ ____
ROOT
ATOM      1  C8  UNL     1      10.394   6.898  26.066  0.00  0.00    +0.034 A 
ATOM      2  C9  UNL     1      11.215   5.817  26.479  0.00  0.00    +0.024 A 
ATOM      3  C10 UNL     1      11.837   4.988  25.532  0.00  0.00    +0.017 A 
ATOM      4  C11 UNL     1      11.633   5.266  24.184  0.00  0.00    +0.067 A 
ATOM      5  C12 UNL     1      10.857   6.320  23.765  0.00  0.00    +0.021 A 
ATOM      6  C13 UNL     1      10.230   7.158  24.690  0.00  0.00    +0.032 A 
ATOM      7  C14 UNL     1      10.828   6.385  22.254  0.00  0.00    +0.196 C 
ATOM      8  O3  UNL     1      11.656   5.275  21.872  0.00  0.00    -0.440 OA
ATOM      9  C15 UNL     1      12.130   4.617  23.000  0.00  0.00    +0.341 C 
ATOM     10  O4  UNL     1      12.883   3.608  22.969  0.00  0.00    -0.245 OA
ATOM     11  C16 UNL     1       9.410   6.167  21.749  0.00  0.00    +0.047 A 
ATOM     12  C17 UNL     1       8.750   4.946  21.990  0.00  0.00    +0.015 A 
ATOM     13  C18 UNL     1       7.430   4.759  21.573  0.00  0.00    +0.046 A 
ATOM     14  C19 UNL     1       6.747   5.788  20.916  0.00  0.00    +0.120 A 
ATOM     15  C20 UNL     1       7.392   7.004  20.674  0.00  0.00    +0.092 A 
ATOM     16  C21 UNL     1       8.717   7.196  21.082  0.00  0.00    +0.140 A 
ATOM     17  O6  UNL     1       9.340   8.414  20.808  0.00  0.00    -0.455 OA
ATOM     18  C22 UNL     1      10.682   8.654  21.107  0.00  0.00    +0.140 A 
ATOM     19  C23 UNL     1      11.256   9.871  20.723  0.00  0.00    +0.092 A 
ATOM     20  C24 UNL     1      12.602  10.134  20.991  0.00  0.00    +0.120 A 
ATOM     21  C25 UNL     1      13.379   9.174  21.650  0.00  0.00    +0.046 A 
ATOM     22  C26 UNL     1      12.810   7.960  22.042  0.00  0.00    +0.015 A 
ATOM     23  C27 UNL     1      11.456   7.685  21.775  0.00  0.00    +0.047 A 
ENDROOT
BRANCH   1  26
ATOM     24  C7  UNL     1      10.374   8.975  27.520  0.00  0.00    +0.248 C 
ATOM     25  O2  UNL     1      11.627   9.114  27.460  0.00  0.00    -0.270 OA
ATOM     26  N1  UNL     1       9.769   7.769  27.024  0.00  0.00    -0.281 N 
ATOM     27  H7  UNL     1       8.878   7.448  27.467  0.00  0.00    +0.155 HD
BRANCH  24  32
ATOM     28  C2  UNL     1       9.053  12.406  28.472  0.00  0.00    +0.121 A 
ATOM     29  C3  UNL     1       7.986  12.059  29.321  0.00  0.00    +0.045 A 
ATOM     30  C4  UNL     1       7.700  10.716  29.574  0.00  0.00    +0.004 A 
ATOM     31  C5  UNL     1       8.473   9.709  28.992  0.00  0.00    +0.013 A 
ATOM     32  C6  UNL     1       9.550  10.036  28.149  0.00  0.00    +0.040 A 
ATOM     33  C28 UNL     1       9.825  11.392  27.891  0.00  0.00    +0.058 A 
BRANCH  28  35
ATOM     34  C1  UNL     1      10.682  14.191  27.829  0.00  0.00    +0.277 C 
ATOM     35  O1  UNL     1       9.379  13.740  28.182  0.00  0.00    -0.495 OA
ENDBRANCH  28  35
ENDBRANCH  24  32
ENDBRANCH   1  26
BRANCH  14  36
ATOM     36  O5  UNL     1       5.429   5.614  20.499  0.00  0.00    -0.507 OA
ATOM     37  H13 UNL     1       5.206   5.315  19.557  0.00  0.00    +0.292 HD
ENDBRANCH  14  36
BRANCH  20  38
ATOM     38  O7  UNL     1      13.156  11.350  20.600  0.00  0.00    -0.507 OA
ATOM     39  H16 UNL     1      13.632  11.454  19.711  0.00  0.00    +0.292 HD
ENDBRANCH  20  38
TORSDOF 5
ENDMDL
