REMARK  Name = /home/qwerty/github/datacon2025hack/step_04_hit_selection/docking/ligands/lig_216.pdb
REMARK  3 active torsions:
REMARK  status: ('A' for Active; 'I' for Inactive)
REMARK    1  A    between atoms: N1_3  and  C2_4
REMARK    2  A    between atoms: N2_13  and  C9_14
REMARK    3  A    between atoms: C14_20  and  N3_21
REMARK                            x       y       z     vdW  Elec       q    Type
REMARK                         _______ _______ _______ _____ _____    ______ ____
ROOT
ATOM      1  O1  UNL     1       0.467  -1.136   0.845  0.00  0.00    -0.252 OA
ATOM      2  C1  UNL     1       0.396  -1.528  -0.351  0.00  0.00    +0.308 C 
ATOM      3  N1  UNL     1       1.506  -1.342  -1.241  0.00  0.00    -0.269 N 
ATOM      4  N2  UNL     1      -0.776  -2.211  -0.815  0.00  0.00    -0.268 N 
ATOM      5  H1  UNL     1       1.554  -1.948  -2.091  0.00  0.00    +0.156 HD
ATOM      6  H7  UNL     1      -0.707  -2.769  -1.696  0.00  0.00    +0.156 HD
ENDROOT
BRANCH   3   7
ATOM      7  C2  UNL     1       2.581  -0.416  -1.007  0.00  0.00    +0.038 A 
ATOM      8  C3  UNL     1       3.864  -0.694  -1.544  0.00  0.00    +0.027 A 
ATOM      9  C4  UNL     1       4.930   0.205  -1.357  0.00  0.00    +0.051 A 
ATOM     10  C5  UNL     1       4.677   1.373  -0.645  0.00  0.00    +0.166 A 
ATOM     11  C6  UNL     1       3.450   1.656  -0.144  0.00  0.00    +0.168 A 
ATOM     12  C7  UNL     1       2.369   0.794  -0.304  0.00  0.00    +0.073 A 
ATOM     13  O2  UNL     1       3.486   2.878   0.500  0.00  0.00    -0.453 OA
ATOM     14  C8  UNL     1       4.822   3.392   0.398  0.00  0.00    +0.466 C 
ATOM     15  O3  UNL     1       5.549   2.400  -0.340  0.00  0.00    -0.453 OA
ENDBRANCH   3   7
BRANCH   4  16
ATOM     16  C9  UNL     1      -1.965  -2.337  -0.023  0.00  0.00    +0.057 A 
ATOM     17  C10 UNL     1      -2.489  -3.618   0.204  0.00  0.00    +0.040 A 
ATOM     18  C11 UNL     1      -3.615  -3.792   1.013  0.00  0.00    +0.020 A 
ATOM     19 BR1  UNL     1      -4.303  -5.545   1.331  0.00  0.00    -0.050 Br
ATOM     20  C12 UNL     1      -4.234  -2.683   1.592  0.00  0.00    +0.017 A 
ATOM     21  C13 UNL     1      -3.741  -1.399   1.351  0.00  0.00    +0.026 A 
ATOM     22  C14 UNL     1      -2.614  -1.208   0.534  0.00  0.00    +0.051 A 
BRANCH  22  23
ATOM     23  N3  UNL     1      -2.183   0.130   0.220  0.00  0.00    -0.328 N 
ATOM     24  C15 UNL     1      -2.145   0.650  -1.137  0.00  0.00    +0.105 C 
ATOM     25  C16 UNL     1      -2.019   2.162  -0.995  0.00  0.00    +0.020 C 
ATOM     26  C17 UNL     1      -1.594   2.414   0.449  0.00  0.00    +0.020 C 
ATOM     27  C18 UNL     1      -1.987   1.163   1.223  0.00  0.00    +0.105 C 
ENDBRANCH  22  23
ENDBRANCH   4  16
TORSDOF 3
