REMARK  Name = /home/qwerty/github/datacon2025hack/step_04_hit_selection/docking/ligands/lig_661.pdb
REMARK  6 active torsions:
REMARK  status: ('A' for Active; 'I' for Inactive)
REMARK    1  A    between atoms: C1_1  and  C2_2
REMARK    2  A    between atoms: C5_5  and  C6_6
REMARK    3  A    between atoms: N1_7  and  C7_8
REMARK    4  A    between atoms: C7_8  and  C8_9
REMARK    5  A    between atoms: C8_9  and  N2_10
REMARK    6  A    between atoms: N4_16  and  C12_17
REMARK                            x       y       z     vdW  Elec       q    Type
REMARK                         _______ _______ _______ _____ _____    ______ ____
ROOT
ATOM      1  N2  UNL     1      -1.863   0.196  -0.261  0.00  0.00    -0.298 NA
ATOM      2  C9  UNL     1      -1.699   0.099  -1.718  0.00  0.00    +0.103 C 
ATOM      3  C10 UNL     1      -0.253  -0.258  -2.043  0.00  0.00    +0.124 C 
ATOM      4  N3  UNL     1       0.722   0.505  -1.243  0.00  0.00    -0.283 N 
ATOM      5  C11 UNL     1       2.126   0.264  -1.494  0.00  0.00    +0.307 C 
ATOM      6  O1  UNL     1       2.477  -0.650  -2.295  0.00  0.00    -0.252 OA
ATOM      7  N4  UNL     1       3.134   1.045  -0.833  0.00  0.00    -0.269 N 
ATOM      8  C21 UNL     1       0.349   1.306  -0.059  0.00  0.00    +0.124 C 
ATOM      9  C22 UNL     1      -1.165   1.406   0.197  0.00  0.00    +0.103 C 
ATOM     10  H21 UNL     1       2.953   2.064  -0.690  0.00  0.00    +0.156 HD
ENDROOT
BRANCH   7  11
ATOM     11  C12 UNL     1       4.426   0.526  -0.483  0.00  0.00    +0.037 A 
ATOM     12  C13 UNL     1       4.599  -0.826  -0.148  0.00  0.00    +0.024 A 
ATOM     13  C14 UNL     1       5.857  -1.307   0.222  0.00  0.00    +0.007 A 
ATOM     14  C15 UNL     1       6.965  -0.448   0.242  0.00  0.00    -0.026 A 
ATOM     15  C16 UNL     1       6.794   0.916  -0.067  0.00  0.00    +0.038 A 
ATOM     16  C17 UNL     1       5.525   1.397  -0.413  0.00  0.00    +0.047 A 
ATOM     17  N5  UNL     1       7.917   1.802  -0.041  0.00  0.00    -0.285 N 
ATOM     18  C18 UNL     1       9.242   1.283   0.093  0.00  0.00    +0.218 C 
ATOM     19  O2  UNL     1      10.222   2.077   0.166  0.00  0.00    -0.275 OA
ATOM     20  C19 UNL     1       9.472  -0.198   0.070  0.00  0.00    +0.101 C 
ATOM     21  C20 UNL     1       8.303  -0.949   0.723  0.00  0.00    +0.046 C 
ATOM     22  H25 UNL     1       7.779   2.832  -0.159  0.00  0.00    +0.155 HD
ENDBRANCH   7  11
BRANCH   1  23
ATOM     23  C8  UNL     1      -3.292   0.231   0.118  0.00  0.00    +0.100 C 
BRANCH  23  24
ATOM     24  C7  UNL     1      -3.801  -1.213   0.323  0.00  0.00    +0.100 C 
BRANCH  24  31
ATOM     25  C1  UNL     1      -5.743  -1.149  -1.865  0.00  0.00    +0.024 C 
ATOM     26  C2  UNL     1      -6.212  -0.959  -0.414  0.00  0.00    +0.054 C 
ATOM     27  C3  UNL     1      -6.712   0.446  -0.099  0.00  0.00    +0.020 C 
ATOM     28  C4  UNL     1      -6.363   0.680   1.362  0.00  0.00    +0.020 C 
ATOM     29  C5  UNL     1      -5.655  -0.597   1.838  0.00  0.00    +0.054 C 
ATOM     30  C6  UNL     1      -6.585  -1.474   2.683  0.00  0.00    +0.024 C 
ATOM     31  N1  UNL     1      -5.248  -1.341   0.634  0.00  0.00    -0.296 NA
ENDBRANCH  24  31
ENDBRANCH  23  24
ENDBRANCH   1  23
TORSDOF 4
