MODEL 1
REMARK VINA RESULT:    -6.886      0.000      0.000
REMARK INTER + INTRA:          -8.438
REMARK INTER:                  -8.094
REMARK INTRA:                  -0.344
REMARK UNBOUND:                -0.344
REMARK  Name = /home/qwerty/github/datacon2025hack/step_04_hit_selection/docking/ligands/lig_769.pdb
REMARK  3 active torsions:
REMARK  status: ('A' for Active; 'I' for Inactive)
REMARK    1  A    between atoms: C1_2  and  C13_18
REMARK    2  A    between atoms: N1_3  and  C2_4
REMARK    3  A    between atoms: C5_7  and  C6_8
REMARK                            x       y       z     vdW  Elec       q    Type
REMARK                         _______ _______ _______ _____ _____    ______ ____
ROOT
ATOM      1  O1  UNL     1      18.323   5.653  20.302  0.00  0.00    -0.270 OA
ATOM      2  C1  UNL     1      17.180   5.763  19.781  0.00  0.00    +0.248 C 
ATOM      3  N1  UNL     1      16.892   6.883  18.926  0.00  0.00    -0.282 N 
ATOM      4  H1  UNL     1      16.190   6.750  18.162  0.00  0.00    +0.155 HD
ENDROOT
BRANCH   2   5
ATOM      5  C13 UNL     1      16.165   4.709  20.018  0.00  0.00    +0.041 A 
ATOM      6  C14 UNL     1      14.855   4.837  19.512  0.00  0.00    +0.017 A 
ATOM      7  C15 UNL     1      13.900   3.843  19.754  0.00  0.00    +0.050 A 
ATOM      8  C16 UNL     1      14.239   2.718  20.507  0.00  0.00    +0.162 A 
ATOM      9  C17 UNL     1      15.542   2.569  20.997  0.00  0.00    +0.163 A 
ATOM     10  C18 UNL     1      16.495   3.566  20.772  0.00  0.00    +0.062 A 
ATOM     11  O2  UNL     1      15.870   1.413  21.712  0.00  0.00    -0.485 OA
ATOM     12  C19 UNL     1      15.004   0.275  21.714  0.00  0.00    +0.270 C 
ATOM     13  C20 UNL     1      13.538   0.724  21.770  0.00  0.00    +0.270 C 
ATOM     14  O3  UNL     1      13.290   1.728  20.783  0.00  0.00    -0.485 OA
ENDBRANCH   2   5
BRANCH   3  15
ATOM     15  C2  UNL     1      17.623   8.121  18.958  0.00  0.00    +0.034 A 
ATOM     16  C3  UNL     1      17.009   9.271  19.472  0.00  0.00    +0.024 A 
ATOM     17  C4  UNL     1      17.706  10.482  19.534  0.00  0.00    +0.012 A 
ATOM     18  C5  UNL     1      19.038  10.564  19.093  0.00  0.00    +0.002 A 
ATOM     19  C11 UNL     1      19.660   9.402  18.598  0.00  0.00    +0.012 A 
ATOM     20  C12 UNL     1      18.961   8.194  18.536  0.00  0.00    +0.024 A 
BRANCH  18  21
ATOM     21  C6  UNL     1      19.763  11.857  19.165  0.00  0.00    +0.090 A 
ATOM     22  C7  UNL     1      19.327  13.020  19.816  0.00  0.00    +0.121 A 
ATOM     23  N2  UNL     1      20.290  13.923  19.621  0.00  0.00    -0.300 N 
ATOM     24  C8  UNL     1      20.532  15.208  19.951  0.00  0.00    +0.100 A 
ATOM     25  C9  UNL     1      21.766  15.645  19.444  0.00  0.00    +0.067 A 
ATOM     26  S1  UNL     1      22.517  14.365  18.581  0.00  0.00    -0.058 S 
ATOM     27  C10 UNL     1      21.229  13.343  18.907  0.00  0.00    +0.178 A 
ATOM     28  N3  UNL     1      20.982  12.063  18.582  0.00  0.00    -0.221 NA
ENDBRANCH  18  21
ENDBRANCH   3  15
TORSDOF 3
ENDMDL
MODEL 2
REMARK VINA RESULT:    -6.715     10.675     11.541
REMARK INTER + INTRA:          -8.237
REMARK INTER:                  -7.747
REMARK INTRA:                  -0.490
REMARK UNBOUND:                -0.344
REMARK  Name = /home/qwerty/github/datacon2025hack/step_04_hit_selection/docking/ligands/lig_769.pdb
REMARK  3 active torsions:
REMARK  status: ('A' for Active; 'I' for Inactive)
REMARK    1  A    between atoms: C1_2  and  C13_18
REMARK    2  A    between atoms: N1_3  and  C2_4
REMARK    3  A    between atoms: C5_7  and  C6_8
REMARK                            x       y       z     vdW  Elec       q    Type
REMARK                         _______ _______ _______ _____ _____    ______ ____
ROOT
ATOM      1  O1  UNL     1      13.792  15.158  26.050  0.00  0.00    -0.270 OA
ATOM      2  C1  UNL     1      13.823  15.164  27.312  0.00  0.00    +0.248 C 
ATOM      3  N1  UNL     1      14.986  15.666  27.992  0.00  0.00    -0.282 N 
ATOM      4  H1  UNL     1      14.854  16.102  28.934  0.00  0.00    +0.155 HD
ENDROOT
BRANCH   2   5
ATOM      5  C13 UNL     1      12.638  14.700  28.073  0.00  0.00    +0.041 A 
ATOM      6  C14 UNL     1      12.703  14.510  29.469  0.00  0.00    +0.017 A 
ATOM      7  C15 UNL     1      11.585  14.059  30.177  0.00  0.00    +0.050 A 
ATOM      8  C16 UNL     1      10.395  13.786  29.501  0.00  0.00    +0.162 A 
ATOM      9  C17 UNL     1      10.311  13.990  28.118  0.00  0.00    +0.163 A 
ATOM     10  C18 UNL     1      11.430  14.426  27.404  0.00  0.00    +0.062 A 
ATOM     11  O2  UNL     1       9.096  13.751  27.469  0.00  0.00    -0.485 OA
ATOM     12  C19 UNL     1       7.884  13.575  28.209  0.00  0.00    +0.270 C 
ATOM     13  C20 UNL     1       8.154  12.764  29.483  0.00  0.00    +0.270 C 
ATOM     14  O3  UNL     1       9.275  13.305  30.187  0.00  0.00    -0.485 OA
ENDBRANCH   2   5
BRANCH   3  15
ATOM     15  C2  UNL     1      16.291  15.747  27.391  0.00  0.00    +0.034 A 
ATOM     16  C3  UNL     1      17.170  14.663  27.505  0.00  0.00    +0.024 A 
ATOM     17  C4  UNL     1      18.436  14.709  26.913  0.00  0.00    +0.012 A 
ATOM     18  C5  UNL     1      18.842  15.837  26.180  0.00  0.00    +0.002 A 
ATOM     19  C11 UNL     1      17.948  16.917  26.048  0.00  0.00    +0.012 A 
ATOM     20  C12 UNL     1      16.685  16.869  26.643  0.00  0.00    +0.024 A 
BRANCH  18  21
ATOM     21  C6  UNL     1      20.189  15.870  25.558  0.00  0.00    +0.090 A 
ATOM     22  C7  UNL     1      21.418  15.793  26.230  0.00  0.00    +0.121 A 
ATOM     23  N2  UNL     1      22.351  15.859  25.278  0.00  0.00    -0.300 N 
ATOM     24  C8  UNL     1      23.698  15.843  25.201  0.00  0.00    +0.100 A 
ATOM     25  C9  UNL     1      24.137  15.948  23.872  0.00  0.00    +0.067 A 
ATOM     26  S1  UNL     1      22.781  16.059  22.826  0.00  0.00    -0.058 S 
ATOM     27  C10 UNL     1      21.727  15.967  24.126  0.00  0.00    +0.178 A 
ATOM     28  N3  UNL     1      20.386  15.981  24.210  0.00  0.00    -0.221 NA
ENDBRANCH  18  21
ENDBRANCH   3  15
TORSDOF 3
ENDMDL
MODEL 3
REMARK VINA RESULT:    -6.669      4.507     10.912
REMARK INTER + INTRA:          -8.183
REMARK INTER:                  -7.809
REMARK INTRA:                  -0.374
REMARK UNBOUND:                -0.344
REMARK  Name = /home/qwerty/github/datacon2025hack/step_04_hit_selection/docking/ligands/lig_769.pdb
REMARK  3 active torsions:
REMARK  status: ('A' for Active; 'I' for Inactive)
REMARK    1  A    between atoms: C1_2  and  C13_18
REMARK    2  A    between atoms: N1_3  and  C2_4
REMARK    3  A    between atoms: C5_7  and  C6_8
REMARK                            x       y       z     vdW  Elec       q    Type
REMARK                         _______ _______ _______ _____ _____    ______ ____
ROOT
ATOM      1  O1  UNL     1      17.311  11.540  19.164  0.00  0.00    -0.270 OA
ATOM      2  C1  UNL     1      18.547  11.348  19.332  0.00  0.00    +0.248 C 
ATOM      3  N1  UNL     1      19.080  10.016  19.235  0.00  0.00    -0.282 N 
ATOM      4  H1  UNL     1      20.067   9.905  18.908  0.00  0.00    +0.155 HD
ENDROOT
BRANCH   2   5
ATOM      5  C13 UNL     1      19.438  12.507  19.578  0.00  0.00    +0.041 A 
ATOM      6  C14 UNL     1      20.226  13.048  18.540  0.00  0.00    +0.017 A 
ATOM      7  C15 UNL     1      21.075  14.132  18.785  0.00  0.00    +0.050 A 
ATOM      8  C16 UNL     1      21.152  14.683  20.065  0.00  0.00    +0.162 A 
ATOM      9  C17 UNL     1      20.360  14.169  21.098  0.00  0.00    +0.163 A 
ATOM     10  C18 UNL     1      19.522  13.075  20.864  0.00  0.00    +0.062 A 
ATOM     11  O2  UNL     1      20.422  14.764  22.362  0.00  0.00    -0.485 OA
ATOM     12  C19 UNL     1      21.052  16.035  22.550  0.00  0.00    +0.270 C 
ATOM     13  C20 UNL     1      22.311  16.137  21.679  0.00  0.00    +0.270 C 
ATOM     14  O3  UNL     1      22.017  15.749  20.335  0.00  0.00    -0.485 OA
ENDBRANCH   2   5
BRANCH   3  15
ATOM     15  C2  UNL     1      18.291   8.825  19.408  0.00  0.00    +0.034 A 
ATOM     16  C3  UNL     1      18.360   7.808  18.447  0.00  0.00    +0.024 A 
ATOM     17  C4  UNL     1      17.619   6.633  18.602  0.00  0.00    +0.012 A 
ATOM     18  C5  UNL     1      16.803   6.445  19.732  0.00  0.00    +0.002 A 
ATOM     19  C11 UNL     1      16.753   7.459  20.707  0.00  0.00    +0.012 A 
ATOM     20  C12 UNL     1      17.493   8.634  20.548  0.00  0.00    +0.024 A 
BRANCH  18  21
ATOM     21  C6  UNL     1      16.023   5.191  19.881  0.00  0.00    +0.090 A 
ATOM     22  C7  UNL     1      16.511   3.885  19.731  0.00  0.00    +0.121 A 
ATOM     23  N2  UNL     1      15.466   3.084  19.955  0.00  0.00    -0.300 N 
ATOM     24  C8  UNL     1      15.214   1.759  19.979  0.00  0.00    +0.100 A 
ATOM     25  C9  UNL     1      13.871   1.498  20.289  0.00  0.00    +0.067 A 
ATOM     26  S1  UNL     1      13.037   2.981  20.524  0.00  0.00    -0.058 S 
ATOM     27  C10 UNL     1      14.434   3.854  20.218  0.00  0.00    +0.178 A 
ATOM     28  N3  UNL     1      14.693   5.172  20.192  0.00  0.00    -0.221 NA
ENDBRANCH  18  21
ENDBRANCH   3  15
TORSDOF 3
ENDMDL
MODEL 4
REMARK VINA RESULT:    -6.621      8.648     12.384
REMARK INTER + INTRA:          -8.127
REMARK INTER:                  -7.652
REMARK INTRA:                  -0.474
REMARK UNBOUND:                -0.344
REMARK  Name = /home/qwerty/github/datacon2025hack/step_04_hit_selection/docking/ligands/lig_769.pdb
REMARK  3 active torsions:
REMARK  status: ('A' for Active; 'I' for Inactive)
REMARK    1  A    between atoms: C1_2  and  C13_18
REMARK    2  A    between atoms: N1_3  and  C2_4
REMARK    3  A    between atoms: C5_7  and  C6_8
REMARK                            x       y       z     vdW  Elec       q    Type
REMARK                         _______ _______ _______ _____ _____    ______ ____
ROOT
ATOM      1  O1  UNL     1      20.501   5.284  23.045  0.00  0.00    -0.270 OA
ATOM      2  C1  UNL     1      21.693   5.696  23.016  0.00  0.00    +0.248 C 
ATOM      3  N1  UNL     1      22.650   5.171  23.953  0.00  0.00    -0.282 N 
ATOM      4  H1  UNL     1      23.653   5.128  23.659  0.00  0.00    +0.155 HD
ENDROOT
BRANCH   2   5
ATOM      5  C13 UNL     1      22.101   6.677  21.983  0.00  0.00    +0.041 A 
ATOM      6  C14 UNL     1      21.153   7.239  21.102  0.00  0.00    +0.017 A 
ATOM      7  C15 UNL     1      21.550   8.154  20.121  0.00  0.00    +0.050 A 
ATOM      8  C16 UNL     1      22.894   8.512  20.004  0.00  0.00    +0.162 A 
ATOM      9  C17 UNL     1      23.841   7.978  20.885  0.00  0.00    +0.163 A 
ATOM     10  C18 UNL     1      23.453   7.051  21.857  0.00  0.00    +0.062 A 
ATOM     11  O2  UNL     1      25.175   8.385  20.776  0.00  0.00    -0.485 OA
ATOM     12  C19 UNL     1      25.539   9.520  19.985  0.00  0.00    +0.270 C 
ATOM     13  C20 UNL     1      24.700   9.563  18.702  0.00  0.00    +0.270 C 
ATOM     14  O3  UNL     1      23.313   9.403  19.010  0.00  0.00    -0.485 OA
ENDBRANCH   2   5
BRANCH   3  15
ATOM     15  C2  UNL     1      22.290   4.559  25.204  0.00  0.00    +0.034 A 
ATOM     16  C3  UNL     1      22.663   3.232  25.454  0.00  0.00    +0.024 A 
ATOM     17  C4  UNL     1      22.343   2.621  26.670  0.00  0.00    +0.012 A 
ATOM     18  C5  UNL     1      21.654   3.331  27.668  0.00  0.00    +0.002 A 
ATOM     19  C11 UNL     1      21.301   4.672  27.424  0.00  0.00    +0.012 A 
ATOM     20  C12 UNL     1      21.620   5.280  26.207  0.00  0.00    +0.024 A 
BRANCH  18  21
ATOM     21  C6  UNL     1      21.322   2.667  28.954  0.00  0.00    +0.090 A 
ATOM     22  C7  UNL     1      20.813   1.370  29.112  0.00  0.00    +0.121 A 
ATOM     23  N2  UNL     1      20.671   1.200  30.428  0.00  0.00    -0.300 N 
ATOM     24  C8  UNL     1      20.249   0.231  31.267  0.00  0.00    +0.100 A 
ATOM     25  C9  UNL     1      20.329   0.642  32.607  0.00  0.00    +0.067 A 
ATOM     26  S1  UNL     1      20.942   2.244  32.680  0.00  0.00    -0.058 S 
ATOM     27  C10 UNL     1      21.064   2.311  31.011  0.00  0.00    +0.178 A 
ATOM     28  N3  UNL     1      21.483   3.270  30.169  0.00  0.00    -0.221 NA
ENDBRANCH  18  21
ENDBRANCH   3  15
TORSDOF 3
ENDMDL
MODEL 5
REMARK VINA RESULT:    -6.501     11.739     13.800
REMARK INTER + INTRA:          -7.985
REMARK INTER:                  -7.478
REMARK INTRA:                  -0.508
REMARK UNBOUND:                -0.344
REMARK  Name = /home/qwerty/github/datacon2025hack/step_04_hit_selection/docking/ligands/lig_769.pdb
REMARK  3 active torsions:
REMARK  status: ('A' for Active; 'I' for Inactive)
REMARK    1  A    between atoms: C1_2  and  C13_18
REMARK    2  A    between atoms: N1_3  and  C2_4
REMARK    3  A    between atoms: C5_7  and  C6_8
REMARK                            x       y       z     vdW  Elec       q    Type
REMARK                         _______ _______ _______ _____ _____    ______ ____
ROOT
ATOM      1  O1  UNL     1      18.552  14.293  30.785  0.00  0.00    -0.270 OA
ATOM      2  C1  UNL     1      19.408  14.152  31.701  0.00  0.00    +0.248 C 
ATOM      3  N1  UNL     1      20.775  14.528  31.461  0.00  0.00    -0.282 N 
ATOM      4  H1  UNL     1      21.344  14.856  32.274  0.00  0.00    +0.155 HD
ENDROOT
BRANCH   2   5
ATOM      5  C13 UNL     1      18.980  13.647  33.028  0.00  0.00    +0.041 A 
ATOM      6  C14 UNL     1      19.792  12.756  33.760  0.00  0.00    +0.017 A 
ATOM      7  C15 UNL     1      19.374  12.274  35.005  0.00  0.00    +0.050 A 
ATOM      8  C16 UNL     1      18.142  12.670  35.528  0.00  0.00    +0.162 A 
ATOM      9  C17 UNL     1      17.337  13.570  34.821  0.00  0.00    +0.163 A 
ATOM     10  C18 UNL     1      17.742  14.042  33.570  0.00  0.00    +0.062 A 
ATOM     11  O2  UNL     1      16.126  13.986  35.385  0.00  0.00    -0.485 OA
ATOM     12  C19 UNL     1      15.828  13.736  36.762  0.00  0.00    +0.270 C 
ATOM     13  C20 UNL     1      16.337  12.348  37.172  0.00  0.00    +0.270 C 
ATOM     14  O3  UNL     1      17.695  12.175  36.758  0.00  0.00    -0.485 OA
ENDBRANCH   2   5
BRANCH   3  15
ATOM     15  C2  UNL     1      21.357  14.629  30.149  0.00  0.00    +0.034 A 
ATOM     16  C3  UNL     1      21.950  13.499  29.569  0.00  0.00    +0.024 A 
ATOM     17  C4  UNL     1      22.504  13.566  28.288  0.00  0.00    +0.012 A 
ATOM     18  C5  UNL     1      22.464  14.764  27.553  0.00  0.00    +0.002 A 
ATOM     19  C11 UNL     1      21.849  15.891  28.128  0.00  0.00    +0.012 A 
ATOM     20  C12 UNL     1      21.297  15.822  29.411  0.00  0.00    +0.024 A 
BRANCH  18  21
ATOM     21  C6  UNL     1      23.058  14.818  26.193  0.00  0.00    +0.090 A 
ATOM     22  C7  UNL     1      23.631  15.942  25.580  0.00  0.00    +0.121 A 
ATOM     23  N2  UNL     1      24.030  15.527  24.376  0.00  0.00    -0.300 N 
ATOM     24  C8  UNL     1      24.639  16.054  23.293  0.00  0.00    +0.100 A 
ATOM     25  C9  UNL     1      24.805  15.096  22.281  0.00  0.00    +0.067 A 
ATOM     26  S1  UNL     1      24.164  13.591  22.805  0.00  0.00    -0.058 S 
ATOM     27  C10 UNL     1      23.718  14.254  24.277  0.00  0.00    +0.178 A 
ATOM     28  N3  UNL     1      23.113  13.737  25.360  0.00  0.00    -0.221 NA
ENDBRANCH  18  21
ENDBRANCH   3  15
TORSDOF 3
ENDMDL
MODEL 6
REMARK VINA RESULT:    -6.421     10.718     14.438
REMARK INTER + INTRA:          -7.891
REMARK INTER:                  -7.388
REMARK INTRA:                  -0.503
REMARK UNBOUND:                -0.344
REMARK  Name = /home/qwerty/github/datacon2025hack/step_04_hit_selection/docking/ligands/lig_769.pdb
REMARK  3 active torsions:
REMARK  status: ('A' for Active; 'I' for Inactive)
REMARK    1  A    between atoms: C1_2  and  C13_18
REMARK    2  A    between atoms: N1_3  and  C2_4
REMARK    3  A    between atoms: C5_7  and  C6_8
REMARK                            x       y       z     vdW  Elec       q    Type
REMARK                         _______ _______ _______ _____ _____    ______ ____
ROOT
ATOM      1  O1  UNL     1      23.646  13.556  27.810  0.00  0.00    -0.270 OA
ATOM      2  C1  UNL     1      23.020  14.392  27.103  0.00  0.00    +0.248 C 
ATOM      3  N1  UNL     1      22.022  15.231  27.709  0.00  0.00    -0.282 N 
ATOM      4  H1  UNL     1      21.859  16.178  27.296  0.00  0.00    +0.155 HD
ENDROOT
BRANCH   2   5
ATOM      5  C13 UNL     1      23.359  14.532  25.666  0.00  0.00    +0.041 A 
ATOM      6  C14 UNL     1      24.140  15.613  25.208  0.00  0.00    +0.017 A 
ATOM      7  C15 UNL     1      24.443  15.744  23.848  0.00  0.00    +0.050 A 
ATOM      8  C16 UNL     1      23.964  14.805  22.934  0.00  0.00    +0.162 A 
ATOM      9  C17 UNL     1      23.205  13.717  23.378  0.00  0.00    +0.163 A 
ATOM     10  C18 UNL     1      22.886  13.589  24.733  0.00  0.00    +0.062 A 
ATOM     11  O2  UNL     1      22.772  12.766  22.448  0.00  0.00    -0.485 OA
ATOM     12  C19 UNL     1      23.312  12.728  21.124  0.00  0.00    +0.270 C 
ATOM     13  C20 UNL     1      23.528  14.153  20.599  0.00  0.00    +0.270 C 
ATOM     14  O3  UNL     1      24.232  14.937  21.567  0.00  0.00    -0.485 OA
ENDBRANCH   2   5
BRANCH   3  15
ATOM     15  C2  UNL     1      21.349  14.910  28.940  0.00  0.00    +0.034 A 
ATOM     16  C3  UNL     1      20.364  13.913  28.947  0.00  0.00    +0.024 A 
ATOM     17  C4  UNL     1      19.711  13.569  30.134  0.00  0.00    +0.012 A 
ATOM     18  C5  UNL     1      20.040  14.206  31.343  0.00  0.00    +0.002 A 
ATOM     19  C11 UNL     1      21.045  15.191  31.337  0.00  0.00    +0.012 A 
ATOM     20  C12 UNL     1      21.696  15.535  30.149  0.00  0.00    +0.024 A 
BRANCH  18  21
ATOM     21  C6  UNL     1      19.336  13.828  32.594  0.00  0.00    +0.090 A 
ATOM     22  C7  UNL     1      18.096  14.316  33.030  0.00  0.00    +0.121 A 
ATOM     23  N2  UNL     1      17.858  13.704  34.192  0.00  0.00    -0.300 N 
ATOM     24  C8  UNL     1      16.891  13.692  35.132  0.00  0.00    +0.100 A 
ATOM     25  C9  UNL     1      17.203  12.811  36.179  0.00  0.00    +0.067 A 
ATOM     26  S1  UNL     1      18.720  12.068  35.870  0.00  0.00    -0.058 S 
ATOM     27  C10 UNL     1      18.880  12.911  34.432  0.00  0.00    +0.178 A 
ATOM     28  N3  UNL     1      19.839  12.928  33.491  0.00  0.00    -0.221 NA
ENDBRANCH  18  21
ENDBRANCH   3  15
TORSDOF 3
ENDMDL
MODEL 7
REMARK VINA RESULT:    -6.261     11.241     16.950
REMARK INTER + INTRA:          -7.703
REMARK INTER:                  -7.304
REMARK INTRA:                  -0.399
REMARK UNBOUND:                -0.344
REMARK  Name = /home/qwerty/github/datacon2025hack/step_04_hit_selection/docking/ligands/lig_769.pdb
REMARK  3 active torsions:
REMARK  status: ('A' for Active; 'I' for Inactive)
REMARK    1  A    between atoms: C1_2  and  C13_18
REMARK    2  A    between atoms: N1_3  and  C2_4
REMARK    3  A    between atoms: C5_7  and  C6_8
REMARK                            x       y       z     vdW  Elec       q    Type
REMARK                         _______ _______ _______ _____ _____    ______ ____
ROOT
ATOM      1  O1  UNL     1       7.968   2.523  26.688  0.00  0.00    -0.270 OA
ATOM      2  C1  UNL     1       8.494   1.627  25.973  0.00  0.00    +0.248 C 
ATOM      3  N1  UNL     1       8.498   0.263  26.429  0.00  0.00    -0.282 N 
ATOM      4  H1  UNL     1       8.482  -0.496  25.710  0.00  0.00    +0.155 HD
ENDROOT
BRANCH   2   5
ATOM      5  C13 UNL     1       9.057   1.986  24.649  0.00  0.00    +0.041 A 
ATOM      6  C14 UNL     1       9.718   1.025  23.857  0.00  0.00    +0.017 A 
ATOM      7  C15 UNL     1      10.258   1.376  22.616  0.00  0.00    +0.050 A 
ATOM      8  C16 UNL     1      10.151   2.690  22.156  0.00  0.00    +0.162 A 
ATOM      9  C17 UNL     1       9.479   3.649  22.923  0.00  0.00    +0.163 A 
ATOM     10  C18 UNL     1       8.951   3.307  24.171  0.00  0.00    +0.062 A 
ATOM     11  O2  UNL     1       9.347   4.948  22.422  0.00  0.00    -0.485 OA
ATOM     12  C19 UNL     1       9.630   5.243  21.051  0.00  0.00    +0.270 C 
ATOM     13  C20 UNL     1      10.852   4.445  20.577  0.00  0.00    +0.270 C 
ATOM     14  O3  UNL     1      10.710   3.067  20.931  0.00  0.00    -0.485 OA
ENDBRANCH   2   5
BRANCH   3  15
ATOM     15  C2  UNL     1       8.363  -0.118  27.810  0.00  0.00    +0.034 A 
ATOM     16  C3  UNL     1       9.500  -0.504  28.532  0.00  0.00    +0.024 A 
ATOM     17  C4  UNL     1       9.399  -0.859  29.881  0.00  0.00    +0.012 A 
ATOM     18  C5  UNL     1       8.158  -0.821  30.539  0.00  0.00    +0.002 A 
ATOM     19  C11 UNL     1       7.021  -0.411  29.818  0.00  0.00    +0.012 A 
ATOM     20  C12 UNL     1       7.124  -0.059  28.469  0.00  0.00    +0.024 A 
BRANCH  18  21
ATOM     21  C6  UNL     1       8.068  -1.201  31.971  0.00  0.00    +0.090 A 
ATOM     22  C7  UNL     1       8.462  -2.424  32.533  0.00  0.00    +0.121 A 
ATOM     23  N2  UNL     1       8.201  -2.319  33.838  0.00  0.00    -0.300 N 
ATOM     24  C8  UNL     1       8.321  -3.085  34.943  0.00  0.00    +0.100 A 
ATOM     25  C9  UNL     1       7.862  -2.413  36.085  0.00  0.00    +0.067 A 
ATOM     26  S1  UNL     1       7.310  -0.847  35.647  0.00  0.00    -0.058 S 
ATOM     27  C10 UNL     1       7.690  -1.125  34.039  0.00  0.00    +0.178 A 
ATOM     28  N3  UNL     1       7.573  -0.368  32.935  0.00  0.00    -0.221 NA
ENDBRANCH  18  21
ENDBRANCH   3  15
TORSDOF 3
ENDMDL
MODEL 8
REMARK VINA RESULT:    -6.136     10.827     14.240
REMARK INTER + INTRA:          -7.557
REMARK INTER:                  -7.035
REMARK INTRA:                  -0.522
REMARK UNBOUND:                -0.344
REMARK  Name = /home/qwerty/github/datacon2025hack/step_04_hit_selection/docking/ligands/lig_769.pdb
REMARK  3 active torsions:
REMARK  status: ('A' for Active; 'I' for Inactive)
REMARK    1  A    between atoms: C1_2  and  C13_18
REMARK    2  A    between atoms: N1_3  and  C2_4
REMARK    3  A    between atoms: C5_7  and  C6_8
REMARK                            x       y       z     vdW  Elec       q    Type
REMARK                         _______ _______ _______ _____ _____    ______ ____
ROOT
ATOM      1  O1  UNL     1      21.278   4.652  29.059  0.00  0.00    -0.270 OA
ATOM      2  C1  UNL     1      21.391   3.828  30.007  0.00  0.00    +0.248 C 
ATOM      3  N1  UNL     1      21.240   2.421  29.750  0.00  0.00    -0.282 N 
ATOM      4  H1  UNL     1      21.768   1.752  30.355  0.00  0.00    +0.155 HD
ENDROOT
BRANCH   2   5
ATOM      5  C13 UNL     1      21.729   4.320  31.365  0.00  0.00    +0.041 A 
ATOM      6  C14 UNL     1      21.554   3.498  32.497  0.00  0.00    +0.017 A 
ATOM      7  C15 UNL     1      21.862   3.975  33.776  0.00  0.00    +0.050 A 
ATOM      8  C16 UNL     1      22.339   5.277  33.937  0.00  0.00    +0.162 A 
ATOM      9  C17 UNL     1      22.537   6.096  32.819  0.00  0.00    +0.163 A 
ATOM     10  C18 UNL     1      22.216   5.629  31.542  0.00  0.00    +0.062 A 
ATOM     11  O2  UNL     1      23.057   7.381  33.002  0.00  0.00    -0.485 OA
ATOM     12  C19 UNL     1      23.643   7.770  34.248  0.00  0.00    +0.270 C 
ATOM     13  C20 UNL     1      22.845   7.179  35.417  0.00  0.00    +0.270 C 
ATOM     14  O3  UNL     1      22.625   5.782  35.210  0.00  0.00    -0.485 OA
ENDBRANCH   2   5
BRANCH   3  15
ATOM     15  C2  UNL     1      20.535   1.888  28.615  0.00  0.00    +0.034 A 
ATOM     16  C3  UNL     1      19.138   1.787  28.658  0.00  0.00    +0.024 A 
ATOM     17  C4  UNL     1      18.427   1.292  27.561  0.00  0.00    +0.012 A 
ATOM     18  C5  UNL     1      19.100   0.900  26.390  0.00  0.00    +0.002 A 
ATOM     19  C11 UNL     1      20.501   1.023  26.341  0.00  0.00    +0.012 A 
ATOM     20  C12 UNL     1      21.210   1.517  27.440  0.00  0.00    +0.024 A 
BRANCH  18  21
ATOM     21  C6  UNL     1      18.330   0.375  25.234  0.00  0.00    +0.090 A 
ATOM     22  C7  UNL     1      18.034  -0.970  24.974  0.00  0.00    +0.121 A 
ATOM     23  N2  UNL     1      17.329  -0.969  23.841  0.00  0.00    -0.300 N 
ATOM     24  C8  UNL     1      16.737  -1.875  23.035  0.00  0.00    +0.100 A 
ATOM     25  C9  UNL     1      16.116  -1.258  21.939  0.00  0.00    +0.067 A 
ATOM     26  S1  UNL     1      16.343   0.441  22.031  0.00  0.00    -0.058 S 
ATOM     27  C10 UNL     1      17.214   0.282  23.454  0.00  0.00    +0.178 A 
ATOM     28  N3  UNL     1      17.805   1.178  24.261  0.00  0.00    -0.221 NA
ENDBRANCH  18  21
ENDBRANCH   3  15
TORSDOF 3
ENDMDL
MODEL 9
REMARK VINA RESULT:    -6.104     10.409     14.290
REMARK INTER + INTRA:          -7.518
REMARK INTER:                  -7.020
REMARK INTRA:                  -0.499
REMARK UNBOUND:                -0.344
REMARK  Name = /home/qwerty/github/datacon2025hack/step_04_hit_selection/docking/ligands/lig_769.pdb
REMARK  3 active torsions:
REMARK  status: ('A' for Active; 'I' for Inactive)
REMARK    1  A    between atoms: C1_2  and  C13_18
REMARK    2  A    between atoms: N1_3  and  C2_4
REMARK    3  A    between atoms: C5_7  and  C6_8
REMARK                            x       y       z     vdW  Elec       q    Type
REMARK                         _______ _______ _______ _____ _____    ______ ____
ROOT
ATOM      1  O1  UNL     1       9.154  -0.827  27.955  0.00  0.00    -0.270 OA
ATOM      2  C1  UNL     1       9.818  -0.422  28.948  0.00  0.00    +0.248 C 
ATOM      3  N1  UNL     1      11.034   0.316  28.738  0.00  0.00    -0.282 N 
ATOM      4  H1  UNL     1      11.312   1.021  29.459  0.00  0.00    +0.155 HD
ENDROOT
BRANCH   2   5
ATOM      5  C13 UNL     1       9.307  -0.670  30.318  0.00  0.00    +0.041 A 
ATOM      6  C14 UNL     1       9.405  -1.947  30.908  0.00  0.00    +0.017 A 
ATOM      7  C15 UNL     1       8.907  -2.175  32.195  0.00  0.00    +0.050 A 
ATOM      8  C16 UNL     1       8.303  -1.136  32.903  0.00  0.00    +0.162 A 
ATOM      9  C17 UNL     1       8.218   0.142  32.337  0.00  0.00    +0.163 A 
ATOM     10  C18 UNL     1       8.699   0.372  31.046  0.00  0.00    +0.062 A 
ATOM     11  O2  UNL     1       7.647   1.178  33.083  0.00  0.00    -0.485 OA
ATOM     12  C19 UNL     1       7.406   1.033  34.486  0.00  0.00    +0.270 C 
ATOM     13  C20 UNL     1       6.917  -0.387  34.796  0.00  0.00    +0.270 C 
ATOM     14  O3  UNL     1       7.773  -1.352  34.180  0.00  0.00    -0.485 OA
ENDBRANCH   2   5
BRANCH   3  15
ATOM     15  C2  UNL     1      11.805   0.257  27.524  0.00  0.00    +0.034 A 
ATOM     16  C3  UNL     1      12.789  -0.731  27.381  0.00  0.00    +0.024 A 
ATOM     17  C4  UNL     1      13.537  -0.823  26.204  0.00  0.00    +0.012 A 
ATOM     18  C5  UNL     1      13.306   0.064  25.138  0.00  0.00    +0.002 A 
ATOM     19  C11 UNL     1      12.302   1.041  25.276  0.00  0.00    +0.012 A 
ATOM     20  C12 UNL     1      11.556   1.132  26.454  0.00  0.00    +0.024 A 
BRANCH  18  21
ATOM     21  C6  UNL     1      14.110  -0.048  23.895  0.00  0.00    +0.090 A 
ATOM     22  C7  UNL     1      15.089  -1.013  23.623  0.00  0.00    +0.121 A 
ATOM     23  N2  UNL     1      15.542  -0.728  22.399  0.00  0.00    -0.300 N 
ATOM     24  C8  UNL     1      16.453  -1.221  21.535  0.00  0.00    +0.100 A 
ATOM     25  C9  UNL     1      16.490  -0.474  20.348  0.00  0.00    +0.067 A 
ATOM     26  S1  UNL     1      15.348   0.805  20.438  0.00  0.00    -0.058 S 
ATOM     27  C10 UNL     1      14.883   0.327  21.975  0.00  0.00    +0.178 A 
ATOM     28  N3  UNL     1      13.977   0.811  22.841  0.00  0.00    -0.221 NA
ENDBRANCH  18  21
ENDBRANCH   3  15
TORSDOF 3
ENDMDL
