MODEL 1
REMARK VINA RESULT:    -6.228      0.000      0.000
REMARK INTER + INTRA:          -8.534
REMARK INTER:                  -8.049
REMARK INTRA:                  -0.485
REMARK UNBOUND:                -0.485
REMARK  Name = /home/qwerty/github/datacon2025hack/step_04_hit_selection/docking/ligands/lig_616.pdb
REMARK  8 active torsions:
REMARK  status: ('A' for Active; 'I' for Inactive)
REMARK    1  A    between atoms: C1_1  and  C2_2
REMARK    2  A    between atoms: C2_2  and  C3_3
REMARK    3  A    between atoms: C3_3  and  C4_4
REMARK    4  A    between atoms: C3_3  and  C5_5
REMARK    5  A    between atoms: C5_5  and  C6_6
REMARK    6  A    between atoms: C9_11  and  N2_12
REMARK    7  A    between atoms: C10_13  and  C11_15
REMARK    8  A    between atoms: C14_21  and  C15_22
REMARK                            x       y       z     vdW  Elec       q    Type
REMARK                         _______ _______ _______ _____ _____    ______ ____
ROOT
ATOM      1  N2  UNL     1      23.022  14.230  23.308  0.00  0.00    -0.307 N 
ATOM      2  C10 UNL     1      23.653  15.067  24.290  0.00  0.00    +0.246 C 
ATOM      3  O2  UNL     1      24.733  15.656  24.005  0.00  0.00    -0.270 OA
ATOM      4  H17 UNL     1      22.255  13.589  23.611  0.00  0.00    +0.149 HD
ENDROOT
BRANCH   2   5
ATOM      5  C11 UNL     1      23.070  15.240  25.642  0.00  0.00    +0.056 A 
ATOM      6  C12 UNL     1      22.193  16.326  25.934  0.00  0.00    +0.127 A 
ATOM      7  N3  UNL     1      21.661  16.479  27.185  0.00  0.00    -0.218 NA
ATOM      8  C13 UNL     1      21.986  15.586  28.147  0.00  0.00    +0.259 A 
ATOM      9  O3  UNL     1      21.570  15.565  29.388  0.00  0.00    -0.334 OA
ATOM     10  N4  UNL     1      22.099  14.545  30.016  0.00  0.00    -0.080 NA
ATOM     11  C14 UNL     1      22.896  13.893  29.133  0.00  0.00    +0.090 A 
ATOM     12  C15 UNL     1      23.648  12.640  29.436  0.00  0.00    +0.070 C 
ATOM     13  C16 UNL     1      22.828  14.545  27.922  0.00  0.00    +0.064 A 
ATOM     14  C17 UNL     1      23.400  14.331  26.675  0.00  0.00    +0.029 A 
ENDBRANCH   2   5
BRANCH   1  20
ATOM     15  C6  UNL     1      20.472  13.825  19.686  0.00  0.00    +0.216 C 
ATOM     16  O1  UNL     1      19.980  14.977  19.539  0.00  0.00    -0.276 OA
ATOM     17  N1  UNL     1      21.707  13.674  20.412  0.00  0.00    -0.300 N 
ATOM     18  C7  UNL     1      22.342  12.403  20.719  0.00  0.00    +0.109 C 
ATOM     19  C8  UNL     1      23.647  12.756  21.420  0.00  0.00    +0.043 C 
ATOM     20  C9  UNL     1      23.477  14.198  21.912  0.00  0.00    +0.092 C 
ATOM     21  C18 UNL     1      22.415  14.803  20.993  0.00  0.00    +0.130 C 
BRANCH  15  22
ATOM     22  C5  UNL     1      19.709  12.635  19.152  0.00  0.00    +0.099 C 
BRANCH  22  23
ATOM     23  C3  UNL     1      18.465  12.291  20.005  0.00  0.00    -0.006 C 
ATOM     24  C4  UNL     1      18.876  11.984  21.452  0.00  0.00    +0.008 C 
BRANCH  23  26
ATOM     25  C1  UNL     1      16.249  11.624  18.831  0.00  0.00    +0.004 C 
ATOM     26  C2  UNL     1      17.592  11.161  19.402  0.00  0.00    +0.000 C 
ENDBRANCH  23  26
ENDBRANCH  22  23
ENDBRANCH  15  22
ENDBRANCH   1  20
TORSDOF 5
ENDMDL
MODEL 2
REMARK VINA RESULT:    -6.130     11.680     15.587
REMARK INTER + INTRA:          -8.408
REMARK INTER:                  -7.929
REMARK INTRA:                  -0.478
REMARK UNBOUND:                -0.485
REMARK  Name = /home/qwerty/github/datacon2025hack/step_04_hit_selection/docking/ligands/lig_616.pdb
REMARK  8 active torsions:
REMARK  status: ('A' for Active; 'I' for Inactive)
REMARK    1  A    between atoms: C1_1  and  C2_2
REMARK    2  A    between atoms: C2_2  and  C3_3
REMARK    3  A    between atoms: C3_3  and  C4_4
REMARK    4  A    between atoms: C3_3  and  C5_5
REMARK    5  A    between atoms: C5_5  and  C6_6
REMARK    6  A    between atoms: C9_11  and  N2_12
REMARK    7  A    between atoms: C10_13  and  C11_15
REMARK    8  A    between atoms: C14_21  and  C15_22
REMARK                            x       y       z     vdW  Elec       q    Type
REMARK                         _______ _______ _______ _____ _____    ______ ____
ROOT
ATOM      1  N2  UNL     1      12.460  13.493  34.350  0.00  0.00    -0.307 N 
ATOM      2  C10 UNL     1      11.467  14.122  33.524  0.00  0.00    +0.246 C 
ATOM      3  O2  UNL     1      10.406  14.561  34.050  0.00  0.00    -0.270 OA
ATOM      4  H17 UNL     1      13.228  12.953  33.892  0.00  0.00    +0.149 HD
ENDROOT
BRANCH   2   5
ATOM      5  C11 UNL     1      11.655  14.251  32.059  0.00  0.00    +0.056 A 
ATOM      6  C12 UNL     1      12.798  14.910  31.517  0.00  0.00    +0.127 A 
ATOM      7  N3  UNL     1      12.963  15.027  30.164  0.00  0.00    -0.218 NA
ATOM      8  C13 UNL     1      12.017  14.513  29.344  0.00  0.00    +0.259 A 
ATOM      9  O3  UNL     1      12.009  14.520  28.035  0.00  0.00    -0.334 OA
ATOM     10  N4  UNL     1      10.930  13.924  27.596  0.00  0.00    -0.080 NA
ATOM     11  C14 UNL     1      10.215  13.527  28.678  0.00  0.00    +0.090 A 
ATOM     12  C15 UNL     1       8.935  12.762  28.613  0.00  0.00    +0.070 C 
ATOM     13  C16 UNL     1      10.905  13.891  29.812  0.00  0.00    +0.064 A 
ATOM     14  C17 UNL     1      10.679  13.737  31.174  0.00  0.00    +0.029 A 
ENDBRANCH   2   5
BRANCH   1  20
ATOM     15  C6  UNL     1      15.647  12.307  37.217  0.00  0.00    +0.216 C 
ATOM     16  O1  UNL     1      16.441  13.286  37.200  0.00  0.00    -0.276 OA
ATOM     17  N1  UNL     1      14.273  12.507  36.832  0.00  0.00    -0.300 N 
ATOM     18  C7  UNL     1      13.274  11.455  36.734  0.00  0.00    +0.109 C 
ATOM     19  C8  UNL     1      11.972  12.160  36.377  0.00  0.00    +0.043 C 
ATOM     20  C9  UNL     1      12.380  13.527  35.815  0.00  0.00    +0.092 C 
ATOM     21  C18 UNL     1      13.760  13.802  36.417  0.00  0.00    +0.130 C 
BRANCH  15  22
ATOM     22  C5  UNL     1      16.184  10.941  37.574  0.00  0.00    +0.099 C 
BRANCH  22  23
ATOM     23  C3  UNL     1      17.655  10.743  37.137  0.00  0.00    -0.006 C 
ATOM     24  C4  UNL     1      17.724  10.348  35.655  0.00  0.00    +0.008 C 
BRANCH  23  26
ATOM     25  C1  UNL     1      19.511   8.937  37.303  0.00  0.00    +0.004 C 
ATOM     26  C2  UNL     1      18.443   9.754  38.034  0.00  0.00    +0.000 C 
ENDBRANCH  23  26
ENDBRANCH  22  23
ENDBRANCH  15  22
ENDBRANCH   1  20
TORSDOF 5
ENDMDL
MODEL 3
REMARK VINA RESULT:    -6.116     12.547     14.204
REMARK INTER + INTRA:          -8.389
REMARK INTER:                  -7.923
REMARK INTRA:                  -0.466
REMARK UNBOUND:                -0.485
REMARK  Name = /home/qwerty/github/datacon2025hack/step_04_hit_selection/docking/ligands/lig_616.pdb
REMARK  8 active torsions:
REMARK  status: ('A' for Active; 'I' for Inactive)
REMARK    1  A    between atoms: C1_1  and  C2_2
REMARK    2  A    between atoms: C2_2  and  C3_3
REMARK    3  A    between atoms: C3_3  and  C4_4
REMARK    4  A    between atoms: C3_3  and  C5_5
REMARK    5  A    between atoms: C5_5  and  C6_6
REMARK    6  A    between atoms: C9_11  and  N2_12
REMARK    7  A    between atoms: C10_13  and  C11_15
REMARK    8  A    between atoms: C14_21  and  C15_22
REMARK                            x       y       z     vdW  Elec       q    Type
REMARK                         _______ _______ _______ _____ _____    ______ ____
ROOT
ATOM      1  N2  UNL     1      11.782  12.918  31.405  0.00  0.00    -0.307 N 
ATOM      2  C10 UNL     1      11.751  13.795  32.543  0.00  0.00    +0.246 C 
ATOM      3  O2  UNL     1      12.020  15.019  32.392  0.00  0.00    -0.270 OA
ATOM      4  H17 UNL     1      11.766  11.886  31.564  0.00  0.00    +0.149 HD
ENDROOT
BRANCH   2   5
ATOM      5  C11 UNL     1      11.426  13.286  33.896  0.00  0.00    +0.056 A 
ATOM      6  C12 UNL     1      10.808  14.124  34.871  0.00  0.00    +0.127 A 
ATOM      7  N3  UNL     1      10.514  13.646  36.119  0.00  0.00    -0.218 NA
ATOM      8  C13 UNL     1      10.826  12.364  36.418  0.00  0.00    +0.259 A 
ATOM      9  O3  UNL     1      10.613  11.735  37.546  0.00  0.00    -0.334 OA
ATOM     10  N4  UNL     1      11.048  10.504  37.456  0.00  0.00    -0.080 NA
ATOM     11  C14 UNL     1      11.571  10.348  36.214  0.00  0.00    +0.090 A 
ATOM     12  C15 UNL     1      12.132   9.069  35.687  0.00  0.00    +0.070 C 
ATOM     13  C16 UNL     1      11.428  11.534  35.530  0.00  0.00    +0.064 A 
ATOM     14  C17 UNL     1      11.752  11.955  34.247  0.00  0.00    +0.029 A 
ENDBRANCH   2   5
BRANCH   1  20
ATOM     15  C6  UNL     1       8.756  12.638  28.157  0.00  0.00    +0.216 C 
ATOM     16  O1  UNL     1       7.918  13.533  28.454  0.00  0.00    -0.276 OA
ATOM     17  N1  UNL     1      10.105  12.744  28.652  0.00  0.00    -0.300 N 
ATOM     18  C7  UNL     1      11.146  11.750  28.450  0.00  0.00    +0.109 C 
ATOM     19  C8  UNL     1      12.401  12.338  29.079  0.00  0.00    +0.043 C 
ATOM     20  C9  UNL     1      11.913  13.433  30.036  0.00  0.00    +0.092 C 
ATOM     21  C18 UNL     1      10.544  13.847  29.491  0.00  0.00    +0.130 C 
BRANCH  15  22
ATOM     22  C5  UNL     1       8.294  11.449  27.348  0.00  0.00    +0.099 C 
BRANCH  22  23
ATOM     23  C3  UNL     1       8.185  10.157  28.192  0.00  0.00    -0.006 C 
ATOM     24  C4  UNL     1       7.545   9.031  27.367  0.00  0.00    +0.008 C 
BRANCH  23  26
ATOM     25  C1  UNL     1       6.933   9.075  30.192  0.00  0.00    +0.004 C 
ATOM     26  C2  UNL     1       7.462  10.360  29.549  0.00  0.00    +0.000 C 
ENDBRANCH  23  26
ENDBRANCH  22  23
ENDBRANCH  15  22
ENDBRANCH   1  20
TORSDOF 5
ENDMDL
MODEL 4
REMARK VINA RESULT:    -6.017     12.120     13.923
REMARK INTER + INTRA:          -8.262
REMARK INTER:                  -7.695
REMARK INTRA:                  -0.567
REMARK UNBOUND:                -0.485
REMARK  Name = /home/qwerty/github/datacon2025hack/step_04_hit_selection/docking/ligands/lig_616.pdb
REMARK  8 active torsions:
REMARK  status: ('A' for Active; 'I' for Inactive)
REMARK    1  A    between atoms: C1_1  and  C2_2
REMARK    2  A    between atoms: C2_2  and  C3_3
REMARK    3  A    between atoms: C3_3  and  C4_4
REMARK    4  A    between atoms: C3_3  and  C5_5
REMARK    5  A    between atoms: C5_5  and  C6_6
REMARK    6  A    between atoms: C9_11  and  N2_12
REMARK    7  A    between atoms: C10_13  and  C11_15
REMARK    8  A    between atoms: C14_21  and  C15_22
REMARK                            x       y       z     vdW  Elec       q    Type
REMARK                         _______ _______ _______ _____ _____    ______ ____
ROOT
ATOM      1  N2  UNL     1      17.530   0.142  23.609  0.00  0.00    -0.307 N 
ATOM      2  C10 UNL     1      18.463  -0.286  24.616  0.00  0.00    +0.246 C 
ATOM      3  O2  UNL     1      18.357  -1.442  25.111  0.00  0.00    -0.270 OA
ATOM      4  H17 UNL     1      17.491   1.155  23.357  0.00  0.00    +0.149 HD
ENDROOT
BRANCH   2   5
ATOM      5  C11 UNL     1      19.538   0.613  25.098  0.00  0.00    +0.056 A 
ATOM      6  C12 UNL     1      20.038   1.671  24.282  0.00  0.00    +0.127 A 
ATOM      7  N3  UNL     1      21.033   2.493  24.734  0.00  0.00    -0.218 NA
ATOM      8  C13 UNL     1      21.543   2.284  25.969  0.00  0.00    +0.259 A 
ATOM      9  O3  UNL     1      22.482   2.970  26.570  0.00  0.00    -0.334 OA
ATOM     10  N4  UNL     1      22.704   2.470  27.759  0.00  0.00    -0.080 NA
ATOM     11  C14 UNL     1      21.872   1.411  27.917  0.00  0.00    +0.090 A 
ATOM     12  C15 UNL     1      21.773   0.590  29.160  0.00  0.00    +0.070 C 
ATOM     13  C16 UNL     1      21.111   1.282  26.777  0.00  0.00    +0.064 A 
ATOM     14  C17 UNL     1      20.103   0.413  26.380  0.00  0.00    +0.029 A 
ENDBRANCH   2   5
BRANCH   1  20
ATOM     15  C6  UNL     1      14.239   1.168  20.799  0.00  0.00    +0.216 C 
ATOM     16  O1  UNL     1      14.833   1.358  19.702  0.00  0.00    -0.276 OA
ATOM     17  N1  UNL     1      14.862   0.345  21.804  0.00  0.00    -0.300 N 
ATOM     18  C7  UNL     1      14.325   0.105  23.133  0.00  0.00    +0.109 C 
ATOM     19  C8  UNL     1      15.283  -0.879  23.790  0.00  0.00    +0.043 C 
ATOM     20  C9  UNL     1      16.585  -0.793  22.985  0.00  0.00    +0.092 C 
ATOM     21  C18 UNL     1      16.161  -0.278  21.608  0.00  0.00    +0.130 C 
BRANCH  15  22
ATOM     22  C5  UNL     1      12.924   1.869  21.044  0.00  0.00    +0.099 C 
BRANCH  22  23
ATOM     23  C3  UNL     1      13.098   3.372  21.368  0.00  0.00    -0.006 C 
ATOM     24  C4  UNL     1      12.475   3.701  22.732  0.00  0.00    +0.008 C 
BRANCH  23  26
ATOM     25  C1  UNL     1      13.604   4.669  19.178  0.00  0.00    +0.004 C 
ATOM     26  C2  UNL     1      12.574   4.313  20.253  0.00  0.00    +0.000 C 
ENDBRANCH  23  26
ENDBRANCH  22  23
ENDBRANCH  15  22
ENDBRANCH   1  20
TORSDOF 5
ENDMDL
MODEL 5
REMARK VINA RESULT:    -5.873     13.360     14.518
REMARK INTER + INTRA:          -8.075
REMARK INTER:                  -7.539
REMARK INTRA:                  -0.536
REMARK UNBOUND:                -0.485
REMARK  Name = /home/qwerty/github/datacon2025hack/step_04_hit_selection/docking/ligands/lig_616.pdb
REMARK  8 active torsions:
REMARK  status: ('A' for Active; 'I' for Inactive)
REMARK    1  A    between atoms: C1_1  and  C2_2
REMARK    2  A    between atoms: C2_2  and  C3_3
REMARK    3  A    between atoms: C3_3  and  C4_4
REMARK    4  A    between atoms: C3_3  and  C5_5
REMARK    5  A    between atoms: C5_5  and  C6_6
REMARK    6  A    between atoms: C9_11  and  N2_12
REMARK    7  A    between atoms: C10_13  and  C11_15
REMARK    8  A    between atoms: C14_21  and  C15_22
REMARK                            x       y       z     vdW  Elec       q    Type
REMARK                         _______ _______ _______ _____ _____    ______ ____
ROOT
ATOM      1  N2  UNL     1       8.267   8.782  23.216  0.00  0.00    -0.307 N 
ATOM      2  C10 UNL     1       7.704   9.870  23.967  0.00  0.00    +0.246 C 
ATOM      3  O2  UNL     1       7.139  10.820  23.358  0.00  0.00    -0.270 OA
ATOM      4  H17 UNL     1       8.907   8.114  23.701  0.00  0.00    +0.149 HD
ENDROOT
BRANCH   2   5
ATOM      5  C11 UNL     1       7.788   9.907  25.447  0.00  0.00    +0.056 A 
ATOM      6  C12 UNL     1       7.425   8.776  26.236  0.00  0.00    +0.127 A 
ATOM      7  N3  UNL     1       7.503   8.820  27.601  0.00  0.00    -0.218 NA
ATOM      8  C13 UNL     1       7.924   9.961  28.194  0.00  0.00    +0.259 A 
ATOM      9  O3  UNL     1       8.072  10.184  29.475  0.00  0.00    -0.334 OA
ATOM     10  N4  UNL     1       8.504  11.405  29.666  0.00  0.00    -0.080 NA
ATOM     11  C14 UNL     1       8.627  11.987  28.447  0.00  0.00    +0.090 A 
ATOM     12  C15 UNL     1       9.140  13.370  28.217  0.00  0.00    +0.070 C 
ATOM     13  C16 UNL     1       8.266  11.068  27.487  0.00  0.00    +0.064 A 
ATOM     14  C17 UNL     1       8.211  11.089  26.100  0.00  0.00    +0.029 A 
ENDBRANCH   2   5
BRANCH   1  20
ATOM     15  C6  UNL     1       9.491   5.355  20.658  0.00  0.00    +0.216 C 
ATOM     16  O1  UNL     1       8.642   4.463  20.931  0.00  0.00    -0.276 OA
ATOM     17  N1  UNL     1       9.156   6.739  20.880  0.00  0.00    -0.300 N 
ATOM     18  C7  UNL     1      10.062   7.857  20.682  0.00  0.00    +0.109 C 
ATOM     19  C8  UNL     1       9.239   9.107  20.963  0.00  0.00    +0.043 C 
ATOM     20  C9  UNL     1       8.028   8.632  21.776  0.00  0.00    +0.092 C 
ATOM     21  C18 UNL     1       7.869   7.154  21.415  0.00  0.00    +0.130 C 
BRANCH  15  22
ATOM     22  C5  UNL     1      10.858   4.934  20.173  0.00  0.00    +0.099 C 
BRANCH  22  23
ATOM     23  C3  UNL     1      11.522   3.884  21.095  0.00  0.00    -0.006 C 
ATOM     24  C4  UNL     1      11.779   4.479  22.487  0.00  0.00    +0.008 C 
BRANCH  23  26
ATOM     25  C1  UNL     1      13.561   4.147  19.510  0.00  0.00    +0.004 C 
ATOM     26  C2  UNL     1      12.804   3.251  20.494  0.00  0.00    +0.000 C 
ENDBRANCH  23  26
ENDBRANCH  22  23
ENDBRANCH  15  22
ENDBRANCH   1  20
TORSDOF 5
ENDMDL
MODEL 6
REMARK VINA RESULT:    -5.832     10.823     12.333
REMARK INTER + INTRA:          -8.022
REMARK INTER:                  -7.442
REMARK INTRA:                  -0.580
REMARK UNBOUND:                -0.485
REMARK  Name = /home/qwerty/github/datacon2025hack/step_04_hit_selection/docking/ligands/lig_616.pdb
REMARK  8 active torsions:
REMARK  status: ('A' for Active; 'I' for Inactive)
REMARK    1  A    between atoms: C1_1  and  C2_2
REMARK    2  A    between atoms: C2_2  and  C3_3
REMARK    3  A    between atoms: C3_3  and  C4_4
REMARK    4  A    between atoms: C3_3  and  C5_5
REMARK    5  A    between atoms: C5_5  and  C6_6
REMARK    6  A    between atoms: C9_11  and  N2_12
REMARK    7  A    between atoms: C10_13  and  C11_15
REMARK    8  A    between atoms: C14_21  and  C15_22
REMARK                            x       y       z     vdW  Elec       q    Type
REMARK                         _______ _______ _______ _____ _____    ______ ____
ROOT
ATOM      1  N2  UNL     1      20.704   1.658  27.629  0.00  0.00    -0.307 N 
ATOM      2  C10 UNL     1      21.401   0.913  28.642  0.00  0.00    +0.246 C 
ATOM      3  O2  UNL     1      22.194  -0.007  28.302  0.00  0.00    -0.270 OA
ATOM      4  H17 UNL     1      19.904   2.267  27.913  0.00  0.00    +0.149 HD
ENDROOT
BRANCH   2   5
ATOM      5  C11 UNL     1      21.192   1.194  30.082  0.00  0.00    +0.056 A 
ATOM      6  C12 UNL     1      20.359   0.359  30.884  0.00  0.00    +0.127 A 
ATOM      7  N3  UNL     1      20.170   0.628  32.212  0.00  0.00    -0.218 NA
ATOM      8  C13 UNL     1      20.781   1.706  32.754  0.00  0.00    +0.259 A 
ATOM      9  O3  UNL     1      20.726   2.111  33.998  0.00  0.00    -0.334 OA
ATOM     10  N4  UNL     1      21.452   3.191  34.144  0.00  0.00    -0.080 NA
ATOM     11  C14 UNL     1      21.985   3.490  32.934  0.00  0.00    +0.090 A 
ATOM     12  C15 UNL     1      22.921   4.625  32.677  0.00  0.00    +0.070 C 
ATOM     13  C16 UNL     1      21.570   2.539  32.029  0.00  0.00    +0.064 A 
ATOM     14  C17 UNL     1      21.805   2.322  30.677  0.00  0.00    +0.029 A 
ENDBRANCH   2   5
BRANCH   1  20
ATOM     15  C6  UNL     1      21.900   4.930  24.864  0.00  0.00    +0.216 C 
ATOM     16  O1  UNL     1      23.105   5.148  25.166  0.00  0.00    -0.276 OA
ATOM     17  N1  UNL     1      21.321   3.645  25.161  0.00  0.00    -0.300 N 
ATOM     18  C7  UNL     1      19.930   3.287  24.937  0.00  0.00    +0.109 C 
ATOM     19  C8  UNL     1      19.818   1.818  25.323  0.00  0.00    +0.043 C 
ATOM     20  C9  UNL     1      21.038   1.527  26.206  0.00  0.00    +0.092 C 
ATOM     21  C18 UNL     1      22.073   2.580  25.804  0.00  0.00    +0.130 C 
BRANCH  15  22
ATOM     22  C5  UNL     1      21.087   6.052  24.264  0.00  0.00    +0.099 C 
BRANCH  22  23
ATOM     23  C3  UNL     1      21.474   6.354  22.797  0.00  0.00    -0.006 C 
ATOM     24  C4  UNL     1      20.794   7.645  22.318  0.00  0.00    +0.008 C 
BRANCH  23  26
ATOM     25  C1  UNL     1      21.647   5.418  20.382  0.00  0.00    +0.004 C 
ATOM     26  C2  UNL     1      21.211   5.172  21.828  0.00  0.00    +0.000 C 
ENDBRANCH  23  26
ENDBRANCH  22  23
ENDBRANCH  15  22
ENDBRANCH   1  20
TORSDOF 5
ENDMDL
MODEL 7
REMARK VINA RESULT:    -5.827     13.545     15.721
REMARK INTER + INTRA:          -8.015
REMARK INTER:                  -7.428
REMARK INTRA:                  -0.587
REMARK UNBOUND:                -0.485
REMARK  Name = /home/qwerty/github/datacon2025hack/step_04_hit_selection/docking/ligands/lig_616.pdb
REMARK  8 active torsions:
REMARK  status: ('A' for Active; 'I' for Inactive)
REMARK    1  A    between atoms: C1_1  and  C2_2
REMARK    2  A    between atoms: C2_2  and  C3_3
REMARK    3  A    between atoms: C3_3  and  C4_4
REMARK    4  A    between atoms: C3_3  and  C5_5
REMARK    5  A    between atoms: C5_5  and  C6_6
REMARK    6  A    between atoms: C9_11  and  N2_12
REMARK    7  A    between atoms: C10_13  and  C11_15
REMARK    8  A    between atoms: C14_21  and  C15_22
REMARK                            x       y       z     vdW  Elec       q    Type
REMARK                         _______ _______ _______ _____ _____    ______ ____
ROOT
ATOM      1  N2  UNL     1      13.798   2.949  20.505  0.00  0.00    -0.307 N 
ATOM      2  C10 UNL     1      13.031   4.011  19.914  0.00  0.00    +0.246 C 
ATOM      3  O2  UNL     1      13.507   4.653  18.938  0.00  0.00    -0.270 OA
ATOM      4  H17 UNL     1      13.498   2.565  21.429  0.00  0.00    +0.149 HD
ENDROOT
BRANCH   2   5
ATOM      5  C11 UNL     1      11.696   4.379  20.442  0.00  0.00    +0.056 A 
ATOM      6  C12 UNL     1      10.840   3.403  21.032  0.00  0.00    +0.127 A 
ATOM      7  N3  UNL     1       9.608   3.752  21.514  0.00  0.00    -0.218 NA
ATOM      8  C13 UNL     1       9.209   5.041  21.415  0.00  0.00    +0.259 A 
ATOM      9  O3  UNL     1       8.079   5.558  21.826  0.00  0.00    -0.334 OA
ATOM     10  N4  UNL     1       8.056   6.840  21.560  0.00  0.00    -0.080 NA
ATOM     11  C14 UNL     1       9.223   7.148  20.942  0.00  0.00    +0.090 A 
ATOM     12  C15 UNL     1       9.618   8.523  20.514  0.00  0.00    +0.070 C 
ATOM     13  C16 UNL     1       9.981   6.002  20.848  0.00  0.00    +0.064 A 
ATOM     14  C17 UNL     1      11.242   5.716  20.342  0.00  0.00    +0.029 A 
ENDBRANCH   2   5
BRANCH   1  20
ATOM     15  C6  UNL     1      16.500  -0.197  22.113  0.00  0.00    +0.216 C 
ATOM     16  O1  UNL     1      15.889  -1.271  21.862  0.00  0.00    -0.276 OA
ATOM     17  N1  UNL     1      16.218   0.975  21.325  0.00  0.00    -0.300 N 
ATOM     18  C7  UNL     1      16.792   2.291  21.555  0.00  0.00    +0.109 C 
ATOM     19  C8  UNL     1      16.262   3.171  20.432  0.00  0.00    +0.043 C 
ATOM     20  C9  UNL     1      15.028   2.445  19.882  0.00  0.00    +0.092 C 
ATOM     21  C18 UNL     1      15.245   0.975  20.245  0.00  0.00    +0.130 C 
BRANCH  15  22
ATOM     22  C5  UNL     1      17.459  -0.163  23.280  0.00  0.00    +0.099 C 
BRANCH  22  23
ATOM     23  C3  UNL     1      16.736  -0.111  24.647  0.00  0.00    -0.006 C 
ATOM     24  C4  UNL     1      17.127   1.162  25.412  0.00  0.00    +0.008 C 
BRANCH  23  26
ATOM     25  C1  UNL     1      17.673  -2.527  24.798  0.00  0.00    +0.004 C 
ATOM     26  C2  UNL     1      16.940  -1.385  25.507  0.00  0.00    +0.000 C 
ENDBRANCH  23  26
ENDBRANCH  22  23
ENDBRANCH  15  22
ENDBRANCH   1  20
TORSDOF 5
ENDMDL
MODEL 8
REMARK VINA RESULT:    -5.785     12.644     16.026
REMARK INTER + INTRA:          -7.961
REMARK INTER:                  -7.366
REMARK INTRA:                  -0.594
REMARK UNBOUND:                -0.485
REMARK  Name = /home/qwerty/github/datacon2025hack/step_04_hit_selection/docking/ligands/lig_616.pdb
REMARK  8 active torsions:
REMARK  status: ('A' for Active; 'I' for Inactive)
REMARK    1  A    between atoms: C1_1  and  C2_2
REMARK    2  A    between atoms: C2_2  and  C3_3
REMARK    3  A    between atoms: C3_3  and  C4_4
REMARK    4  A    between atoms: C3_3  and  C5_5
REMARK    5  A    between atoms: C5_5  and  C6_6
REMARK    6  A    between atoms: C9_11  and  N2_12
REMARK    7  A    between atoms: C10_13  and  C11_15
REMARK    8  A    between atoms: C14_21  and  C15_22
REMARK                            x       y       z     vdW  Elec       q    Type
REMARK                         _______ _______ _______ _____ _____    ______ ____
ROOT
ATOM      1  N2  UNL     1      21.473   2.213  30.218  0.00  0.00    -0.307 N 
ATOM      2  C10 UNL     1      22.253   1.699  29.126  0.00  0.00    +0.246 C 
ATOM      3  O2  UNL     1      23.261   0.979  29.366  0.00  0.00    -0.270 OA
ATOM      4  H17 UNL     1      20.775   2.967  30.028  0.00  0.00    +0.149 HD
ENDROOT
BRANCH   2   5
ATOM      5  C11 UNL     1      21.905   2.014  27.720  0.00  0.00    +0.056 A 
ATOM      6  C12 UNL     1      22.554   3.072  27.018  0.00  0.00    +0.127 A 
ATOM      7  N3  UNL     1      22.225   3.357  25.721  0.00  0.00    -0.218 NA
ATOM      8  C13 UNL     1      21.265   2.622  25.114  0.00  0.00    +0.259 A 
ATOM      9  O3  UNL     1      20.829   2.741  23.886  0.00  0.00    -0.334 OA
ATOM     10  N4  UNL     1      19.898   1.849  23.658  0.00  0.00    -0.080 NA
ATOM     11  C14 UNL     1      19.730   1.137  24.799  0.00  0.00    +0.090 A 
ATOM     12  C15 UNL     1      18.792  -0.016  24.948  0.00  0.00    +0.070 C 
ATOM     13  C16 UNL     1      20.609   1.616  25.745  0.00  0.00    +0.064 A 
ATOM     14  C17 UNL     1      20.896   1.274  27.060  0.00  0.00    +0.029 A 
ENDBRANCH   2   5
BRANCH   1  20
ATOM     15  C6  UNL     1      18.386   0.627  33.001  0.00  0.00    +0.216 C 
ATOM     16  O1  UNL     1      18.204  -0.555  32.600  0.00  0.00    -0.276 OA
ATOM     17  N1  UNL     1      19.630   1.288  32.703  0.00  0.00    -0.300 N 
ATOM     18  C7  UNL     1      19.940   2.669  33.037  0.00  0.00    +0.109 C 
ATOM     19  C8  UNL     1      21.383   2.881  32.600  0.00  0.00    +0.043 C 
ATOM     20  C9  UNL     1      21.684   1.759  31.599  0.00  0.00    +0.092 C 
ATOM     21  C18 UNL     1      20.695   0.646  31.950  0.00  0.00    +0.130 C 
BRANCH  15  22
ATOM     22  C5  UNL     1      17.259   1.332  33.719  0.00  0.00    +0.099 C 
BRANCH  22  23
ATOM     23  C3  UNL     1      17.315   1.139  35.253  0.00  0.00    -0.006 C 
ATOM     24  C4  UNL     1      16.500  -0.096  35.667  0.00  0.00    +0.008 C 
BRANCH  23  26
ATOM     25  C1  UNL     1      17.962   3.498  36.121  0.00  0.00    +0.004 C 
ATOM     26  C2  UNL     1      16.898   2.399  36.054  0.00  0.00    +0.000 C 
ENDBRANCH  23  26
ENDBRANCH  22  23
ENDBRANCH  15  22
ENDBRANCH   1  20
TORSDOF 5
ENDMDL
MODEL 9
REMARK VINA RESULT:    -5.739     11.729     14.075
REMARK INTER + INTRA:          -7.902
REMARK INTER:                  -7.380
REMARK INTRA:                  -0.522
REMARK UNBOUND:                -0.485
REMARK  Name = /home/qwerty/github/datacon2025hack/step_04_hit_selection/docking/ligands/lig_616.pdb
REMARK  8 active torsions:
REMARK  status: ('A' for Active; 'I' for Inactive)
REMARK    1  A    between atoms: C1_1  and  C2_2
REMARK    2  A    between atoms: C2_2  and  C3_3
REMARK    3  A    between atoms: C3_3  and  C4_4
REMARK    4  A    between atoms: C3_3  and  C5_5
REMARK    5  A    between atoms: C5_5  and  C6_6
REMARK    6  A    between atoms: C9_11  and  N2_12
REMARK    7  A    between atoms: C10_13  and  C11_15
REMARK    8  A    between atoms: C14_21  and  C15_22
REMARK                            x       y       z     vdW  Elec       q    Type
REMARK                         _______ _______ _______ _____ _____    ______ ____
ROOT
ATOM      1  N2  UNL     1      17.886  12.093  34.676  0.00  0.00    -0.307 N 
ATOM      2  C10 UNL     1      19.074  12.008  35.480  0.00  0.00    +0.246 C 
ATOM      3  O2  UNL     1      19.786  13.036  35.650  0.00  0.00    -0.270 OA
ATOM      4  H17 UNL     1      17.421  11.209  34.370  0.00  0.00    +0.149 HD
ENDROOT
BRANCH   2   5
ATOM      5  C11 UNL     1      19.491  10.728  36.101  0.00  0.00    +0.056 A 
ATOM      6  C12 UNL     1      18.781  10.179  37.210  0.00  0.00    +0.127 A 
ATOM      7  N3  UNL     1      19.175   8.999  37.779  0.00  0.00    -0.218 NA
ATOM      8  C13 UNL     1      20.257   8.361  37.276  0.00  0.00    +0.259 A 
ATOM      9  O3  UNL     1      20.771   7.227  37.680  0.00  0.00    -0.334 OA
ATOM     10  N4  UNL     1      21.813   6.926  36.946  0.00  0.00    -0.080 NA
ATOM     11  C14 UNL     1      21.972   7.922  36.040  0.00  0.00    +0.090 A 
ATOM     12  C15 UNL     1      23.022   7.941  34.978  0.00  0.00    +0.070 C 
ATOM     13  C16 UNL     1      20.974   8.850  36.233  0.00  0.00    +0.064 A 
ATOM     14  C17 UNL     1      20.627  10.042  35.609  0.00  0.00    +0.029 A 
ENDBRANCH   2   5
BRANCH   1  20
ATOM     15  C6  UNL     1      13.843  13.756  35.497  0.00  0.00    +0.216 C 
ATOM     16  O1  UNL     1      13.928  14.173  36.684  0.00  0.00    -0.276 OA
ATOM     17  N1  UNL     1      15.042  13.620  34.709  0.00  0.00    -0.300 N 
ATOM     18  C7  UNL     1      15.095  13.082  33.360  0.00  0.00    +0.109 C 
ATOM     19  C8  UNL     1      16.547  13.216  32.923  0.00  0.00    +0.043 C 
ATOM     20  C9  UNL     1      17.357  13.382  34.215  0.00  0.00    +0.092 C 
ATOM     21  C18 UNL     1      16.360  13.942  35.232  0.00  0.00    +0.130 C 
BRANCH  15  22
ATOM     22  C5  UNL     1      12.489  13.347  34.966  0.00  0.00    +0.099 C 
BRANCH  22  23
ATOM     23  C3  UNL     1      11.997  12.003  35.554  0.00  0.00    -0.006 C 
ATOM     24  C4  UNL     1      11.297  11.169  34.471  0.00  0.00    +0.008 C 
BRANCH  23  26
ATOM     25  C1  UNL     1      11.123  10.962  37.765  0.00  0.00    +0.004 C 
ATOM     26  C2  UNL     1      11.113  12.164  36.817  0.00  0.00    +0.000 C 
ENDBRANCH  23  26
ENDBRANCH  22  23
ENDBRANCH  15  22
ENDBRANCH   1  20
TORSDOF 5
ENDMDL
