MODEL 1
REMARK VINA RESULT:    -5.769      0.000      0.000
REMARK INTER + INTRA:          -7.727
REMARK INTER:                  -7.287
REMARK INTRA:                  -0.440
REMARK UNBOUND:                -0.440
REMARK  Name = /home/qwerty/github/datacon2025hack/step_04_hit_selection/docking/ligands/lig_560.pdb
REMARK  5 active torsions:
REMARK  status: ('A' for Active; 'I' for Inactive)
REMARK    1  A    between atoms: C1_2  and  C9_12
REMARK    2  A    between atoms: N1_3  and  C2_4
REMARK    3  A    between atoms: C5_7  and  C6_8
REMARK    4  A    between atoms: C6_8  and  O2_9
REMARK    5  A    between atoms: C11_14  and  C12_15
REMARK                            x       y       z     vdW  Elec       q    Type
REMARK                         _______ _______ _______ _____ _____    ______ ____
ROOT
ATOM      1  O1  UNL     1      14.081  15.047  35.280  0.00  0.00    -0.268 OA
ATOM      2  C1  UNL     1      13.747  13.967  34.722  0.00  0.00    +0.266 C 
ATOM      3  N1  UNL     1      14.380  12.736  35.106  0.00  0.00    -0.307 N 
ATOM      4  H1  UNL     1      14.057  11.842  34.676  0.00  0.00    +0.149 HD
ENDROOT
BRANCH   3   5
ATOM      5  C2  UNL     1      15.469  12.696  36.090  0.00  0.00    +0.073 C 
ATOM      6  C3  UNL     1      16.807  12.371  35.376  0.00  0.00    +0.022 C 
ATOM      7  C4  UNL     1      17.772  11.606  36.288  0.00  0.00    +0.007 C 
ATOM      8  C5  UNL     1      17.177  10.235  36.696  0.00  0.00    +0.015 C 
ATOM      9  C7  UNL     1      15.638  10.282  36.908  0.00  0.00    +0.007 C 
ATOM     10  C8  UNL     1      15.140  11.696  37.229  0.00  0.00    +0.022 C 
BRANCH   8  11
ATOM     11  C6  UNL     1      17.912   9.652  37.919  0.00  0.00    +0.159 C 
BRANCH  11  12
ATOM     12  O2  UNL     1      19.062  10.397  38.224  0.00  0.00    -0.395 OA
ATOM     13  H10 UNL     1      18.792  11.350  38.262  0.00  0.00    +0.209 HD
ENDBRANCH  11  12
ENDBRANCH   8  11
ENDBRANCH   3   5
BRANCH   2  14
ATOM     14  C9  UNL     1      12.703  13.999  33.682  0.00  0.00    +0.168 A 
ATOM     15  C10 UNL     1      12.881  13.903  32.314  0.00  0.00    +0.086 A 
ATOM     16  C11 UNL     1      11.596  13.994  31.808  0.00  0.00    +0.168 A 
ATOM     17  O3  UNL     1      10.763  14.131  32.815  0.00  0.00    -0.354 OA
ATOM     18  N2  UNL     1      11.391  14.139  33.954  0.00  0.00    -0.073 NA
BRANCH  16  19
ATOM     19  C12 UNL     1      11.180  13.952  30.389  0.00  0.00    +0.020 A 
ATOM     20  C13 UNL     1       9.942  13.381  30.045  0.00  0.00    +0.011 A 
ATOM     21  C14 UNL     1       9.530  13.330  28.709  0.00  0.00    +0.001 A 
ATOM     22  C15 UNL     1      10.350  13.849  27.704  0.00  0.00    +0.000 A 
ATOM     23  C16 UNL     1      11.582  14.419  28.033  0.00  0.00    +0.001 A 
ATOM     24  C17 UNL     1      11.998  14.472  29.367  0.00  0.00    +0.011 A 
ENDBRANCH  16  19
ENDBRANCH   2  14
TORSDOF 5
ENDMDL
MODEL 2
REMARK VINA RESULT:    -5.739     14.695     16.922
REMARK INTER + INTRA:          -7.689
REMARK INTER:                  -7.292
REMARK INTRA:                  -0.397
REMARK UNBOUND:                -0.440
REMARK  Name = /home/qwerty/github/datacon2025hack/step_04_hit_selection/docking/ligands/lig_560.pdb
REMARK  5 active torsions:
REMARK  status: ('A' for Active; 'I' for Inactive)
REMARK    1  A    between atoms: C1_2  and  C9_12
REMARK    2  A    between atoms: N1_3  and  C2_4
REMARK    3  A    between atoms: C5_7  and  C6_8
REMARK    4  A    between atoms: C6_8  and  O2_9
REMARK    5  A    between atoms: C11_14  and  C12_15
REMARK                            x       y       z     vdW  Elec       q    Type
REMARK                         _______ _______ _______ _____ _____    ______ ____
ROOT
ATOM      1  O1  UNL     1      21.748   5.390  21.601  0.00  0.00    -0.268 OA
ATOM      2  C1  UNL     1      22.249   5.995  22.587  0.00  0.00    +0.266 C 
ATOM      3  N1  UNL     1      23.221   7.031  22.374  0.00  0.00    -0.307 N 
ATOM      4  H1  UNL     1      23.587   7.561  23.195  0.00  0.00    +0.149 HD
ENDROOT
BRANCH   3   5
ATOM      5  C2  UNL     1      23.713   7.372  21.033  0.00  0.00    +0.073 C 
ATOM      6  C3  UNL     1      25.190   7.834  21.122  0.00  0.00    +0.022 C 
ATOM      7  C4  UNL     1      25.538   8.854  20.033  0.00  0.00    +0.007 C 
ATOM      8  C5  UNL     1      24.692  10.142  20.191  0.00  0.00    +0.015 C 
ATOM      9  C7  UNL     1      23.245   9.859  20.684  0.00  0.00    +0.007 C 
ATOM     10  C8  UNL     1      22.795   8.428  20.365  0.00  0.00    +0.022 C 
BRANCH   8  11
ATOM     11  C6  UNL     1      24.709  10.981  18.899  0.00  0.00    +0.159 C 
BRANCH  11  12
ATOM     12  O2  UNL     1      24.593  12.352  19.180  0.00  0.00    -0.395 OA
ATOM     13  H10 UNL     1      23.796  12.464  19.760  0.00  0.00    +0.209 HD
ENDBRANCH  11  12
ENDBRANCH   8  11
ENDBRANCH   3   5
BRANCH   2  14
ATOM     14  C9  UNL     1      21.816   5.618  23.945  0.00  0.00    +0.168 A 
ATOM     15  C10 UNL     1      22.389   4.669  24.772  0.00  0.00    +0.086 A 
ATOM     16  C11 UNL     1      21.602   4.708  25.910  0.00  0.00    +0.168 A 
ATOM     17  O3  UNL     1      20.662   5.610  25.734  0.00  0.00    -0.354 OA
ATOM     18  N2  UNL     1      20.758   6.175  24.566  0.00  0.00    -0.073 NA
BRANCH  16  19
ATOM     19  C12 UNL     1      21.751   3.897  27.138  0.00  0.00    +0.020 A 
ATOM     20  C13 UNL     1      22.437   2.670  27.082  0.00  0.00    +0.011 A 
ATOM     21  C14 UNL     1      22.589   1.888  28.231  0.00  0.00    +0.001 A 
ATOM     22  C15 UNL     1      22.059   2.323  29.448  0.00  0.00    +0.000 A 
ATOM     23  C16 UNL     1      21.376   3.539  29.518  0.00  0.00    +0.001 A 
ATOM     24  C17 UNL     1      21.221   4.324  28.371  0.00  0.00    +0.011 A 
ENDBRANCH  16  19
ENDBRANCH   2  14
TORSDOF 5
ENDMDL
MODEL 3
REMARK VINA RESULT:    -5.717      6.353      8.551
REMARK INTER + INTRA:          -7.661
REMARK INTER:                  -7.265
REMARK INTRA:                  -0.396
REMARK UNBOUND:                -0.440
REMARK  Name = /home/qwerty/github/datacon2025hack/step_04_hit_selection/docking/ligands/lig_560.pdb
REMARK  5 active torsions:
REMARK  status: ('A' for Active; 'I' for Inactive)
REMARK    1  A    between atoms: C1_2  and  C9_12
REMARK    2  A    between atoms: N1_3  and  C2_4
REMARK    3  A    between atoms: C5_7  and  C6_8
REMARK    4  A    between atoms: C6_8  and  O2_9
REMARK    5  A    between atoms: C11_14  and  C12_15
REMARK                            x       y       z     vdW  Elec       q    Type
REMARK                         _______ _______ _______ _____ _____    ______ ____
ROOT
ATOM      1  O1  UNL     1       8.794  14.102  27.587  0.00  0.00    -0.268 OA
ATOM      2  C1  UNL     1       9.376  13.211  28.263  0.00  0.00    +0.266 C 
ATOM      3  N1  UNL     1      10.750  13.385  28.645  0.00  0.00    -0.307 N 
ATOM      4  H1  UNL     1      11.205  12.667  29.251  0.00  0.00    +0.149 HD
ENDROOT
BRANCH   3   5
ATOM      5  C2  UNL     1      11.536  14.547  28.212  0.00  0.00    +0.073 C 
ATOM      6  C3  UNL     1      12.247  14.226  26.872  0.00  0.00    +0.022 C 
ATOM      7  C4  UNL     1      13.573  14.979  26.731  0.00  0.00    +0.007 C 
ATOM      8  C5  UNL     1      14.570  14.554  27.839  0.00  0.00    +0.015 C 
ATOM      9  C7  UNL     1      13.875  14.267  29.200  0.00  0.00    +0.007 C 
ATOM     10  C8  UNL     1      12.525  14.984  29.324  0.00  0.00    +0.022 C 
BRANCH   8  11
ATOM     11  C6  UNL     1      15.715  15.576  27.979  0.00  0.00    +0.159 C 
BRANCH  11  12
ATOM     12  O2  UNL     1      15.601  16.308  29.171  0.00  0.00    -0.395 OA
ATOM     13  H10 UNL     1      15.588  15.653  29.916  0.00  0.00    +0.209 HD
ENDBRANCH  11  12
ENDBRANCH   8  11
ENDBRANCH   3   5
BRANCH   2  14
ATOM     14  C9  UNL     1       8.621  12.005  28.649  0.00  0.00    +0.168 A 
ATOM     15  C10 UNL     1       8.702  10.750  28.077  0.00  0.00    +0.086 A 
ATOM     16  C11 UNL     1       7.791  10.000  28.802  0.00  0.00    +0.168 A 
ATOM     17  O3  UNL     1       7.242  10.777  29.709  0.00  0.00    -0.354 OA
ATOM     18  N2  UNL     1       7.715  11.987  29.646  0.00  0.00    -0.073 NA
BRANCH  16  19
ATOM     19  C12 UNL     1       7.456   8.569  28.624  0.00  0.00    +0.020 A 
ATOM     20  C13 UNL     1       7.344   8.038  27.327  0.00  0.00    +0.011 A 
ATOM     21  C14 UNL     1       7.027   6.689  27.138  0.00  0.00    +0.001 A 
ATOM     22  C15 UNL     1       6.822   5.856  28.241  0.00  0.00    +0.000 A 
ATOM     23  C16 UNL     1       6.931   6.372  29.534  0.00  0.00    +0.001 A 
ATOM     24  C17 UNL     1       7.247   7.721  29.728  0.00  0.00    +0.011 A 
ENDBRANCH  16  19
ENDBRANCH   2  14
TORSDOF 5
ENDMDL
MODEL 4
REMARK VINA RESULT:    -5.630      8.601     12.083
REMARK INTER + INTRA:          -7.551
REMARK INTER:                  -7.081
REMARK INTRA:                  -0.470
REMARK UNBOUND:                -0.440
REMARK  Name = /home/qwerty/github/datacon2025hack/step_04_hit_selection/docking/ligands/lig_560.pdb
REMARK  5 active torsions:
REMARK  status: ('A' for Active; 'I' for Inactive)
REMARK    1  A    between atoms: C1_2  and  C9_12
REMARK    2  A    between atoms: N1_3  and  C2_4
REMARK    3  A    between atoms: C5_7  and  C6_8
REMARK    4  A    between atoms: C6_8  and  O2_9
REMARK    5  A    between atoms: C11_14  and  C12_15
REMARK                            x       y       z     vdW  Elec       q    Type
REMARK                         _______ _______ _______ _____ _____    ______ ____
ROOT
ATOM      1  O1  UNL     1      22.905   5.582  34.982  0.00  0.00    -0.268 OA
ATOM      2  C1  UNL     1      21.776   5.259  34.522  0.00  0.00    +0.266 C 
ATOM      3  N1  UNL     1      20.595   5.934  34.983  0.00  0.00    -0.307 N 
ATOM      4  H1  UNL     1      19.673   5.695  34.556  0.00  0.00    +0.149 HD
ENDROOT
BRANCH   3   5
ATOM      5  C2  UNL     1      20.644   6.955  36.038  0.00  0.00    +0.073 C 
ATOM      6  C3  UNL     1      19.731   6.531  37.217  0.00  0.00    +0.022 C 
ATOM      7  C4  UNL     1      19.143   7.741  37.949  0.00  0.00    +0.007 C 
ATOM      8  C5  UNL     1      18.239   8.574  37.006  0.00  0.00    +0.015 C 
ATOM      9  C7  UNL     1      18.769   8.618  35.545  0.00  0.00    +0.007 C 
ATOM     10  C8  UNL     1      20.277   8.349  35.467  0.00  0.00    +0.022 C 
BRANCH   8  11
ATOM     11  C6  UNL     1      17.992   9.985  37.574  0.00  0.00    +0.159 C 
BRANCH  11  12
ATOM     12  O2  UNL     1      19.160  10.516  38.143  0.00  0.00    -0.395 OA
ATOM     13  H10 UNL     1      19.836  10.575  37.420  0.00  0.00    +0.209 HD
ENDBRANCH  11  12
ENDBRANCH   8  11
ENDBRANCH   3   5
BRANCH   2  14
ATOM     14  C9  UNL     1      21.701   4.188  33.512  0.00  0.00    +0.168 A 
ATOM     15  C10 UNL     1      21.869   4.315  32.146  0.00  0.00    +0.086 A 
ATOM     16  C11 UNL     1      21.693   3.026  31.672  0.00  0.00    +0.168 A 
ATOM     17  O3  UNL     1      21.445   2.239  32.695  0.00  0.00    -0.354 OA
ATOM     18  N2  UNL     1      21.441   2.901  33.814  0.00  0.00    -0.073 NA
BRANCH  16  19
ATOM     19  C12 UNL     1      21.760   2.564  30.268  0.00  0.00    +0.020 A 
ATOM     20  C13 UNL     1      22.071   1.220  29.994  0.00  0.00    +0.011 A 
ATOM     21  C14 UNL     1      22.141   0.762  28.674  0.00  0.00    +0.001 A 
ATOM     22  C15 UNL     1      21.900   1.641  27.615  0.00  0.00    +0.000 A 
ATOM     23  C16 UNL     1      21.591   2.978  27.874  0.00  0.00    +0.001 A 
ATOM     24  C17 UNL     1      21.520   3.440  29.192  0.00  0.00    +0.011 A 
ENDBRANCH  16  19
ENDBRANCH   2  14
TORSDOF 5
ENDMDL
MODEL 5
REMARK VINA RESULT:    -5.628     10.358     13.419
REMARK INTER + INTRA:          -7.548
REMARK INTER:                  -7.124
REMARK INTRA:                  -0.424
REMARK UNBOUND:                -0.440
REMARK  Name = /home/qwerty/github/datacon2025hack/step_04_hit_selection/docking/ligands/lig_560.pdb
REMARK  5 active torsions:
REMARK  status: ('A' for Active; 'I' for Inactive)
REMARK    1  A    between atoms: C1_2  and  C9_12
REMARK    2  A    between atoms: N1_3  and  C2_4
REMARK    3  A    between atoms: C5_7  and  C6_8
REMARK    4  A    between atoms: C6_8  and  O2_9
REMARK    5  A    between atoms: C11_14  and  C12_15
REMARK                            x       y       z     vdW  Elec       q    Type
REMARK                         _______ _______ _______ _____ _____    ______ ____
ROOT
ATOM      1  O1  UNL     1      20.464   6.566  30.321  0.00  0.00    -0.268 OA
ATOM      2  C1  UNL     1      21.121   5.634  30.859  0.00  0.00    +0.266 C 
ATOM      3  N1  UNL     1      21.536   5.748  32.230  0.00  0.00    -0.307 N 
ATOM      4  H1  UNL     1      22.031   4.947  32.680  0.00  0.00    +0.149 HD
ENDROOT
BRANCH   3   5
ATOM      5  C2  UNL     1      21.281   6.958  33.021  0.00  0.00    +0.073 C 
ATOM      6  C3  UNL     1      22.587   7.403  33.730  0.00  0.00    +0.022 C 
ATOM      7  C4  UNL     1      22.305   8.109  35.059  0.00  0.00    +0.007 C 
ATOM      8  C5  UNL     1      21.600   7.153  36.055  0.00  0.00    +0.015 C 
ATOM      9  C7  UNL     1      20.603   6.184  35.359  0.00  0.00    +0.007 C 
ATOM     10  C8  UNL     1      20.111   6.728  34.012  0.00  0.00    +0.022 C 
BRANCH   8  11
ATOM     11  C6  UNL     1      20.937   7.938  37.204  0.00  0.00    +0.159 C 
BRANCH  11  12
ATOM     12  O2  UNL     1      21.835   8.142  38.264  0.00  0.00    -0.395 OA
ATOM     13  H10 UNL     1      22.026   7.253  38.660  0.00  0.00    +0.209 HD
ENDBRANCH  11  12
ENDBRANCH   8  11
ENDBRANCH   3   5
BRANCH   2  14
ATOM     14  C9  UNL     1      21.444   4.439  30.058  0.00  0.00    +0.168 A 
ATOM     15  C10 UNL     1      22.139   3.318  30.472  0.00  0.00    +0.086 A 
ATOM     16  C11 UNL     1      22.167   2.515  29.346  0.00  0.00    +0.168 A 
ATOM     17  O3  UNL     1      21.537   3.138  28.376  0.00  0.00    -0.354 OA
ATOM     18  N2  UNL     1      21.091   4.296  28.766  0.00  0.00    -0.073 NA
BRANCH  16  19
ATOM     19  C12 UNL     1      22.786   1.178  29.206  0.00  0.00    +0.020 A 
ATOM     20  C13 UNL     1      21.970   0.053  28.990  0.00  0.00    +0.011 A 
ATOM     21  C14 UNL     1      22.536  -1.219  28.856  0.00  0.00    +0.001 A 
ATOM     22  C15 UNL     1      23.921  -1.381  28.934  0.00  0.00    +0.000 A 
ATOM     23  C16 UNL     1      24.742  -0.272  29.148  0.00  0.00    +0.001 A 
ATOM     24  C17 UNL     1      24.181   1.002  29.283  0.00  0.00    +0.011 A 
ENDBRANCH  16  19
ENDBRANCH   2  14
TORSDOF 5
ENDMDL
MODEL 6
REMARK VINA RESULT:    -5.558     14.763     17.134
REMARK INTER + INTRA:          -7.460
REMARK INTER:                  -7.032
REMARK INTRA:                  -0.428
REMARK UNBOUND:                -0.440
REMARK  Name = /home/qwerty/github/datacon2025hack/step_04_hit_selection/docking/ligands/lig_560.pdb
REMARK  5 active torsions:
REMARK  status: ('A' for Active; 'I' for Inactive)
REMARK    1  A    between atoms: C1_2  and  C9_12
REMARK    2  A    between atoms: N1_3  and  C2_4
REMARK    3  A    between atoms: C5_7  and  C6_8
REMARK    4  A    between atoms: C6_8  and  O2_9
REMARK    5  A    between atoms: C11_14  and  C12_15
REMARK                            x       y       z     vdW  Elec       q    Type
REMARK                         _______ _______ _______ _____ _____    ______ ____
ROOT
ATOM      1  O1  UNL     1      19.954   5.290  23.801  0.00  0.00    -0.268 OA
ATOM      2  C1  UNL     1      21.141   4.888  23.934  0.00  0.00    +0.266 C 
ATOM      3  N1  UNL     1      22.154   5.331  23.016  0.00  0.00    -0.307 N 
ATOM      4  H1  UNL     1      23.144   5.035  23.170  0.00  0.00    +0.149 HD
ENDROOT
BRANCH   3   5
ATOM      5  C2  UNL     1      21.841   6.191  21.868  0.00  0.00    +0.073 C 
ATOM      6  C3  UNL     1      21.778   5.335  20.577  0.00  0.00    +0.022 C 
ATOM      7  C4  UNL     1      22.195   6.134  19.339  0.00  0.00    +0.007 C 
ATOM      8  C5  UNL     1      23.668   6.602  19.453  0.00  0.00    +0.015 C 
ATOM      9  C7  UNL     1      24.071   6.980  20.906  0.00  0.00    +0.007 C 
ATOM     10  C8  UNL     1      22.858   7.357  21.764  0.00  0.00    +0.022 C 
BRANCH   8  11
ATOM     11  C6  UNL     1      23.970   7.737  18.455  0.00  0.00    +0.159 C 
BRANCH  11  12
ATOM     12  O2  UNL     1      25.342   8.029  18.416  0.00  0.00    -0.395 OA
ATOM     13  H10 UNL     1      25.818   7.175  18.249  0.00  0.00    +0.209 HD
ENDBRANCH  11  12
ENDBRANCH   8  11
ENDBRANCH   3   5
BRANCH   2  14
ATOM     14  C9  UNL     1      21.460   3.970  25.043  0.00  0.00    +0.168 A 
ATOM     15  C10 UNL     1      20.616   3.558  26.056  0.00  0.00    +0.086 A 
ATOM     16  C11 UNL     1      21.406   2.718  26.821  0.00  0.00    +0.168 A 
ATOM     17  O3  UNL     1      22.601   2.664  26.277  0.00  0.00    -0.354 OA
ATOM     18  N2  UNL     1      22.671   3.403  25.209  0.00  0.00    -0.073 NA
BRANCH  16  19
ATOM     19  C12 UNL     1      21.020   1.984  28.047  0.00  0.00    +0.020 A 
ATOM     20  C13 UNL     1      19.680   1.999  28.473  0.00  0.00    +0.011 A 
ATOM     21  C14 UNL     1      19.295   1.313  29.629  0.00  0.00    +0.001 A 
ATOM     22  C15 UNL     1      20.242   0.604  30.371  0.00  0.00    +0.000 A 
ATOM     23  C16 UNL     1      21.576   0.581  29.958  0.00  0.00    +0.001 A 
ATOM     24  C17 UNL     1      21.967   1.266  28.803  0.00  0.00    +0.011 A 
ENDBRANCH  16  19
ENDBRANCH   2  14
TORSDOF 5
ENDMDL
MODEL 7
REMARK VINA RESULT:    -5.546     13.906     15.751
REMARK INTER + INTRA:          -7.445
REMARK INTER:                  -7.024
REMARK INTRA:                  -0.421
REMARK UNBOUND:                -0.440
REMARK  Name = /home/qwerty/github/datacon2025hack/step_04_hit_selection/docking/ligands/lig_560.pdb
REMARK  5 active torsions:
REMARK  status: ('A' for Active; 'I' for Inactive)
REMARK    1  A    between atoms: C1_2  and  C9_12
REMARK    2  A    between atoms: N1_3  and  C2_4
REMARK    3  A    between atoms: C5_7  and  C6_8
REMARK    4  A    between atoms: C6_8  and  O2_9
REMARK    5  A    between atoms: C11_14  and  C12_15
REMARK                            x       y       z     vdW  Elec       q    Type
REMARK                         _______ _______ _______ _____ _____    ______ ____
ROOT
ATOM      1  O1  UNL     1      10.695   2.206  21.397  0.00  0.00    -0.268 OA
ATOM      2  C1  UNL     1      11.597   3.053  21.157  0.00  0.00    +0.266 C 
ATOM      3  N1  UNL     1      12.953   2.619  20.960  0.00  0.00    -0.307 N 
ATOM      4  H1  UNL     1      13.681   3.324  20.708  0.00  0.00    +0.149 HD
ENDROOT
BRANCH   3   5
ATOM      5  C2  UNL     1      13.347   1.212  21.100  0.00  0.00    +0.073 C 
ATOM      6  C3  UNL     1      13.730   0.921  22.574  0.00  0.00    +0.022 C 
ATOM      7  C4  UNL     1      14.793  -0.175  22.685  0.00  0.00    +0.007 C 
ATOM      8  C5  UNL     1      16.111   0.260  21.995  0.00  0.00    +0.015 C 
ATOM      9  C7  UNL     1      15.870   1.110  20.715  0.00  0.00    +0.007 C 
ATOM     10  C8  UNL     1      14.485   0.862  20.107  0.00  0.00    +0.022 C 
BRANCH   8  11
ATOM     11  C6  UNL     1      17.022  -0.952  21.722  0.00  0.00    +0.159 C 
BRANCH  11  12
ATOM     12  O2  UNL     1      17.694  -1.356  22.886  0.00  0.00    -0.395 OA
ATOM     13  H10 UNL     1      17.869  -2.328  22.799  0.00  0.00    +0.209 HD
ENDBRANCH  11  12
ENDBRANCH   8  11
ENDBRANCH   3   5
BRANCH   2  14
ATOM     14  C9  UNL     1      11.230   4.479  21.080  0.00  0.00    +0.168 A 
ATOM     15  C10 UNL     1      12.085   5.555  20.927  0.00  0.00    +0.086 A 
ATOM     16  C11 UNL     1      11.237   6.649  20.923  0.00  0.00    +0.168 A 
ATOM     17  O3  UNL     1      10.003   6.218  21.063  0.00  0.00    -0.354 OA
ATOM     18  N2  UNL     1       9.961   4.922  21.162  0.00  0.00    -0.073 NA
BRANCH  16  19
ATOM     19  C12 UNL     1      11.606   8.075  20.787  0.00  0.00    +0.020 A 
ATOM     20  C13 UNL     1      12.697   8.583  21.515  0.00  0.00    +0.011 A 
ATOM     21  C14 UNL     1      13.061   9.929  21.401  0.00  0.00    +0.001 A 
ATOM     22  C15 UNL     1      12.341  10.781  20.561  0.00  0.00    +0.000 A 
ATOM     23  C16 UNL     1      11.255  10.289  19.833  0.00  0.00    +0.001 A 
ATOM     24  C17 UNL     1      10.887   8.944  19.943  0.00  0.00    +0.011 A 
ENDBRANCH  16  19
ENDBRANCH   2  14
TORSDOF 5
ENDMDL
MODEL 8
REMARK VINA RESULT:    -5.532      9.667     13.613
REMARK INTER + INTRA:          -7.427
REMARK INTER:                  -7.008
REMARK INTRA:                  -0.420
REMARK UNBOUND:                -0.440
REMARK  Name = /home/qwerty/github/datacon2025hack/step_04_hit_selection/docking/ligands/lig_560.pdb
REMARK  5 active torsions:
REMARK  status: ('A' for Active; 'I' for Inactive)
REMARK    1  A    between atoms: C1_2  and  C9_12
REMARK    2  A    between atoms: N1_3  and  C2_4
REMARK    3  A    between atoms: C5_7  and  C6_8
REMARK    4  A    between atoms: C6_8  and  O2_9
REMARK    5  A    between atoms: C11_14  and  C12_15
REMARK                            x       y       z     vdW  Elec       q    Type
REMARK                         _______ _______ _______ _____ _____    ______ ____
ROOT
ATOM      1  O1  UNL     1       7.592   8.001  21.456  0.00  0.00    -0.268 OA
ATOM      2  C1  UNL     1       8.370   7.994  22.449  0.00  0.00    +0.266 C 
ATOM      3  N1  UNL     1       9.476   7.077  22.486  0.00  0.00    -0.307 N 
ATOM      4  H1  UNL     1      10.144   7.119  23.287  0.00  0.00    +0.149 HD
ENDROOT
BRANCH   3   5
ATOM      5  C2  UNL     1       9.698   6.084  21.428  0.00  0.00    +0.073 C 
ATOM      6  C3  UNL     1      10.305   4.795  22.042  0.00  0.00    +0.022 C 
ATOM      7  C4  UNL     1      11.215   4.062  21.052  0.00  0.00    +0.007 C 
ATOM      8  C5  UNL     1      12.428   4.943  20.659  0.00  0.00    +0.015 C 
ATOM      9  C7  UNL     1      12.070   6.452  20.555  0.00  0.00    +0.007 C 
ATOM     10  C8  UNL     1      10.576   6.677  20.296  0.00  0.00    +0.022 C 
BRANCH   8  11
ATOM     11  C6  UNL     1      13.104   4.419  19.377  0.00  0.00    +0.159 C 
BRANCH  11  12
ATOM     12  O2  UNL     1      14.293   5.113  19.108  0.00  0.00    -0.395 OA
ATOM     13  H10 UNL     1      14.227   5.457  18.179  0.00  0.00    +0.209 HD
ENDBRANCH  11  12
ENDBRANCH   8  11
ENDBRANCH   3   5
BRANCH   2  14
ATOM     14  C9  UNL     1       8.121   8.939  23.552  0.00  0.00    +0.168 A 
ATOM     15  C10 UNL     1       8.306   8.714  24.903  0.00  0.00    +0.086 A 
ATOM     16  C11 UNL     1       7.922   9.908  25.490  0.00  0.00    +0.168 A 
ATOM     17  O3  UNL     1       7.551  10.737  24.540  0.00  0.00    -0.354 OA
ATOM     18  N2  UNL     1       7.656  10.190  23.365  0.00  0.00    -0.073 NA
BRANCH  16  19
ATOM     19  C12 UNL     1       7.912  10.242  26.931  0.00  0.00    +0.020 A 
ATOM     20  C13 UNL     1       8.355  11.509  27.354  0.00  0.00    +0.011 A 
ATOM     21  C14 UNL     1       8.354  11.845  28.711  0.00  0.00    +0.001 A 
ATOM     22  C15 UNL     1       7.911  10.921  29.661  0.00  0.00    +0.000 A 
ATOM     23  C16 UNL     1       7.469   9.660  29.254  0.00  0.00    +0.001 A 
ATOM     24  C17 UNL     1       7.468   9.320  27.898  0.00  0.00    +0.011 A 
ENDBRANCH  16  19
ENDBRANCH   2  14
TORSDOF 5
ENDMDL
MODEL 9
REMARK VINA RESULT:    -5.492     13.917     14.831
REMARK INTER + INTRA:          -7.376
REMARK INTER:                  -6.967
REMARK INTRA:                  -0.408
REMARK UNBOUND:                -0.440
REMARK  Name = /home/qwerty/github/datacon2025hack/step_04_hit_selection/docking/ligands/lig_560.pdb
REMARK  5 active torsions:
REMARK  status: ('A' for Active; 'I' for Inactive)
REMARK    1  A    between atoms: C1_2  and  C9_12
REMARK    2  A    between atoms: N1_3  and  C2_4
REMARK    3  A    between atoms: C5_7  and  C6_8
REMARK    4  A    between atoms: C6_8  and  O2_9
REMARK    5  A    between atoms: C11_14  and  C12_15
REMARK                            x       y       z     vdW  Elec       q    Type
REMARK                         _______ _______ _______ _____ _____    ______ ____
ROOT
ATOM      1  O1  UNL     1      22.907   3.616  25.974  0.00  0.00    -0.268 OA
ATOM      2  C1  UNL     1      21.725   3.205  25.822  0.00  0.00    +0.266 C 
ATOM      3  N1  UNL     1      21.074   2.488  26.882  0.00  0.00    -0.307 N 
ATOM      4  H1  UNL     1      20.077   2.201  26.765  0.00  0.00    +0.149 HD
ENDROOT
BRANCH   3   5
ATOM      5  C2  UNL     1      21.767   2.147  28.131  0.00  0.00    +0.073 C 
ATOM      6  C3  UNL     1      21.774   0.608  28.320  0.00  0.00    +0.022 C 
ATOM      7  C4  UNL     1      21.768   0.213  29.800  0.00  0.00    +0.007 C 
ATOM      8  C5  UNL     1      20.478   0.709  30.500  0.00  0.00    +0.015 C 
ATOM      9  C7  UNL     1      19.994   2.087  29.968  0.00  0.00    +0.007 C 
ATOM     10  C8  UNL     1      21.131   2.895  29.331  0.00  0.00    +0.022 C 
BRANCH   8  11
ATOM     11  C6  UNL     1      20.640   0.704  32.033  0.00  0.00    +0.159 C 
BRANCH  11  12
ATOM     12  O2  UNL     1      19.930  -0.357  32.616  0.00  0.00    -0.395 OA
ATOM     13  H10 UNL     1      19.116  -0.500  32.068  0.00  0.00    +0.209 HD
ENDBRANCH  11  12
ENDBRANCH   8  11
ENDBRANCH   3   5
BRANCH   2  14
ATOM     14  C9  UNL     1      21.037   3.480  24.547  0.00  0.00    +0.168 A 
ATOM     15  C10 UNL     1      21.344   4.465  23.627  0.00  0.00    +0.086 A 
ATOM     16  C11 UNL     1      20.398   4.291  22.632  0.00  0.00    +0.168 A 
ATOM     17  O3  UNL     1      19.621   3.286  22.969  0.00  0.00    -0.354 OA
ATOM     18  N2  UNL     1      19.974   2.776  24.113  0.00  0.00    -0.073 NA
BRANCH  16  19
ATOM     19  C12 UNL     1      20.244   5.074  21.386  0.00  0.00    +0.020 A 
ATOM     20  C13 UNL     1      18.965   5.502  20.987  0.00  0.00    +0.011 A 
ATOM     21  C14 UNL     1      18.798   6.242  19.812  0.00  0.00    +0.001 A 
ATOM     22  C15 UNL     1      19.906   6.563  19.024  0.00  0.00    +0.000 A 
ATOM     23  C16 UNL     1      21.181   6.144  19.409  0.00  0.00    +0.001 A 
ATOM     24  C17 UNL     1      21.353   5.403  20.583  0.00  0.00    +0.011 A 
ENDBRANCH  16  19
ENDBRANCH   2  14
TORSDOF 5
ENDMDL
