REMARK  Name = /home/qwerty/github/datacon2025hack/step_04_hit_selection/docking/ligands/lig_395.pdb
REMARK  7 active torsions:
REMARK  status: ('A' for Active; 'I' for Inactive)
REMARK    1  A    between atoms: C1_1  and  C2_2
REMARK    2  A    between atoms: C2_2  and  C3_3
REMARK    3  A    between atoms: C3_3  and  C4_4
REMARK    4  A    between atoms: C3_3  and  N4_17
REMARK    5  A    between atoms: C4_4  and  N1_5
REMARK    6  A    between atoms: C5_6  and  C6_8
REMARK    7  A    between atoms: C13_18  and  C14_20
REMARK                            x       y       z     vdW  Elec       q    Type
REMARK                         _______ _______ _______ _____ _____    ______ ____
ROOT
ATOM      1  C4  UNL     1       1.583   1.557  -0.272  0.00  0.00    +0.126 C 
ENDROOT
BRANCH   1   2
ATOM      2  N1  UNL     1       0.157   1.243  -0.326  0.00  0.00    -0.308 N 
ATOM      3  C5  UNL     1      -0.501   0.454   0.676  0.00  0.00    +0.264 C 
ATOM      4  O1  UNL     1       0.125   0.092   1.709  0.00  0.00    -0.268 OA
ATOM      5  H9  UNL     1      -0.412   1.672  -1.091  0.00  0.00    +0.149 HD
BRANCH   3   6
ATOM      6  C6  UNL     1      -1.909   0.063   0.507  0.00  0.00    +0.143 A 
ATOM      7  C7  UNL     1      -2.655  -0.684   1.400  0.00  0.00    +0.120 A 
ATOM      8  N2  UNL     1      -3.883  -0.822   0.879  0.00  0.00    -0.334 N 
ATOM      9  C8  UNL     1      -3.849  -0.199  -0.314  0.00  0.00    +0.111 A 
ATOM     10  N3  UNL     1      -2.657   0.378  -0.574  0.00  0.00    -0.228 NA
ATOM     11  C9  UNL     1      -5.052  -0.087  -1.200  0.00  0.00    +0.074 C 
ATOM     12  C10 UNL     1      -6.092  -1.158  -0.833  0.00  0.00    +0.009 C 
ATOM     13  C11 UNL     1      -6.304  -1.238   0.688  0.00  0.00    +0.022 C 
ATOM     14  C12 UNL     1      -4.995  -1.610   1.406  0.00  0.00    +0.123 C 
ENDBRANCH   3   6
ENDBRANCH   1   2
BRANCH   1  15
ATOM     15  C3  UNL     1       2.458   0.313  -0.545  0.00  0.00    +0.090 C 
BRANCH  15  16
ATOM     16  N4  UNL     1       3.835   0.609  -0.137  0.00  0.00    -0.306 N 
ATOM     17  C13 UNL     1       4.297   0.411   1.210  0.00  0.00    +0.266 C 
ATOM     18  O2  UNL     1       3.511  -0.043   2.086  0.00  0.00    -0.268 OA
ATOM     19  H19 UNL     1       4.453   1.103  -0.818  0.00  0.00    +0.149 HD
BRANCH  17  20
ATOM     20  C14 UNL     1       5.682   0.732   1.597  0.00  0.00    +0.168 A 
ATOM     21  C15 UNL     1       6.696   1.185   0.774  0.00  0.00    +0.077 A 
ATOM     22  C16 UNL     1       7.773   1.319   1.622  0.00  0.00    +0.231 A 
ATOM     23  O3  UNL     1       7.400   0.969   2.830  0.00  0.00    -0.362 OA
ATOM     24  N5  UNL     1       6.149   0.609   2.854  0.00  0.00    -0.074 NA
ENDBRANCH  17  20
ENDBRANCH  15  16
BRANCH  15  26
ATOM     25  C1  UNL     1       1.155  -0.790  -2.470  0.00  0.00    +0.006 C 
ATOM     26  C2  UNL     1       2.453  -0.109  -2.032  0.00  0.00    +0.020 C 
ENDBRANCH  15  26
ENDBRANCH   1  15
TORSDOF 6
