REMARK  Name = /home/qwerty/github/datacon2025hack/step_04_hit_selection/docking/ligands/lig_299.pdb
REMARK  7 active torsions:
REMARK  status: ('A' for Active; 'I' for Inactive)
REMARK    1  A    between atoms: C1_1  and  C2_2
REMARK    2  A    between atoms: C4_4  and  C5_5
REMARK    3  A    between atoms: C6_6  and  C7_7
REMARK    4  A    between atoms: C10_12  and  N2_13
REMARK    5  A    between atoms: N2_13  and  C11_14
REMARK    6  A    between atoms: C12_15  and  C13_17
REMARK    7  A    between atoms: N4_20  and  C15_21
REMARK                            x       y       z     vdW  Elec       q    Type
REMARK                         _______ _______ _______ _____ _____    ______ ____
ROOT
ATOM      1  C7  UNL     1      -2.397  -0.793  -0.910  0.00  0.00    +0.263 C 
ATOM      2  O1  UNL     1      -2.162  -1.691  -1.762  0.00  0.00    -0.268 OA
ATOM      3  N1  UNL     1      -1.311   0.004  -0.402  0.00  0.00    -0.294 N 
ATOM      4  C8  UNL     1      -1.345   0.703   0.875  0.00  0.00    +0.110 C 
ATOM      5  C9  UNL     1       0.103   1.031   1.215  0.00  0.00    +0.043 C 
ATOM      6  C10 UNL     1       0.888   0.850  -0.090  0.00  0.00    +0.095 C 
ATOM      7  C16 UNL     1       0.014  -0.020  -0.999  0.00  0.00    +0.130 C 
ENDROOT
BRANCH   1  13
ATOM      8  C1  UNL     1      -6.588   1.472   0.488  0.00  0.00    +0.063 C 
ATOM      9  C2  UNL     1      -5.626   0.391   0.119  0.00  0.00    +0.014 A 
ATOM     10  C3  UNL     1      -5.899  -0.963   0.140  0.00  0.00    +0.026 A 
ATOM     11  C4  UNL     1      -4.725  -1.592  -0.229  0.00  0.00    -0.020 A 
ATOM     12  C5  UNL     1      -4.534  -3.067  -0.391  0.00  0.00    +0.046 C 
ATOM     13  C6  UNL     1      -3.785  -0.594  -0.447  0.00  0.00    +0.105 A 
ATOM     14  N6  UNL     1      -4.344   0.613  -0.230  0.00  0.00    -0.354 N 
ATOM     15  H22 UNL     1      -3.895   1.546  -0.357  0.00  0.00    +0.166 HD
ENDBRANCH   1  13
BRANCH   6  16
ATOM     16  N2  UNL     1       2.232   0.280   0.140  0.00  0.00    -0.293 N 
ATOM     17  C11 UNL     1       2.393  -1.094   0.641  0.00  0.00    +0.133 C 
ATOM     18  C12 UNL     1       3.378   1.158   0.104  0.00  0.00    +0.286 C 
ATOM     19  O2  UNL     1       3.235   2.380   0.380  0.00  0.00    -0.267 OA
BRANCH  18  20
ATOM     20  C13 UNL     1       4.726   0.675  -0.253  0.00  0.00    +0.236 A 
ATOM     21  N3  UNL     1       4.988  -0.549  -0.764  0.00  0.00    -0.211 NA
ATOM     22  C14 UNL     1       6.322  -0.508  -0.943  0.00  0.00    +0.219 A 
ATOM     23  N4  UNL     1       6.823   0.681  -0.576  0.00  0.00    -0.254 N 
ATOM     24  C15 UNL     1       8.227   1.069  -0.563  0.00  0.00    +0.174 C 
ATOM     25  N5  UNL     1       5.835   1.433  -0.131  0.00  0.00    -0.145 NA
ENDBRANCH  18  20
ENDBRANCH   6  16
TORSDOF 3
