MODEL 1
REMARK VINA RESULT:    -7.461      0.000      0.000
REMARK INTER + INTRA:          -9.333
REMARK INTER:                  -8.770
REMARK INTRA:                  -0.564
REMARK UNBOUND:                -0.564
REMARK  Name = /home/qwerty/github/datacon2025hack/step_04_hit_selection/docking/ligands/lig_454.pdb
REMARK  3 active torsions:
REMARK  status: ('A' for Active; 'I' for Inactive)
REMARK    1  A    between atoms: C1_2  and  C13_17
REMARK    2  A    between atoms: N1_3  and  C2_4
REMARK    3  A    between atoms: C2_4  and  C3_5
REMARK                            x       y       z     vdW  Elec       q    Type
REMARK                         _______ _______ _______ _____ _____    ______ ____
ROOT
ATOM      1  O1  UNL     1      11.244  12.110  29.533  0.00  0.00    -0.270 OA
ATOM      2  C1  UNL     1      10.694  12.970  30.273  0.00  0.00    +0.245 C 
ATOM      3  N1  UNL     1       9.368  13.427  29.965  0.00  0.00    -0.302 N 
ATOM      4  H1  UNL     1       8.820  13.953  30.680  0.00  0.00    +0.150 HD
ENDROOT
BRANCH   2   5
ATOM      5  C13 UNL     1      11.424  13.483  31.457  0.00  0.00    +0.037 A 
ATOM      6  C14 UNL     1      12.067  14.745  31.397  0.00  0.00    +0.015 A 
ATOM      7  C15 UNL     1      12.760  15.251  32.507  0.00  0.00    +0.024 A 
ATOM      8  C16 UNL     1      12.795  14.489  33.671  0.00  0.00    +0.038 A 
ATOM      9  C17 UNL     1      12.165  13.264  33.753  0.00  0.00    -0.011 A 
ATOM     10  C18 UNL     1      11.470  12.740  32.659  0.00  0.00    +0.019 A 
ATOM     11  C19 UNL     1      12.351  12.666  35.124  0.00  0.00    +0.074 C 
ATOM     12  C20 UNL     1      11.042  12.425  35.871  0.00  0.00    +0.021 C 
ATOM     13  C21 UNL     1      11.338  11.298  36.855  0.00  0.00    +0.001 C 
ATOM     14  C22 UNL     1      12.618  10.606  36.380  0.00  0.00    +0.001 C 
ATOM     15  C23 UNL     1      13.075  11.322  35.113  0.00  0.00    +0.021 C 
ATOM     16  C24 UNL     1      13.181  13.757  35.764  0.00  0.00    +0.228 C 
ATOM     17  O4  UNL     1      13.608  13.728  36.950  0.00  0.00    -0.274 OA
ATOM     18  N2  UNL     1      13.438  14.842  34.882  0.00  0.00    -0.284 N 
ATOM     19  H24 UNL     1      13.980  15.712  35.085  0.00  0.00    +0.155 HD
ENDBRANCH   2   5
BRANCH   3  20
ATOM     20  C2  UNL     1       8.667  12.996  28.758  0.00  0.00    +0.060 C 
ATOM     21  C11 UNL     1       7.639  13.996  28.249  0.00  0.00    +0.033 C 
ATOM     22  C12 UNL     1       8.950  13.801  27.498  0.00  0.00    +0.033 C 
BRANCH  20  23
ATOM     23  C3  UNL     1       8.303  11.543  28.642  0.00  0.00    -0.020 A 
ATOM     24  C4  UNL     1       7.559  10.912  29.655  0.00  0.00    +0.009 A 
ATOM     25  C5  UNL     1       7.196   9.566  29.529  0.00  0.00    +0.050 A 
ATOM     26  C6  UNL     1       7.565   8.850  28.389  0.00  0.00    +0.162 A 
ATOM     27  C7  UNL     1       8.267   9.484  27.356  0.00  0.00    +0.162 A 
ATOM     28  C8  UNL     1       8.645  10.825  27.485  0.00  0.00    +0.055 A 
ATOM     29  O2  UNL     1       8.581   8.760  26.202  0.00  0.00    -0.485 OA
ATOM     30  C9  UNL     1       7.974   7.493  25.937  0.00  0.00    +0.270 C 
ATOM     31  C10 UNL     1       7.834   6.690  27.237  0.00  0.00    +0.270 C 
ATOM     32  O3  UNL     1       7.238   7.496  28.256  0.00  0.00    -0.485 OA
ENDBRANCH  20  23
ENDBRANCH   3  20
TORSDOF 3
ENDMDL
MODEL 2
REMARK VINA RESULT:    -7.405     13.703     16.848
REMARK INTER + INTRA:          -9.267
REMARK INTER:                  -8.567
REMARK INTRA:                  -0.700
REMARK UNBOUND:                -0.564
REMARK  Name = /home/qwerty/github/datacon2025hack/step_04_hit_selection/docking/ligands/lig_454.pdb
REMARK  3 active torsions:
REMARK  status: ('A' for Active; 'I' for Inactive)
REMARK    1  A    between atoms: C1_2  and  C13_17
REMARK    2  A    between atoms: N1_3  and  C2_4
REMARK    3  A    between atoms: C2_4  and  C3_5
REMARK                            x       y       z     vdW  Elec       q    Type
REMARK                         _______ _______ _______ _____ _____    ______ ____
ROOT
ATOM      1  O1  UNL     1      20.812   2.886  27.571  0.00  0.00    -0.270 OA
ATOM      2  C1  UNL     1      20.474   1.729  27.199  0.00  0.00    +0.245 C 
ATOM      3  N1  UNL     1      20.953   0.584  27.921  0.00  0.00    -0.302 N 
ATOM      4  H1  UNL     1      20.506  -0.348  27.772  0.00  0.00    +0.150 HD
ENDROOT
BRANCH   2   5
ATOM      5  C13 UNL     1      19.576   1.576  26.030  0.00  0.00    +0.037 A 
ATOM      6  C14 UNL     1      19.627   2.518  24.973  0.00  0.00    +0.015 A 
ATOM      7  C15 UNL     1      18.788   2.390  23.855  0.00  0.00    +0.024 A 
ATOM      8  C16 UNL     1      17.910   1.312  23.805  0.00  0.00    +0.038 A 
ATOM      9  C17 UNL     1      17.853   0.378  24.819  0.00  0.00    -0.011 A 
ATOM     10  C18 UNL     1      18.679   0.486  25.942  0.00  0.00    +0.019 A 
ATOM     11  C19 UNL     1      16.830  -0.683  24.501  0.00  0.00    +0.074 C 
ATOM     12  C20 UNL     1      17.415  -2.090  24.402  0.00  0.00    +0.021 C 
ATOM     13  C21 UNL     1      16.262  -3.033  24.726  0.00  0.00    +0.001 C 
ATOM     14  C22 UNL     1      15.184  -2.206  25.432  0.00  0.00    +0.001 C 
ATOM     15  C23 UNL     1      15.705  -0.775  25.528  0.00  0.00    +0.021 C 
ATOM     16  C24 UNL     1      16.344  -0.173  23.163  0.00  0.00    +0.228 C 
ATOM     17  O4  UNL     1      15.455  -0.731  22.465  0.00  0.00    -0.274 OA
ATOM     18  N2  UNL     1      17.000   1.023  22.759  0.00  0.00    -0.284 N 
ATOM     19  H24 UNL     1      16.847   1.566  21.880  0.00  0.00    +0.155 HD
ENDBRANCH   2   5
BRANCH   3  20
ATOM     20  C2  UNL     1      21.903   0.710  29.022  0.00  0.00    +0.060 C 
ATOM     21  C11 UNL     1      22.950  -0.395  29.066  0.00  0.00    +0.033 C 
ATOM     22  C12 UNL     1      23.343   1.011  28.629  0.00  0.00    +0.033 C 
BRANCH  20  23
ATOM     23  C3  UNL     1      21.380   1.191  30.345  0.00  0.00    -0.020 A 
ATOM     24  C4  UNL     1      22.077   2.173  31.072  0.00  0.00    +0.009 A 
ATOM     25  C5  UNL     1      21.571   2.640  32.290  0.00  0.00    +0.050 A 
ATOM     26  C6  UNL     1      20.363   2.139  32.780  0.00  0.00    +0.162 A 
ATOM     27  C7  UNL     1      19.641   1.194  32.039  0.00  0.00    +0.162 A 
ATOM     28  C8  UNL     1      20.152   0.713  30.829  0.00  0.00    +0.055 A 
ATOM     29  O2  UNL     1      18.410   0.744  32.526  0.00  0.00    -0.485 OA
ATOM     30  C9  UNL     1      17.752   1.417  33.602  0.00  0.00    +0.270 C 
ATOM     31  C10 UNL     1      18.777   1.880  34.646  0.00  0.00    +0.270 C 
ATOM     32  O3  UNL     1      19.854   2.571  34.009  0.00  0.00    -0.485 OA
ENDBRANCH  20  23
ENDBRANCH   3  20
TORSDOF 3
ENDMDL
MODEL 3
REMARK VINA RESULT:    -7.387     13.384     14.751
REMARK INTER + INTRA:          -9.246
REMARK INTER:                  -8.577
REMARK INTRA:                  -0.669
REMARK UNBOUND:                -0.564
REMARK  Name = /home/qwerty/github/datacon2025hack/step_04_hit_selection/docking/ligands/lig_454.pdb
REMARK  3 active torsions:
REMARK  status: ('A' for Active; 'I' for Inactive)
REMARK    1  A    between atoms: C1_2  and  C13_17
REMARK    2  A    between atoms: N1_3  and  C2_4
REMARK    3  A    between atoms: C2_4  and  C3_5
REMARK                            x       y       z     vdW  Elec       q    Type
REMARK                         _______ _______ _______ _____ _____    ______ ____
ROOT
ATOM      1  O1  UNL     1      20.136   1.974  30.300  0.00  0.00    -0.270 OA
ATOM      2  C1  UNL     1      21.227   2.462  30.702  0.00  0.00    +0.245 C 
ATOM      3  N1  UNL     1      22.448   2.119  30.028  0.00  0.00    -0.302 N 
ATOM      4  H1  UNL     1      23.311   2.682  30.196  0.00  0.00    +0.150 HD
ENDROOT
BRANCH   2   5
ATOM      5  C13 UNL     1      21.225   3.393  31.854  0.00  0.00    +0.037 A 
ATOM      6  C14 UNL     1      20.343   3.170  32.941  0.00  0.00    +0.015 A 
ATOM      7  C15 UNL     1      20.328   4.037  34.044  0.00  0.00    +0.024 A 
ATOM      8  C16 UNL     1      21.204   5.118  34.050  0.00  0.00    +0.038 A 
ATOM      9  C17 UNL     1      22.078   5.346  33.007  0.00  0.00    -0.011 A 
ATOM     10  C18 UNL     1      22.110   4.495  31.898  0.00  0.00    +0.019 A 
ATOM     11  C19 UNL     1      22.916   6.570  33.280  0.00  0.00    +0.074 C 
ATOM     12  C20 UNL     1      24.414   6.287  33.342  0.00  0.00    +0.021 C 
ATOM     13  C21 UNL     1      25.092   7.602  32.975  0.00  0.00    +0.001 C 
ATOM     14  C22 UNL     1      24.041   8.476  32.283  0.00  0.00    +0.001 C 
ATOM     15  C23 UNL     1      22.746   7.672  32.237  0.00  0.00    +0.021 C 
ATOM     16  C24 UNL     1      22.354   6.966  34.626  0.00  0.00    +0.228 C 
ATOM     17  O4  UNL     1      22.737   7.962  35.297  0.00  0.00    -0.274 OA
ATOM     18  N2  UNL     1      21.330   6.086  35.075  0.00  0.00    -0.284 N 
ATOM     19  H24 UNL     1      20.791   6.141  35.968  0.00  0.00    +0.155 HD
ENDBRANCH   2   5
BRANCH   3  20
ATOM     20  C2  UNL     1      22.481   1.140  28.945  0.00  0.00    +0.060 C 
ATOM     21  C11 UNL     1      23.764   0.323  28.887  0.00  0.00    +0.033 C 
ATOM     22  C12 UNL     1      22.470  -0.322  29.367  0.00  0.00    +0.033 C 
BRANCH  20  23
ATOM     23  C3  UNL     1      21.878   1.535  27.626  0.00  0.00    -0.020 A 
ATOM     24  C4  UNL     1      20.852   0.764  27.052  0.00  0.00    +0.009 A 
ATOM     25  C5  UNL     1      20.273   1.152  25.839  0.00  0.00    +0.050 A 
ATOM     26  C6  UNL     1      20.706   2.316  25.202  0.00  0.00    +0.162 A 
ATOM     27  C7  UNL     1      21.695   3.114  25.791  0.00  0.00    +0.162 A 
ATOM     28  C8  UNL     1      22.288   2.721  26.995  0.00  0.00    +0.055 A 
ATOM     29  O2  UNL     1      22.077   4.302  25.160  0.00  0.00    -0.485 OA
ATOM     30  C9  UNL     1      21.302   4.852  24.092  0.00  0.00    +0.270 C 
ATOM     31  C10 UNL     1      20.773   3.731  23.187  0.00  0.00    +0.270 C 
ATOM     32  O3  UNL     1      20.160   2.707  23.975  0.00  0.00    -0.485 OA
ENDBRANCH  20  23
ENDBRANCH   3  20
TORSDOF 3
ENDMDL
MODEL 4
REMARK VINA RESULT:    -7.356     13.210     16.761
REMARK INTER + INTRA:          -9.210
REMARK INTER:                  -8.648
REMARK INTRA:                  -0.562
REMARK UNBOUND:                -0.564
REMARK  Name = /home/qwerty/github/datacon2025hack/step_04_hit_selection/docking/ligands/lig_454.pdb
REMARK  3 active torsions:
REMARK  status: ('A' for Active; 'I' for Inactive)
REMARK    1  A    between atoms: C1_2  and  C13_17
REMARK    2  A    between atoms: N1_3  and  C2_4
REMARK    3  A    between atoms: C2_4  and  C3_5
REMARK                            x       y       z     vdW  Elec       q    Type
REMARK                         _______ _______ _______ _____ _____    ______ ____
ROOT
ATOM      1  O1  UNL     1      19.938  -0.072  25.554  0.00  0.00    -0.270 OA
ATOM      2  C1  UNL     1      19.144   0.850  25.226  0.00  0.00    +0.245 C 
ATOM      3  N1  UNL     1      19.423   2.202  25.623  0.00  0.00    -0.302 N 
ATOM      4  H1  UNL     1      18.912   2.992  25.172  0.00  0.00    +0.150 HD
ENDROOT
BRANCH   2   5
ATOM      5  C13 UNL     1      17.943   0.522  24.422  0.00  0.00    +0.037 A 
ATOM      6  C14 UNL     1      17.242  -0.686  24.661  0.00  0.00    +0.015 A 
ATOM      7  C15 UNL     1      16.100  -1.014  23.914  0.00  0.00    +0.024 A 
ATOM      8  C16 UNL     1      15.667  -0.122  22.938  0.00  0.00    +0.038 A 
ATOM      9  C17 UNL     1      16.329   1.065  22.698  0.00  0.00    -0.011 A 
ATOM     10  C18 UNL     1      17.469   1.411  23.430  0.00  0.00    +0.019 A 
ATOM     11  C19 UNL     1      15.640   1.840  21.604  0.00  0.00    +0.074 C 
ATOM     12  C20 UNL     1      15.131   3.209  22.048  0.00  0.00    +0.021 C 
ATOM     13  C21 UNL     1      15.081   4.055  20.781  0.00  0.00    +0.001 C 
ATOM     14  C22 UNL     1      15.957   3.358  19.735  0.00  0.00    +0.001 C 
ATOM     15  C23 UNL     1      16.527   2.103  20.389  0.00  0.00    +0.021 C 
ATOM     16  C24 UNL     1      14.510   0.886  21.290  0.00  0.00    +0.228 C 
ATOM     17  O4  UNL     1      13.627   1.086  20.413  0.00  0.00    -0.274 OA
ATOM     18  N2  UNL     1      14.539  -0.285  22.098  0.00  0.00    -0.284 N 
ATOM     19  H24 UNL     1      13.871  -1.088  22.078  0.00  0.00    +0.155 HD
ENDBRANCH   2   5
BRANCH   3  20
ATOM     20  C2  UNL     1      20.555   2.532  26.484  0.00  0.00    +0.060 C 
ATOM     21  C11 UNL     1      21.885   2.630  25.749  0.00  0.00    +0.033 C 
ATOM     22  C12 UNL     1      21.196   3.893  26.251  0.00  0.00    +0.033 C 
BRANCH  20  23
ATOM     23  C3  UNL     1      20.591   1.921  27.857  0.00  0.00    -0.020 A 
ATOM     24  C4  UNL     1      21.789   1.394  28.370  0.00  0.00    +0.009 A 
ATOM     25  C5  UNL     1      21.825   0.853  29.660  0.00  0.00    +0.050 A 
ATOM     26  C6  UNL     1      20.671   0.847  30.445  0.00  0.00    +0.162 A 
ATOM     27  C7  UNL     1      19.485   1.412  29.957  0.00  0.00    +0.162 A 
ATOM     28  C8  UNL     1      19.441   1.939  28.662  0.00  0.00    +0.055 A 
ATOM     29  O2  UNL     1      18.355   1.441  30.780  0.00  0.00    -0.485 OA
ATOM     30  C9  UNL     1      18.455   1.163  32.179  0.00  0.00    +0.270 C 
ATOM     31  C10 UNL     1      19.458   0.029  32.426  0.00  0.00    +0.270 C 
ATOM     32  O3  UNL     1      20.678   0.286  31.726  0.00  0.00    -0.485 OA
ENDBRANCH  20  23
ENDBRANCH   3  20
TORSDOF 3
ENDMDL
MODEL 5
REMARK VINA RESULT:    -7.237      2.456      3.641
REMARK INTER + INTRA:          -9.070
REMARK INTER:                  -8.549
REMARK INTRA:                  -0.521
REMARK UNBOUND:                -0.564
REMARK  Name = /home/qwerty/github/datacon2025hack/step_04_hit_selection/docking/ligands/lig_454.pdb
REMARK  3 active torsions:
REMARK  status: ('A' for Active; 'I' for Inactive)
REMARK    1  A    between atoms: C1_2  and  C13_17
REMARK    2  A    between atoms: N1_3  and  C2_4
REMARK    3  A    between atoms: C2_4  and  C3_5
REMARK                            x       y       z     vdW  Elec       q    Type
REMARK                         _______ _______ _______ _____ _____    ______ ____
ROOT
ATOM      1  O1  UNL     1      10.595  14.200  32.019  0.00  0.00    -0.270 OA
ATOM      2  C1  UNL     1      11.757  13.722  32.129  0.00  0.00    +0.245 C 
ATOM      3  N1  UNL     1      12.449  13.264  30.957  0.00  0.00    -0.302 N 
ATOM      4  H1  UNL     1      13.477  13.085  30.997  0.00  0.00    +0.150 HD
ENDROOT
BRANCH   2   5
ATOM      5  C13 UNL     1      12.392  13.657  33.467  0.00  0.00    +0.037 A 
ATOM      6  C14 UNL     1      11.611  13.875  34.629  0.00  0.00    +0.015 A 
ATOM      7  C15 UNL     1      12.191  13.814  35.906  0.00  0.00    +0.024 A 
ATOM      8  C16 UNL     1      13.549  13.527  36.004  0.00  0.00    +0.038 A 
ATOM      9  C17 UNL     1      14.323  13.301  34.885  0.00  0.00    -0.011 A 
ATOM     10  C18 UNL     1      13.767  13.358  33.604  0.00  0.00    +0.019 A 
ATOM     11  C19 UNL     1      15.747  13.002  35.281  0.00  0.00    +0.074 C 
ATOM     12  C20 UNL     1      16.230  11.623  34.839  0.00  0.00    +0.021 C 
ATOM     13  C21 UNL     1      17.746  11.741  34.725  0.00  0.00    +0.001 C 
ATOM     14  C22 UNL     1      18.081  13.234  34.652  0.00  0.00    +0.001 C 
ATOM     15  C23 UNL     1      16.760  13.995  34.718  0.00  0.00    +0.021 C 
ATOM     16  C24 UNL     1      15.619  13.107  36.784  0.00  0.00    +0.228 C 
ATOM     17  O4  UNL     1      16.567  12.937  37.597  0.00  0.00    -0.274 OA
ATOM     18  N2  UNL     1      14.296  13.422  37.203  0.00  0.00    -0.284 N 
ATOM     19  H24 UNL     1      13.950  13.544  38.180  0.00  0.00    +0.155 HD
ENDBRANCH   2   5
BRANCH   3  20
ATOM     20  C2  UNL     1      11.810  13.242  29.644  0.00  0.00    +0.060 C 
ATOM     21  C11 UNL     1      11.874  14.570  28.903  0.00  0.00    +0.033 C 
ATOM     22  C12 UNL     1      12.738  13.400  28.448  0.00  0.00    +0.033 C 
BRANCH  20  23
ATOM     23  C3  UNL     1      10.540  12.453  29.498  0.00  0.00    -0.020 A 
ATOM     24  C4  UNL     1       9.466  12.965  28.749  0.00  0.00    +0.009 A 
ATOM     25  C5  UNL     1       8.296  12.214  28.590  0.00  0.00    +0.050 A 
ATOM     26  C6  UNL     1       8.199  10.947  29.168  0.00  0.00    +0.162 A 
ATOM     27  C7  UNL     1       9.282  10.412  29.877  0.00  0.00    +0.162 A 
ATOM     28  C8  UNL     1      10.447  11.166  30.052  0.00  0.00    +0.055 A 
ATOM     29  O2  UNL     1       9.180   9.120  30.404  0.00  0.00    -0.485 OA
ATOM     30  C9  UNL     1       8.123   8.243  30.007  0.00  0.00    +0.270 C 
ATOM     31  C10 UNL     1       6.813   9.027  29.848  0.00  0.00    +0.270 C 
ATOM     32  O3  UNL     1       7.027  10.191  29.046  0.00  0.00    -0.485 OA
ENDBRANCH  20  23
ENDBRANCH   3  20
TORSDOF 3
ENDMDL
MODEL 6
REMARK VINA RESULT:    -7.185     11.818     13.624
REMARK INTER + INTRA:          -9.008
REMARK INTER:                  -8.443
REMARK INTRA:                  -0.565
REMARK UNBOUND:                -0.564
REMARK  Name = /home/qwerty/github/datacon2025hack/step_04_hit_selection/docking/ligands/lig_454.pdb
REMARK  3 active torsions:
REMARK  status: ('A' for Active; 'I' for Inactive)
REMARK    1  A    between atoms: C1_2  and  C13_17
REMARK    2  A    between atoms: N1_3  and  C2_4
REMARK    3  A    between atoms: C2_4  and  C3_5
REMARK                            x       y       z     vdW  Elec       q    Type
REMARK                         _______ _______ _______ _____ _____    ______ ____
ROOT
ATOM      1  O1  UNL     1      22.969   3.282  32.298  0.00  0.00    -0.270 OA
ATOM      2  C1  UNL     1      21.917   3.857  32.689  0.00  0.00    +0.245 C 
ATOM      3  N1  UNL     1      20.637   3.360  32.266  0.00  0.00    -0.302 N 
ATOM      4  H1  UNL     1      19.770   3.673  32.755  0.00  0.00    +0.150 HD
ENDROOT
BRANCH   2   5
ATOM      5  C13 UNL     1      22.022   5.029  33.591  0.00  0.00    +0.037 A 
ATOM      6  C14 UNL     1      23.228   5.770  33.647  0.00  0.00    +0.015 A 
ATOM      7  C15 UNL     1      23.348   6.885  34.491  0.00  0.00    +0.024 A 
ATOM      8  C16 UNL     1      22.251   7.251  35.266  0.00  0.00    +0.038 A 
ATOM      9  C17 UNL     1      21.064   6.549  35.216  0.00  0.00    -0.011 A 
ATOM     10  C18 UNL     1      20.923   5.435  34.383  0.00  0.00    +0.019 A 
ATOM     11  C19 UNL     1      20.047   7.168  36.141  0.00  0.00    +0.074 C 
ATOM     12  C20 UNL     1      18.791   7.662  35.430  0.00  0.00    +0.021 C 
ATOM     13  C21 UNL     1      17.690   7.634  36.484  0.00  0.00    +0.001 C 
ATOM     14  C22 UNL     1      18.173   6.730  37.621  0.00  0.00    +0.001 C 
ATOM     15  C23 UNL     1      19.558   6.221  37.234  0.00  0.00    +0.021 C 
ATOM     16  C24 UNL     1      20.872   8.306  36.698  0.00  0.00    +0.228 C 
ATOM     17  O4  UNL     1      20.457   9.144  37.544  0.00  0.00    -0.274 OA
ATOM     18  N2  UNL     1      22.190   8.343  36.164  0.00  0.00    -0.284 N 
ATOM     19  H24 UNL     1      22.946   9.030  36.384  0.00  0.00    +0.155 HD
ENDBRANCH   2   5
BRANCH   3  20
ATOM     20  C2  UNL     1      20.516   2.260  31.313  0.00  0.00    +0.060 C 
ATOM     21  C11 UNL     1      20.633   0.879  31.942  0.00  0.00    +0.033 C 
ATOM     22  C12 UNL     1      19.280   1.385  31.458  0.00  0.00    +0.033 C 
BRANCH  20  23
ATOM     23  C3  UNL     1      21.145   2.436  29.959  0.00  0.00    -0.020 A 
ATOM     24  C4  UNL     1      21.952   1.423  29.413  0.00  0.00    +0.009 A 
ATOM     25  C5  UNL     1      22.512   1.577  28.139  0.00  0.00    +0.050 A 
ATOM     26  C6  UNL     1      22.258   2.737  27.404  0.00  0.00    +0.162 A 
ATOM     27  C7  UNL     1      21.418   3.730  27.924  0.00  0.00    +0.162 A 
ATOM     28  C8  UNL     1      20.870   3.586  29.202  0.00  0.00    +0.055 A 
ATOM     29  O2  UNL     1      21.138   4.859  27.148  0.00  0.00    -0.485 OA
ATOM     30  C9  UNL     1      21.458   4.896  25.755  0.00  0.00    +0.270 C 
ATOM     31  C10 UNL     1      22.804   4.202  25.501  0.00  0.00    +0.270 C 
ATOM     32  O3  UNL     1      22.830   2.924  26.141  0.00  0.00    -0.485 OA
ENDBRANCH  20  23
ENDBRANCH   3  20
TORSDOF 3
ENDMDL
MODEL 7
REMARK VINA RESULT:    -7.144      4.018     10.197
REMARK INTER + INTRA:          -8.960
REMARK INTER:                  -8.277
REMARK INTRA:                  -0.683
REMARK UNBOUND:                -0.564
REMARK  Name = /home/qwerty/github/datacon2025hack/step_04_hit_selection/docking/ligands/lig_454.pdb
REMARK  3 active torsions:
REMARK  status: ('A' for Active; 'I' for Inactive)
REMARK    1  A    between atoms: C1_2  and  C13_17
REMARK    2  A    between atoms: N1_3  and  C2_4
REMARK    3  A    between atoms: C2_4  and  C3_5
REMARK                            x       y       z     vdW  Elec       q    Type
REMARK                         _______ _______ _______ _____ _____    ______ ____
ROOT
ATOM      1  O1  UNL     1       9.598  10.130  28.433  0.00  0.00    -0.270 OA
ATOM      2  C1  UNL     1       9.182  10.541  27.316  0.00  0.00    +0.245 C 
ATOM      3  N1  UNL     1       8.892  11.936  27.137  0.00  0.00    -0.302 N 
ATOM      4  H1  UNL     1       8.771  12.323  26.175  0.00  0.00    +0.150 HD
ENDROOT
BRANCH   2   5
ATOM      5  C13 UNL     1       9.014   9.576  26.204  0.00  0.00    +0.037 A 
ATOM      6  C14 UNL     1       8.555   8.263  26.472  0.00  0.00    +0.015 A 
ATOM      7  C15 UNL     1       8.385   7.334  25.433  0.00  0.00    +0.024 A 
ATOM      8  C16 UNL     1       8.671   7.736  24.132  0.00  0.00    +0.038 A 
ATOM      9  C17 UNL     1       9.107   9.014  23.849  0.00  0.00    -0.011 A 
ATOM     10  C18 UNL     1       9.284   9.954  24.868  0.00  0.00    +0.019 A 
ATOM     11  C19 UNL     1       9.326   9.180  22.366  0.00  0.00    +0.074 C 
ATOM     12  C20 UNL     1       8.453  10.261  21.735  0.00  0.00    +0.021 C 
ATOM     13  C21 UNL     1       9.214  10.725  20.497  0.00  0.00    +0.001 C 
ATOM     14  C22 UNL     1      10.666  10.267  20.659  0.00  0.00    +0.001 C 
ATOM     15  C23 UNL     1      10.762   9.538  21.996  0.00  0.00    +0.021 C 
ATOM     16  C24 UNL     1       8.944   7.793  21.898  0.00  0.00    +0.228 C 
ATOM     17  O4  UNL     1       8.961   7.414  20.696  0.00  0.00    -0.274 OA
ATOM     18  N2  UNL     1       8.553   6.940  22.967  0.00  0.00    -0.284 N 
ATOM     19  H24 UNL     1       8.243   5.945  22.905  0.00  0.00    +0.155 HD
ENDBRANCH   2   5
BRANCH   3  20
ATOM     20  C2  UNL     1       8.971  12.887  28.243  0.00  0.00    +0.060 C 
ATOM     21  C11 UNL     1       7.812  13.872  28.297  0.00  0.00    +0.033 C 
ATOM     22  C12 UNL     1       7.906  12.747  29.321  0.00  0.00    +0.033 C 
BRANCH  20  23
ATOM     23  C3  UNL     1      10.326  13.425  28.606  0.00  0.00    -0.020 A 
ATOM     24  C4  UNL     1      10.644  13.709  29.945  0.00  0.00    +0.009 A 
ATOM     25  C5  UNL     1      11.917  14.182  30.283  0.00  0.00    +0.050 A 
ATOM     26  C6  UNL     1      12.879  14.362  29.287  0.00  0.00    +0.162 A 
ATOM     27  C7  UNL     1      12.583  14.038  27.957  0.00  0.00    +0.162 A 
ATOM     28  C8  UNL     1      11.308  13.580  27.613  0.00  0.00    +0.055 A 
ATOM     29  O2  UNL     1      13.580  14.178  26.985  0.00  0.00    -0.485 OA
ATOM     30  C9  UNL     1      14.947  14.376  27.353  0.00  0.00    +0.270 C 
ATOM     31  C10 UNL     1      15.040  15.303  28.572  0.00  0.00    +0.270 C 
ATOM     32  O3  UNL     1      14.148  14.861  29.599  0.00  0.00    -0.485 OA
ENDBRANCH  20  23
ENDBRANCH   3  20
TORSDOF 3
ENDMDL
MODEL 8
REMARK VINA RESULT:    -7.102     12.994     14.332
REMARK INTER + INTRA:          -8.911
REMARK INTER:                  -8.387
REMARK INTRA:                  -0.524
REMARK UNBOUND:                -0.564
REMARK  Name = /home/qwerty/github/datacon2025hack/step_04_hit_selection/docking/ligands/lig_454.pdb
REMARK  3 active torsions:
REMARK  status: ('A' for Active; 'I' for Inactive)
REMARK    1  A    between atoms: C1_2  and  C13_17
REMARK    2  A    between atoms: N1_3  and  C2_4
REMARK    3  A    between atoms: C2_4  and  C3_5
REMARK                            x       y       z     vdW  Elec       q    Type
REMARK                         _______ _______ _______ _____ _____    ______ ____
ROOT
ATOM      1  O1  UNL     1      20.075   4.638  28.935  0.00  0.00    -0.270 OA
ATOM      2  C1  UNL     1      21.003   3.925  29.407  0.00  0.00    +0.245 C 
ATOM      3  N1  UNL     1      21.586   2.892  28.598  0.00  0.00    -0.302 N 
ATOM      4  H1  UNL     1      22.491   2.457  28.883  0.00  0.00    +0.150 HD
ENDROOT
BRANCH   2   5
ATOM      5  C13 UNL     1      21.483   4.179  30.786  0.00  0.00    +0.037 A 
ATOM      6  C14 UNL     1      21.488   3.128  31.736  0.00  0.00    +0.015 A 
ATOM      7  C15 UNL     1      21.942   3.345  33.046  0.00  0.00    +0.024 A 
ATOM      8  C16 UNL     1      22.394   4.616  33.389  0.00  0.00    +0.038 A 
ATOM      9  C17 UNL     1      22.408   5.649  32.475  0.00  0.00    -0.011 A 
ATOM     10  C18 UNL     1      21.960   5.455  31.165  0.00  0.00    +0.019 A 
ATOM     11  C19 UNL     1      22.957   6.904  33.106  0.00  0.00    +0.074 C 
ATOM     12  C20 UNL     1      24.220   7.430  32.429  0.00  0.00    +0.021 C 
ATOM     13  C21 UNL     1      24.247   8.925  32.725  0.00  0.00    +0.001 C 
ATOM     14  C22 UNL     1      22.834   9.328  33.155  0.00  0.00    +0.001 C 
ATOM     15  C23 UNL     1      21.972   8.070  33.107  0.00  0.00    +0.021 C 
ATOM     16  C24 UNL     1      23.231   6.386  34.500  0.00  0.00    +0.228 C 
ATOM     17  O4  UNL     1      23.711   7.077  35.438  0.00  0.00    -0.274 OA
ATOM     18  N2  UNL     1      22.890   5.013  34.654  0.00  0.00    -0.284 N 
ATOM     19  H24 UNL     1      22.987   4.426  35.512  0.00  0.00    +0.155 HD
ENDBRANCH   2   5
BRANCH   3  20
ATOM     20  C2  UNL     1      21.071   2.572  27.269  0.00  0.00    +0.060 C 
ATOM     21  C11 UNL     1      21.075   1.085  26.945  0.00  0.00    +0.033 C 
ATOM     22  C12 UNL     1      19.760   1.801  27.230  0.00  0.00    +0.033 C 
BRANCH  20  23
ATOM     23  C3  UNL     1      21.416   3.505  26.142  0.00  0.00    -0.020 A 
ATOM     24  C4  UNL     1      22.513   4.377  26.251  0.00  0.00    +0.009 A 
ATOM     25  C5  UNL     1      22.849   5.223  25.187  0.00  0.00    +0.050 A 
ATOM     26  C6  UNL     1      22.099   5.192  24.010  0.00  0.00    +0.162 A 
ATOM     27  C7  UNL     1      21.032   4.294  23.879  0.00  0.00    +0.162 A 
ATOM     28  C8  UNL     1      20.684   3.458  24.945  0.00  0.00    +0.055 A 
ATOM     29  O2  UNL     1      20.328   4.246  22.672  0.00  0.00    -0.485 OA
ATOM     30  C9  UNL     1      20.834   4.883  21.496  0.00  0.00    +0.270 C 
ATOM     31  C10 UNL     1      21.490   6.222  21.858  0.00  0.00    +0.270 C 
ATOM     32  O3  UNL     1      22.400   6.050  22.947  0.00  0.00    -0.485 OA
ENDBRANCH  20  23
ENDBRANCH   3  20
TORSDOF 3
ENDMDL
MODEL 9
REMARK VINA RESULT:    -7.078     11.648     15.264
REMARK INTER + INTRA:          -8.883
REMARK INTER:                  -8.303
REMARK INTRA:                  -0.580
REMARK UNBOUND:                -0.564
REMARK  Name = /home/qwerty/github/datacon2025hack/step_04_hit_selection/docking/ligands/lig_454.pdb
REMARK  3 active torsions:
REMARK  status: ('A' for Active; 'I' for Inactive)
REMARK    1  A    between atoms: C1_2  and  C13_17
REMARK    2  A    between atoms: N1_3  and  C2_4
REMARK    3  A    between atoms: C2_4  and  C3_5
REMARK                            x       y       z     vdW  Elec       q    Type
REMARK                         _______ _______ _______ _____ _____    ______ ____
ROOT
ATOM      1  O1  UNL     1      20.857   7.197  31.274  0.00  0.00    -0.270 OA
ATOM      2  C1  UNL     1      21.877   6.484  31.475  0.00  0.00    +0.245 C 
ATOM      3  N1  UNL     1      23.037   7.064  32.092  0.00  0.00    -0.302 N 
ATOM      4  H1  UNL     1      23.789   6.445  32.470  0.00  0.00    +0.150 HD
ENDROOT
BRANCH   2   5
ATOM      5  C13 UNL     1      21.853   5.055  31.082  0.00  0.00    +0.037 A 
ATOM      6  C14 UNL     1      21.976   4.049  32.073  0.00  0.00    +0.015 A 
ATOM      7  C15 UNL     1      21.952   2.690  31.723  0.00  0.00    +0.024 A 
ATOM      8  C16 UNL     1      21.797   2.353  30.382  0.00  0.00    +0.038 A 
ATOM      9  C17 UNL     1      21.664   3.318  29.405  0.00  0.00    -0.011 A 
ATOM     10  C18 UNL     1      21.686   4.677  29.730  0.00  0.00    +0.019 A 
ATOM     11  C19 UNL     1      21.499   2.676  28.050  0.00  0.00    +0.074 C 
ATOM     12  C20 UNL     1      20.180   3.023  27.364  0.00  0.00    +0.021 C 
ATOM     13  C21 UNL     1      20.447   2.868  25.871  0.00  0.00    +0.001 C 
ATOM     14  C22 UNL     1      21.966   2.884  25.677  0.00  0.00    +0.001 C 
ATOM     15  C23 UNL     1      22.594   3.053  27.056  0.00  0.00    +0.021 C 
ATOM     16  C24 UNL     1      21.567   1.220  28.451  0.00  0.00    +0.228 C 
ATOM     17  O4  UNL     1      21.477   0.252  27.648  0.00  0.00    -0.274 OA
ATOM     18  N2  UNL     1      21.745   1.041  29.851  0.00  0.00    -0.284 N 
ATOM     19  H24 UNL     1      21.818   0.140  30.373  0.00  0.00    +0.155 HD
ENDBRANCH   2   5
BRANCH   3  20
ATOM     20  C2  UNL     1      23.110   8.487  32.410  0.00  0.00    +0.060 C 
ATOM     21  C11 UNL     1      24.510   9.075  32.302  0.00  0.00    +0.033 C 
ATOM     22  C12 UNL     1      23.459   9.412  31.252  0.00  0.00    +0.033 C 
BRANCH  20  23
ATOM     23  C3  UNL     1      22.253   8.998  33.533  0.00  0.00    -0.020 A 
ATOM     24  C4  UNL     1      22.308   8.394  34.802  0.00  0.00    +0.009 A 
ATOM     25  C5  UNL     1      21.530   8.892  35.854  0.00  0.00    +0.050 A 
ATOM     26  C6  UNL     1      20.705   9.999  35.646  0.00  0.00    +0.162 A 
ATOM     27  C7  UNL     1      20.680  10.633  34.397  0.00  0.00    +0.162 A 
ATOM     28  C8  UNL     1      21.443  10.129  33.339  0.00  0.00    +0.055 A 
ATOM     29  O2  UNL     1      19.884  11.770  34.227  0.00  0.00    -0.485 OA
ATOM     30  C9  UNL     1      19.322  12.452  35.351  0.00  0.00    +0.270 C 
ATOM     31  C10 UNL     1      18.860  11.441  36.409  0.00  0.00    +0.270 C 
ATOM     32  O3  UNL     1      19.898  10.494  36.676  0.00  0.00    -0.485 OA
ENDBRANCH  20  23
ENDBRANCH   3  20
TORSDOF 3
ENDMDL
