REMARK  Name = /home/qwerty/github/datacon2025hack/step_04_hit_selection/docking/ligands/lig_44.pdb
REMARK  6 active torsions:
REMARK  status: ('A' for Active; 'I' for Inactive)
REMARK    1  A    between atoms: C1_1  and  C2_2
REMARK    2  A    between atoms: C4_4  and  N1_5
REMARK    3  A    between atoms: C5_6  and  C6_8
REMARK    4  A    between atoms: N2_10  and  C7_11
REMARK    5  A    between atoms: C14_20  and  C15_21
REMARK    6  A    between atoms: N4_23  and  C16_24
REMARK                            x       y       z     vdW  Elec       q    Type
REMARK                         _______ _______ _______ _____ _____    ______ ____
ROOT
ATOM      1  N1  UNL     1      -2.273  -1.898   1.179  0.00  0.00    -0.262 N 
ATOM      2  C5  UNL     1      -1.509  -0.708   1.427  0.00  0.00    +0.305 C 
ATOM      3  O1  UNL     1      -2.090   0.352   1.784  0.00  0.00    -0.265 OA
ATOM      4  H5  UNL     1      -1.801  -2.826   1.268  0.00  0.00    +0.157 HD
ENDROOT
BRANCH   1   8
ATOM      5  C1  UNL     1      -7.122  -2.833   1.726  0.00  0.00    +0.067 C 
ATOM      6  C2  UNL     1      -5.814  -2.294   1.251  0.00  0.00    +0.062 A 
ATOM      7  C3  UNL     1      -4.567  -2.743   1.645  0.00  0.00    +0.068 A 
ATOM      8  C4  UNL     1      -3.697  -1.883   1.013  0.00  0.00    +0.129 A 
ATOM      9  N4  UNL     1      -4.398  -0.988   0.278  0.00  0.00    -0.218 N 
ATOM     10  N5  UNL     1      -5.691  -1.228   0.435  0.00  0.00    -0.170 NA
BRANCH   9  11
ATOM     11  C16 UNL     1      -3.893   0.023  -0.611  0.00  0.00    +0.070 A 
ATOM     12  C17 UNL     1      -4.540   1.267  -0.695  0.00  0.00    +0.028 A 
ATOM     13  C18 UNL     1      -4.060   2.255  -1.560  0.00  0.00    +0.005 A 
ATOM     14  C19 UNL     1      -2.939   2.005  -2.357  0.00  0.00    +0.038 A 
ATOM     15  C20 UNL     1      -2.302   0.763  -2.297  0.00  0.00    +0.125 A 
ATOM     16  F1  UNL     1      -1.222   0.517  -3.079  0.00  0.00    -0.205 F 
ATOM     17  C21 UNL     1      -2.781  -0.229  -1.435  0.00  0.00    +0.066 A 
ENDBRANCH   9  11
ENDBRANCH   1   8
BRANCH   2  18
ATOM     18  C6  UNL     1      -0.044  -0.716   1.265  0.00  0.00    +0.304 C 
ATOM     19  O2  UNL     1       0.531  -1.770   0.880  0.00  0.00    -0.265 OA
ATOM     20  N2  UNL     1       0.725   0.461   1.562  0.00  0.00    -0.278 N 
ATOM     21  H6  UNL     1       0.305   1.178   2.195  0.00  0.00    +0.155 HD
BRANCH  20  22
ATOM     22  C7  UNL     1       2.076   0.666   1.115  0.00  0.00    +0.036 A 
ATOM     23  C8  UNL     1       2.953   1.430   1.902  0.00  0.00    +0.027 A 
ATOM     24  C9  UNL     1       4.263   1.667   1.477  0.00  0.00    +0.049 A 
ATOM     25  C10 UNL     1       4.709   1.150   0.258  0.00  0.00    +0.143 A 
ATOM     26  C11 UNL     1       3.835   0.411  -0.551  0.00  0.00    +0.077 A 
ATOM     27  C12 UNL     1       2.520   0.176  -0.127  0.00  0.00    +0.050 A 
ATOM     28  N3  UNL     1       4.286  -0.050  -1.828  0.00  0.00    -0.279 N 
ATOM     29  C13 UNL     1       5.648   0.141  -2.224  0.00  0.00    +0.258 C 
ATOM     30  O3  UNL     1       6.017  -0.224  -3.373  0.00  0.00    -0.271 OA
ATOM     31  C14 UNL     1       6.655   0.675  -1.230  0.00  0.00    +0.256 C 
ATOM     32  C15 UNL     1       7.680   1.586  -1.902  0.00  0.00    +0.062 C 
ATOM     33  O4  UNL     1       6.018   1.398  -0.169  0.00  0.00    -0.478 OA
ATOM     34  H10 UNL     1       3.621  -0.522  -2.482  0.00  0.00    +0.155 HD
ENDBRANCH  20  22
ENDBRANCH   2  18
TORSDOF 4
