MODEL 1
REMARK VINA RESULT:    -6.933      0.000      0.000
REMARK INTER + INTRA:          -9.168
REMARK INTER:                  -8.554
REMARK INTRA:                  -0.614
REMARK UNBOUND:                -0.614
REMARK  Name = /home/qwerty/github/datacon2025hack/step_04_hit_selection/docking/ligands/lig_171.pdb
REMARK  5 active torsions:
REMARK  status: ('A' for Active; 'I' for Inactive)
REMARK    1  A    between atoms: C1_1  and  O1_2
REMARK    2  A    between atoms: O1_2  and  C2_3
REMARK    3  A    between atoms: C9_10  and  N1_11
REMARK    4  A    between atoms: N2_18  and  C16_19
REMARK    5  A    between atoms: C16_19  and  C17_20
REMARK                            x       y       z     vdW  Elec       q    Type
REMARK                         _______ _______ _______ _____ _____    ______ ____
ROOT
ATOM      1  N1  UNL     1      20.077  13.174  20.413  0.00  0.00    -0.299 NA
ATOM      2  C10 UNL     1      19.516  12.616  21.664  0.00  0.00    +0.087 C 
ATOM      3  C11 UNL     1      20.348  13.076  22.882  0.00  0.00    +0.051 C 
ATOM      4  C12 UNL     1      21.185  14.358  22.602  0.00  0.00    +0.085 C 
ATOM      5  C13 UNL     1      20.308  15.299  21.725  0.00  0.00    +0.051 C 
ATOM      6  C14 UNL     1      19.948  14.647  20.372  0.00  0.00    +0.087 C 
ATOM      7  C15 UNL     1      21.569  15.045  23.956  0.00  0.00    +0.119 C 
ATOM      8  N2  UNL     1      23.029  15.244  24.065  0.00  0.00    -0.293 NA
ATOM      9  C21 UNL     1      23.516  15.905  22.847  0.00  0.00    +0.113 C 
ATOM     10  C22 UNL     1      23.251  15.010  21.626  0.00  0.00    +0.176 C 
ATOM     11  O3  UNL     1      22.356  13.944  21.900  0.00  0.00    -0.371 OA
ENDROOT
BRANCH   1  19
ATOM     12  C2  UNL     1      17.871   8.109  19.211  0.00  0.00    +0.120 A 
ATOM     13  C3  UNL     1      19.222   7.815  18.901  0.00  0.00    +0.046 A 
ATOM     14  C4  UNL     1      20.152   8.852  18.729  0.00  0.00    +0.007 A 
ATOM     15  C5  UNL     1      19.723  10.172  18.875  0.00  0.00    -0.042 A 
ATOM     16  C6  UNL     1      18.417  10.463  19.177  0.00  0.00    -0.039 A 
ATOM     17  C7  UNL     1      17.471   9.449  19.345  0.00  0.00    +0.049 A 
ATOM     18  C8  UNL     1      18.175  11.922  19.259  0.00  0.00    +0.054 C 
ATOM     19  C9  UNL     1      19.600  12.536  19.158  0.00  0.00    +0.065 C 
ATOM     20  C23 UNL     1      20.548  11.393  18.719  0.00  0.00    +0.054 C 
BRANCH  12  22
ATOM     21  C1  UNL     1      17.198   5.714  19.453  0.00  0.00    +0.277 C 
ATOM     22  O1  UNL     1      16.906   7.107  19.387  0.00  0.00    -0.495 OA
ENDBRANCH  12  22
ENDBRANCH   1  19
BRANCH   8  23
ATOM     23  C16 UNL     1      23.375  16.048  25.256  0.00  0.00    +0.123 C 
BRANCH  23  24
ATOM     24  C17 UNL     1      23.072  15.289  26.513  0.00  0.00    +0.004 A 
ATOM     25  C18 UNL     1      23.657  14.112  26.926  0.00  0.00    +0.046 A 
ATOM     26  C19 UNL     1      23.088  13.831  28.152  0.00  0.00    +0.195 A 
ATOM     27  O2  UNL     1      22.224  14.770  28.468  0.00  0.00    -0.471 OA
ATOM     28  C20 UNL     1      22.192  15.664  27.507  0.00  0.00    +0.199 A 
ENDBRANCH  23  24
ENDBRANCH   8  23
TORSDOF 4
ENDMDL
MODEL 2
REMARK VINA RESULT:    -6.784      9.358     12.175
REMARK INTER + INTRA:          -8.984
REMARK INTER:                  -8.289
REMARK INTRA:                  -0.695
REMARK UNBOUND:                -0.614
REMARK  Name = /home/qwerty/github/datacon2025hack/step_04_hit_selection/docking/ligands/lig_171.pdb
REMARK  5 active torsions:
REMARK  status: ('A' for Active; 'I' for Inactive)
REMARK    1  A    between atoms: C1_1  and  O1_2
REMARK    2  A    between atoms: O1_2  and  C2_3
REMARK    3  A    between atoms: C9_10  and  N1_11
REMARK    4  A    between atoms: N2_18  and  C16_19
REMARK    5  A    between atoms: C16_19  and  C17_20
REMARK                            x       y       z     vdW  Elec       q    Type
REMARK                         _______ _______ _______ _____ _____    ______ ____
ROOT
ATOM      1  N1  UNL     1      21.023   2.398  26.230  0.00  0.00    -0.299 NA
ATOM      2  C10 UNL     1      22.418   2.844  26.443  0.00  0.00    +0.087 C 
ATOM      3  C11 UNL     1      22.842   3.839  25.341  0.00  0.00    +0.051 C 
ATOM      4  C12 UNL     1      21.634   4.517  24.631  0.00  0.00    +0.085 C 
ATOM      5  C13 UNL     1      20.564   4.811  25.721  0.00  0.00    +0.051 C 
ATOM      6  C14 UNL     1      20.066   3.514  26.398  0.00  0.00    +0.087 C 
ATOM      7  C15 UNL     1      22.105   5.837  23.932  0.00  0.00    +0.119 C 
ATOM      8  N2  UNL     1      21.754   5.843  22.496  0.00  0.00    -0.293 NA
ATOM      9  C21 UNL     1      20.331   5.508  22.349  0.00  0.00    +0.113 C 
ATOM     10  C22 UNL     1      20.069   4.095  22.894  0.00  0.00    +0.176 C 
ATOM     11  O3  UNL     1      21.145   3.587  23.666  0.00  0.00    -0.371 OA
ENDROOT
BRANCH   1  19
ATOM     12  C2  UNL     1      19.424   1.537  31.585  0.00  0.00    +0.120 A 
ATOM     13  C3  UNL     1      20.798   1.222  31.735  0.00  0.00    +0.046 A 
ATOM     14  C4  UNL     1      21.596   0.973  30.607  0.00  0.00    +0.007 A 
ATOM     15  C5  UNL     1      21.014   1.048  29.341  0.00  0.00    -0.042 A 
ATOM     16  C6  UNL     1      19.686   1.355  29.188  0.00  0.00    -0.039 A 
ATOM     17  C7  UNL     1      18.869   1.598  30.295  0.00  0.00    +0.049 A 
ATOM     18  C8  UNL     1      19.272   1.353  27.766  0.00  0.00    +0.054 C 
ATOM     19  C9  UNL     1      20.612   1.192  26.995  0.00  0.00    +0.065 C 
ATOM     20  C23 UNL     1      21.686   0.805  28.043  0.00  0.00    +0.054 C 
BRANCH  12  22
ATOM     21  C1  UNL     1      17.889   0.783  33.406  0.00  0.00    +0.277 C 
ATOM     22  O1  UNL     1      18.588   1.790  32.681  0.00  0.00    -0.495 OA
ENDBRANCH  12  22
ENDBRANCH   1  19
BRANCH   8  23
ATOM     23  C16 UNL     1      22.037   7.155  21.879  0.00  0.00    +0.123 C 
BRANCH  23  24
ATOM     24  C17 UNL     1      23.306   7.102  21.082  0.00  0.00    +0.004 A 
ATOM     25  C18 UNL     1      24.538   7.588  21.460  0.00  0.00    +0.046 A 
ATOM     26  C19 UNL     1      25.393   7.266  20.425  0.00  0.00    +0.195 A 
ATOM     27  O2  UNL     1      24.733   6.625  19.486  0.00  0.00    -0.471 OA
ATOM     28  C20 UNL     1      23.477   6.505  19.850  0.00  0.00    +0.199 A 
ENDBRANCH  23  24
ENDBRANCH   8  23
TORSDOF 4
ENDMDL
MODEL 3
REMARK VINA RESULT:    -6.713      1.838      9.034
REMARK INTER + INTRA:          -8.897
REMARK INTER:                  -8.294
REMARK INTRA:                  -0.603
REMARK UNBOUND:                -0.614
REMARK  Name = /home/qwerty/github/datacon2025hack/step_04_hit_selection/docking/ligands/lig_171.pdb
REMARK  5 active torsions:
REMARK  status: ('A' for Active; 'I' for Inactive)
REMARK    1  A    between atoms: C1_1  and  O1_2
REMARK    2  A    between atoms: O1_2  and  C2_3
REMARK    3  A    between atoms: C9_10  and  N1_11
REMARK    4  A    between atoms: N2_18  and  C16_19
REMARK    5  A    between atoms: C16_19  and  C17_20
REMARK                            x       y       z     vdW  Elec       q    Type
REMARK                         _______ _______ _______ _____ _____    ______ ____
ROOT
ATOM      1  N1  UNL     1      23.008  14.411  24.536  0.00  0.00    -0.299 NA
ATOM      2  C10 UNL     1      22.171  13.219  24.799  0.00  0.00    +0.087 C 
ATOM      3  C11 UNL     1      21.333  12.862  23.551  0.00  0.00    +0.051 C 
ATOM      4  C12 UNL     1      21.916  13.450  22.234  0.00  0.00    +0.085 C 
ATOM      5  C13 UNL     1      23.465  13.329  22.320  0.00  0.00    +0.051 C 
ATOM      6  C14 UNL     1      24.036  14.136  23.507  0.00  0.00    +0.087 C 
ATOM      7  C15 UNL     1      21.356  12.653  21.006  0.00  0.00    +0.119 C 
ATOM      8  N2  UNL     1      20.714  13.553  20.026  0.00  0.00    -0.293 NA
ATOM      9  C21 UNL     1      21.633  14.656  19.713  0.00  0.00    +0.113 C 
ATOM     10  C22 UNL     1      21.922  15.471  20.984  0.00  0.00    +0.176 C 
ATOM     11  O3  UNL     1      21.509  14.815  22.172  0.00  0.00    -0.371 OA
ENDROOT
BRANCH   1  19
ATOM     12  C2  UNL     1      21.211  15.058  29.858  0.00  0.00    +0.120 A 
ATOM     13  C3  UNL     1      20.758  16.299  29.343  0.00  0.00    +0.046 A 
ATOM     14  C4  UNL     1      21.239  16.775  28.114  0.00  0.00    +0.007 A 
ATOM     15  C5  UNL     1      22.164  16.004  27.409  0.00  0.00    -0.042 A 
ATOM     16  C6  UNL     1      22.606  14.801  27.900  0.00  0.00    -0.039 A 
ATOM     17  C7  UNL     1      22.148  14.310  29.124  0.00  0.00    +0.049 A 
ATOM     18  C8  UNL     1      23.601  14.166  27.007  0.00  0.00    +0.054 C 
ATOM     19  C9  UNL     1      23.585  15.066  25.739  0.00  0.00    +0.065 C 
ATOM     20  C23 UNL     1      22.793  16.345  26.111  0.00  0.00    +0.054 C 
BRANCH  12  22
ATOM     21  C1  UNL     1      19.437  14.700  31.581  0.00  0.00    +0.277 C 
ATOM     22  O1  UNL     1      20.762  14.544  31.082  0.00  0.00    -0.495 OA
ENDBRANCH  12  22
ENDBRANCH   1  19
BRANCH   8  23
ATOM     23  C16 UNL     1      20.346  12.829  18.792  0.00  0.00    +0.123 C 
BRANCH  23  24
ATOM     24  C17 UNL     1      19.352  11.747  19.090  0.00  0.00    +0.004 A 
ATOM     25  C18 UNL     1      18.057  11.915  19.528  0.00  0.00    +0.046 A 
ATOM     26  C19 UNL     1      17.531  10.641  19.616  0.00  0.00    +0.195 A 
ATOM     27  O2  UNL     1      18.436   9.760  19.252  0.00  0.00    -0.471 OA
ATOM     28  C20 UNL     1      19.541  10.391  18.926  0.00  0.00    +0.199 A 
ENDBRANCH  23  24
ENDBRANCH   8  23
TORSDOF 4
ENDMDL
MODEL 4
REMARK VINA RESULT:    -6.676     13.152     16.070
REMARK INTER + INTRA:          -8.851
REMARK INTER:                  -8.171
REMARK INTRA:                  -0.680
REMARK UNBOUND:                -0.614
REMARK  Name = /home/qwerty/github/datacon2025hack/step_04_hit_selection/docking/ligands/lig_171.pdb
REMARK  5 active torsions:
REMARK  status: ('A' for Active; 'I' for Inactive)
REMARK    1  A    between atoms: C1_1  and  O1_2
REMARK    2  A    between atoms: O1_2  and  C2_3
REMARK    3  A    between atoms: C9_10  and  N1_11
REMARK    4  A    between atoms: N2_18  and  C16_19
REMARK    5  A    between atoms: C16_19  and  C17_20
REMARK                            x       y       z     vdW  Elec       q    Type
REMARK                         _______ _______ _______ _____ _____    ______ ____
ROOT
ATOM      1  N1  UNL     1      21.622   5.758  34.385  0.00  0.00    -0.299 NA
ATOM      2  C10 UNL     1      22.585   6.334  33.420  0.00  0.00    +0.087 C 
ATOM      3  C11 UNL     1      22.860   5.339  32.271  0.00  0.00    +0.051 C 
ATOM      4  C12 UNL     1      21.742   4.269  32.107  0.00  0.00    +0.085 C 
ATOM      5  C13 UNL     1      20.381   4.985  32.347  0.00  0.00    +0.051 C 
ATOM      6  C14 UNL     1      20.288   5.571  33.774  0.00  0.00    +0.087 C 
ATOM      7  C15 UNL     1      21.808   3.652  30.668  0.00  0.00    +0.119 C 
ATOM      8  N2  UNL     1      21.915   2.179  30.718  0.00  0.00    -0.293 NA
ATOM      9  C21 UNL     1      20.865   1.650  31.598  0.00  0.00    +0.113 C 
ATOM     10  C22 UNL     1      21.061   2.186  33.025  0.00  0.00    +0.176 C 
ATOM     11  O3  UNL     1      21.978   3.267  33.093  0.00  0.00    -0.371 OA
ENDROOT
BRANCH   1  19
ATOM     12  C2  UNL     1      18.636  10.161  36.298  0.00  0.00    +0.120 A 
ATOM     13  C3  UNL     1      19.819  10.860  35.950  0.00  0.00    +0.046 A 
ATOM     14  C4  UNL     1      21.012  10.160  35.713  0.00  0.00    +0.007 A 
ATOM     15  C5  UNL     1      21.010   8.769  35.820  0.00  0.00    -0.042 A 
ATOM     16  C6  UNL     1      19.868   8.086  36.154  0.00  0.00    -0.039 A 
ATOM     17  C7  UNL     1      18.670   8.760  36.403  0.00  0.00    +0.049 A 
ATOM     18  C8  UNL     1      20.095   6.625  36.238  0.00  0.00    +0.054 C 
ATOM     19  C9  UNL     1      21.543   6.448  35.699  0.00  0.00    +0.065 C 
ATOM     20  C23 UNL     1      22.166   7.864  35.622  0.00  0.00    +0.054 C 
BRANCH  12  22
ATOM     21  C1  UNL     1      16.455  10.383  37.498  0.00  0.00    +0.277 C 
ATOM     22  O1  UNL     1      17.422  10.817  36.548  0.00  0.00    -0.495 OA
ENDBRANCH  12  22
ENDBRANCH   1  19
BRANCH   8  23
ATOM     23  C16 UNL     1      21.798   1.586  29.369  0.00  0.00    +0.123 C 
BRANCH  23  24
ATOM     24  C17 UNL     1      22.847   0.535  29.162  0.00  0.00    +0.004 A 
ATOM     25  C18 UNL     1      24.211   0.702  29.257  0.00  0.00    +0.046 A 
ATOM     26  C19 UNL     1      24.750  -0.549  29.029  0.00  0.00    +0.195 A 
ATOM     27  O2  UNL     1      23.786  -1.418  28.817  0.00  0.00    -0.471 OA
ATOM     28  C20 UNL     1      22.630  -0.800  28.893  0.00  0.00    +0.199 A 
ENDBRANCH  23  24
ENDBRANCH   8  23
TORSDOF 4
ENDMDL
MODEL 5
REMARK VINA RESULT:    -6.625     12.261     15.951
REMARK INTER + INTRA:          -8.788
REMARK INTER:                  -8.125
REMARK INTRA:                  -0.663
REMARK UNBOUND:                -0.614
REMARK  Name = /home/qwerty/github/datacon2025hack/step_04_hit_selection/docking/ligands/lig_171.pdb
REMARK  5 active torsions:
REMARK  status: ('A' for Active; 'I' for Inactive)
REMARK    1  A    between atoms: C1_1  and  O1_2
REMARK    2  A    between atoms: O1_2  and  C2_3
REMARK    3  A    between atoms: C9_10  and  N1_11
REMARK    4  A    between atoms: N2_18  and  C16_19
REMARK    5  A    between atoms: C16_19  and  C17_20
REMARK                            x       y       z     vdW  Elec       q    Type
REMARK                         _______ _______ _______ _____ _____    ______ ____
ROOT
ATOM      1  N1  UNL     1      11.025  12.407  30.252  0.00  0.00    -0.299 NA
ATOM      2  C10 UNL     1      10.044  13.438  29.848  0.00  0.00    +0.087 C 
ATOM      3  C11 UNL     1       9.337  13.028  28.538  0.00  0.00    +0.051 C 
ATOM      4  C12 UNL     1       9.411  11.499  28.255  0.00  0.00    +0.085 C 
ATOM      5  C13 UNL     1       9.234  10.769  29.618  0.00  0.00    +0.051 C 
ATOM      6  C14 UNL     1      10.359  11.136  30.612  0.00  0.00    +0.087 C 
ATOM      7  C15 UNL     1       8.282  11.093  27.247  0.00  0.00    +0.119 C 
ATOM      8  N2  UNL     1       8.836  10.390  26.071  0.00  0.00    -0.293 NA
ATOM      9  C21 UNL     1       9.712   9.304  26.530  0.00  0.00    +0.113 C 
ATOM     10  C22 UNL     1      10.888   9.884  27.330  0.00  0.00    +0.176 C 
ATOM     11  O3  UNL     1      10.697  11.242  27.696  0.00  0.00    -0.371 OA
ENDROOT
BRANCH   1  19
ATOM     12  C2  UNL     1      10.902  12.657  35.899  0.00  0.00    +0.120 A 
ATOM     13  C3  UNL     1      10.534  14.000  35.634  0.00  0.00    +0.046 A 
ATOM     14  C4  UNL     1      10.727  14.548  34.356  0.00  0.00    +0.007 A 
ATOM     15  C5  UNL     1      11.282  13.749  33.357  0.00  0.00    -0.042 A 
ATOM     16  C6  UNL     1      11.639  12.447  33.606  0.00  0.00    -0.039 A 
ATOM     17  C7  UNL     1      11.464  11.881  34.871  0.00  0.00    +0.049 A 
ATOM     18  C8  UNL     1      12.231  11.793  32.417  0.00  0.00    +0.054 C 
ATOM     19  C9  UNL     1      12.011  12.830  31.280  0.00  0.00    +0.065 C 
ATOM     20  C23 UNL     1      11.573  14.152  31.961  0.00  0.00    +0.054 C 
BRANCH  12  22
ATOM     21  C1  UNL     1      11.210  10.773  37.513  0.00  0.00    +0.277 C 
ATOM     22  O1  UNL     1      10.732  12.068  37.160  0.00  0.00    -0.495 OA
ENDBRANCH  12  22
ENDBRANCH   1  19
BRANCH   8  23
ATOM     23  C16 UNL     1       7.761   9.852  25.212  0.00  0.00    +0.123 C 
BRANCH  23  24
ATOM     24  C17 UNL     1       7.968  10.267  23.786  0.00  0.00    +0.004 A 
ATOM     25  C18 UNL     1       9.007   9.895  22.962  0.00  0.00    +0.046 A 
ATOM     26  C19 UNL     1       8.739  10.486  21.743  0.00  0.00    +0.195 A 
ATOM     27  O2  UNL     1       7.614  11.164  21.815  0.00  0.00    -0.471 OA
ATOM     28  C20 UNL     1       7.123  11.050  23.028  0.00  0.00    +0.199 A 
ENDBRANCH  23  24
ENDBRANCH   8  23
TORSDOF 4
ENDMDL
MODEL 6
REMARK VINA RESULT:    -6.608     11.773     15.488
REMARK INTER + INTRA:          -8.768
REMARK INTER:                  -8.146
REMARK INTRA:                  -0.621
REMARK UNBOUND:                -0.614
REMARK  Name = /home/qwerty/github/datacon2025hack/step_04_hit_selection/docking/ligands/lig_171.pdb
REMARK  5 active torsions:
REMARK  status: ('A' for Active; 'I' for Inactive)
REMARK    1  A    between atoms: C1_1  and  O1_2
REMARK    2  A    between atoms: O1_2  and  C2_3
REMARK    3  A    between atoms: C9_10  and  N1_11
REMARK    4  A    between atoms: N2_18  and  C16_19
REMARK    5  A    between atoms: C16_19  and  C17_20
REMARK                            x       y       z     vdW  Elec       q    Type
REMARK                         _______ _______ _______ _____ _____    ______ ____
ROOT
ATOM      1  N1  UNL     1       8.262  10.046  27.143  0.00  0.00    -0.299 NA
ATOM      2  C10 UNL     1       8.541   8.594  27.201  0.00  0.00    +0.087 C 
ATOM      3  C11 UNL     1       8.542   7.986  25.780  0.00  0.00    +0.051 C 
ATOM      4  C12 UNL     1       8.777   9.044  24.663  0.00  0.00    +0.085 C 
ATOM      5  C13 UNL     1       9.841  10.047  25.194  0.00  0.00    +0.051 C 
ATOM      6  C14 UNL     1       9.352  10.780  26.463  0.00  0.00    +0.087 C 
ATOM      7  C15 UNL     1       9.274   8.332  23.358  0.00  0.00    +0.119 C 
ATOM      8  N2  UNL     1       8.418   8.668  22.201  0.00  0.00    -0.293 NA
ATOM      9  C21 UNL     1       8.268  10.127  22.122  0.00  0.00    +0.113 C 
ATOM     10  C22 UNL     1       7.575  10.650  23.390  0.00  0.00    +0.176 C 
ATOM     11  O3  UNL     1       7.527   9.691  24.435  0.00  0.00    -0.371 OA
ENDROOT
BRANCH   1  19
ATOM     12  C2  UNL     1      11.023  13.328  30.827  0.00  0.00    +0.120 A 
ATOM     13  C3  UNL     1      11.264  12.080  31.454  0.00  0.00    +0.046 A 
ATOM     14  C4  UNL     1      10.512  10.950  31.098  0.00  0.00    +0.007 A 
ATOM     15  C5  UNL     1       9.530  11.078  30.114  0.00  0.00    -0.042 A 
ATOM     16  C6  UNL     1       9.293  12.282  29.502  0.00  0.00    -0.039 A 
ATOM     17  C7  UNL     1      10.023  13.423  29.845  0.00  0.00    +0.049 A 
ATOM     18  C8  UNL     1       8.194  12.199  28.513  0.00  0.00    +0.054 C 
ATOM     19  C9  UNL     1       7.886  10.677  28.434  0.00  0.00    +0.065 C 
ATOM     20  C23 UNL     1       8.631  10.010  29.618  0.00  0.00    +0.054 C 
BRANCH  12  22
ATOM     21  C1  UNL     1      12.141  14.838  32.474  0.00  0.00    +0.277 C 
ATOM     22  O1  UNL     1      11.747  14.484  31.153  0.00  0.00    -0.495 OA
ENDBRANCH  12  22
ENDBRANCH   1  19
BRANCH   8  23
ATOM     23  C16 UNL     1       8.987   8.144  20.942  0.00  0.00    +0.123 C 
BRANCH  23  24
ATOM     24  C17 UNL     1       8.780   6.662  20.846  0.00  0.00    +0.004 A 
ATOM     25  C18 UNL     1       7.581   5.989  20.932  0.00  0.00    +0.046 A 
ATOM     26  C19 UNL     1       7.893   4.658  20.740  0.00  0.00    +0.195 A 
ATOM     27  O2  UNL     1       9.187   4.527  20.545  0.00  0.00    -0.471 OA
ATOM     28  C20 UNL     1       9.750   5.712  20.598  0.00  0.00    +0.199 A 
ENDBRANCH  23  24
ENDBRANCH   8  23
TORSDOF 4
ENDMDL
MODEL 7
REMARK VINA RESULT:    -6.603     11.132     12.366
REMARK INTER + INTRA:          -8.761
REMARK INTER:                  -8.066
REMARK INTRA:                  -0.695
REMARK UNBOUND:                -0.614
REMARK  Name = /home/qwerty/github/datacon2025hack/step_04_hit_selection/docking/ligands/lig_171.pdb
REMARK  5 active torsions:
REMARK  status: ('A' for Active; 'I' for Inactive)
REMARK    1  A    between atoms: C1_1  and  O1_2
REMARK    2  A    between atoms: O1_2  and  C2_3
REMARK    3  A    between atoms: C9_10  and  N1_11
REMARK    4  A    between atoms: N2_18  and  C16_19
REMARK    5  A    between atoms: C16_19  and  C17_20
REMARK                            x       y       z     vdW  Elec       q    Type
REMARK                         _______ _______ _______ _____ _____    ______ ____
ROOT
ATOM      1  N1  UNL     1       9.587  10.677  27.334  0.00  0.00    -0.299 NA
ATOM      2  C10 UNL     1       8.458  11.582  27.640  0.00  0.00    +0.087 C 
ATOM      3  C11 UNL     1       8.767  12.426  28.897  0.00  0.00    +0.051 C 
ATOM      4  C12 UNL     1      10.288  12.523  29.209  0.00  0.00    +0.085 C 
ATOM      5  C13 UNL     1      11.031  12.662  27.849  0.00  0.00    +0.051 C 
ATOM      6  C14 UNL     1      10.797  11.433  26.942  0.00  0.00    +0.087 C 
ATOM      7  C15 UNL     1      10.561  13.761  30.130  0.00  0.00    +0.119 C 
ATOM      8  N2  UNL     1      11.285  13.372  31.358  0.00  0.00    -0.293 NA
ATOM      9  C21 UNL     1      12.460  12.572  30.989  0.00  0.00    +0.113 C 
ATOM     10  C22 UNL     1      12.014  11.286  30.276  0.00  0.00    +0.176 C 
ATOM     11  O3  UNL     1      10.653  11.315  29.874  0.00  0.00    -0.371 OA
ENDROOT
BRANCH   1  19
ATOM     12  C2  UNL     1       9.337  10.365  21.694  0.00  0.00    +0.120 A 
ATOM     13  C3  UNL     1       7.959  10.592  21.941  0.00  0.00    +0.046 A 
ATOM     14  C4  UNL     1       7.434  10.427  23.232  0.00  0.00    +0.007 A 
ATOM     15  C5  UNL     1       8.291  10.043  24.264  0.00  0.00    -0.042 A 
ATOM     16  C6  UNL     1       9.626   9.824  24.032  0.00  0.00    -0.039 A 
ATOM     17  C7  UNL     1      10.171   9.973  22.755  0.00  0.00    +0.049 A 
ATOM     18  C8  UNL     1      10.343   9.400  25.257  0.00  0.00    +0.054 C 
ATOM     19  C9  UNL     1       9.284   9.577  26.381  0.00  0.00    +0.065 C 
ATOM     20  C23 UNL     1       7.922   9.807  25.679  0.00  0.00    +0.054 C 
BRANCH  12  22
ATOM     21  C1  UNL     1      10.972   9.714  19.920  0.00  0.00    +0.277 C 
ATOM     22  O1  UNL     1       9.905  10.513  20.421  0.00  0.00    -0.495 OA
ENDBRANCH  12  22
ENDBRANCH   1  19
BRANCH   8  23
ATOM     23  C16 UNL     1      11.697  14.558  32.137  0.00  0.00    +0.123 C 
BRANCH  23  24
ATOM     24  C17 UNL     1      11.883  14.201  33.582  0.00  0.00    +0.004 A 
ATOM     25  C18 UNL     1      10.912  13.762  34.454  0.00  0.00    +0.046 A 
ATOM     26  C19 UNL     1      11.570  13.523  35.645  0.00  0.00    +0.195 A 
ATOM     27  O2  UNL     1      12.850  13.792  35.508  0.00  0.00    -0.471 OA
ATOM     28  C20 UNL     1      13.073  14.198  34.280  0.00  0.00    +0.199 A 
ENDBRANCH  23  24
ENDBRANCH   8  23
TORSDOF 4
ENDMDL
MODEL 8
REMARK VINA RESULT:    -6.514      1.590      9.076
REMARK INTER + INTRA:          -8.652
REMARK INTER:                  -7.997
REMARK INTRA:                  -0.655
REMARK UNBOUND:                -0.614
REMARK  Name = /home/qwerty/github/datacon2025hack/step_04_hit_selection/docking/ligands/lig_171.pdb
REMARK  5 active torsions:
REMARK  status: ('A' for Active; 'I' for Inactive)
REMARK    1  A    between atoms: C1_1  and  O1_2
REMARK    2  A    between atoms: O1_2  and  C2_3
REMARK    3  A    between atoms: C9_10  and  N1_11
REMARK    4  A    between atoms: N2_18  and  C16_19
REMARK    5  A    between atoms: C16_19  and  C17_20
REMARK                            x       y       z     vdW  Elec       q    Type
REMARK                         _______ _______ _______ _____ _____    ______ ____
ROOT
ATOM      1  N1  UNL     1      23.385  14.429  23.639  0.00  0.00    -0.299 NA
ATOM      2  C10 UNL     1      24.376  13.804  22.736  0.00  0.00    +0.087 C 
ATOM      3  C11 UNL     1      23.668  12.917  21.688  0.00  0.00    +0.051 C 
ATOM      4  C12 UNL     1      22.169  13.284  21.487  0.00  0.00    +0.085 C 
ATOM      5  C13 UNL     1      22.062  14.835  21.547  0.00  0.00    +0.051 C 
ATOM      6  C14 UNL     1      22.520  15.387  22.916  0.00  0.00    +0.087 C 
ATOM      7  C15 UNL     1      21.671  12.737  20.106  0.00  0.00    +0.119 C 
ATOM      8  N2  UNL     1      20.475  11.883  20.263  0.00  0.00    -0.293 NA
ATOM      9  C21 UNL     1      19.478  12.597  21.071  0.00  0.00    +0.113 C 
ATOM     10  C22 UNL     1      20.045  12.878  22.472  0.00  0.00    +0.176 C 
ATOM     11  O3  UNL     1      21.447  12.676  22.557  0.00  0.00    -0.371 OA
ENDROOT
BRANCH   1  19
ATOM     12  C2  UNL     1      21.182  15.523  28.730  0.00  0.00    +0.120 A 
ATOM     13  C3  UNL     1      21.004  16.807  28.158  0.00  0.00    +0.046 A 
ATOM     14  C4  UNL     1      21.685  17.160  26.982  0.00  0.00    +0.007 A 
ATOM     15  C5  UNL     1      22.532  16.224  26.388  0.00  0.00    -0.042 A 
ATOM     16  C6  UNL     1      22.708  14.978  26.936  0.00  0.00    -0.039 A 
ATOM     17  C7  UNL     1      22.048  14.606  28.110  0.00  0.00    +0.049 A 
ATOM     18  C8  UNL     1      23.667  14.157  26.162  0.00  0.00    +0.054 C 
ATOM     19  C9  UNL     1      23.937  15.010  24.891  0.00  0.00    +0.065 C 
ATOM     20  C23 UNL     1      23.341  16.415  25.161  0.00  0.00    +0.054 C 
BRANCH  12  22
ATOM     21  C1  UNL     1      21.045  15.320  31.217  0.00  0.00    +0.277 C 
ATOM     22  O1  UNL     1      20.527  15.128  29.905  0.00  0.00    -0.495 OA
ENDBRANCH  12  22
ENDBRANCH   1  19
BRANCH   8  23
ATOM     23  C16 UNL     1      19.902  11.514  18.952  0.00  0.00    +0.123 C 
BRANCH  23  24
ATOM     24  C17 UNL     1      19.904  10.025  18.775  0.00  0.00    +0.004 A 
ATOM     25  C18 UNL     1      20.976   9.238  18.417  0.00  0.00    +0.046 A 
ATOM     26  C19 UNL     1      20.501   7.942  18.429  0.00  0.00    +0.195 A 
ATOM     27  O2  UNL     1      19.232   7.936  18.776  0.00  0.00    -0.471 OA
ATOM     28  C20 UNL     1      18.843   9.171  18.995  0.00  0.00    +0.199 A 
ENDBRANCH  23  24
ENDBRANCH   8  23
TORSDOF 4
ENDMDL
MODEL 9
REMARK VINA RESULT:    -6.438     11.528     13.707
REMARK INTER + INTRA:          -8.558
REMARK INTER:                  -7.925
REMARK INTRA:                  -0.633
REMARK UNBOUND:                -0.614
REMARK  Name = /home/qwerty/github/datacon2025hack/step_04_hit_selection/docking/ligands/lig_171.pdb
REMARK  5 active torsions:
REMARK  status: ('A' for Active; 'I' for Inactive)
REMARK    1  A    between atoms: C1_1  and  O1_2
REMARK    2  A    between atoms: O1_2  and  C2_3
REMARK    3  A    between atoms: C9_10  and  N1_11
REMARK    4  A    between atoms: N2_18  and  C16_19
REMARK    5  A    between atoms: C16_19  and  C17_20
REMARK                            x       y       z     vdW  Elec       q    Type
REMARK                         _______ _______ _______ _____ _____    ______ ____
ROOT
ATOM      1  N1  UNL     1      21.391   1.389  29.783  0.00  0.00    -0.299 NA
ATOM      2  C10 UNL     1      22.459   1.943  30.645  0.00  0.00    +0.087 C 
ATOM      3  C11 UNL     1      21.851   2.596  31.906  0.00  0.00    +0.051 C 
ATOM      4  C12 UNL     1      20.418   2.084  32.231  0.00  0.00    +0.085 C 
ATOM      5  C13 UNL     1      20.395   0.557  31.930  0.00  0.00    +0.051 C 
ATOM      6  C14 UNL     1      20.692   0.263  30.442  0.00  0.00    +0.087 C 
ATOM      7  C15 UNL     1      20.084   2.367  33.735  0.00  0.00    +0.119 C 
ATOM      8  N2  UNL     1      18.830   3.137  33.874  0.00  0.00    -0.293 NA
ATOM      9  C21 UNL     1      17.774   2.479  33.091  0.00  0.00    +0.113 C 
ATOM     10  C22 UNL     1      18.159   2.466  31.604  0.00  0.00    +0.176 C 
ATOM     11  O3  UNL     1      19.521   2.791  31.377  0.00  0.00    -0.371 OA
ENDROOT
BRANCH   1  19
ATOM     12  C2  UNL     1      21.971   4.435  25.056  0.00  0.00    +0.120 A 
ATOM     13  C3  UNL     1      20.652   3.968  24.830  0.00  0.00    +0.046 A 
ATOM     14  C4  UNL     1      20.142   2.896  25.578  0.00  0.00    +0.007 A 
ATOM     15  C5  UNL     1      20.953   2.305  26.547  0.00  0.00    -0.042 A 
ATOM     16  C6  UNL     1      22.230   2.753  26.773  0.00  0.00    -0.039 A 
ATOM     17  C7  UNL     1      22.763   3.813  26.036  0.00  0.00    +0.049 A 
ATOM     18  C8  UNL     1      22.919   1.969  27.823  0.00  0.00    +0.054 C 
ATOM     19  C9  UNL     1      21.799   1.055  28.394  0.00  0.00    +0.065 C 
ATOM     20  C23 UNL     1      20.598   1.161  27.421  0.00  0.00    +0.054 C 
BRANCH  12  22
ATOM     21  C1  UNL     1      22.066   5.925  23.052  0.00  0.00    +0.277 C 
ATOM     22  O1  UNL     1      22.525   5.500  24.331  0.00  0.00    -0.495 OA
ENDBRANCH  12  22
ENDBRANCH   1  19
BRANCH   8  23
ATOM     23  C16 UNL     1      18.422   3.250  35.289  0.00  0.00    +0.123 C 
BRANCH  23  24
ATOM     24  C17 UNL     1      18.659   4.640  35.798  0.00  0.00    +0.004 A 
ATOM     25  C18 UNL     1      18.133   5.200  36.941  0.00  0.00    +0.046 A 
ATOM     26  C19 UNL     1      18.672   6.470  37.008  0.00  0.00    +0.195 A 
ATOM     27  O2  UNL     1      19.473   6.669  35.985  0.00  0.00    -0.471 OA
ATOM     28  C20 UNL     1      19.491   5.587  35.240  0.00  0.00    +0.199 A 
ENDBRANCH  23  24
ENDBRANCH   8  23
TORSDOF 4
ENDMDL
