REMARK  Name = /home/qwerty/github/datacon2025hack/step_04_hit_selection/docking/ligands/lig_158.pdb
REMARK  5 active torsions:
REMARK  status: ('A' for Active; 'I' for Inactive)
REMARK    1  A    between atoms: C1_1  and  C2_2
REMARK    2  A    between atoms: C2_2  and  C3_3
REMARK    3  A    between atoms: C2_2  and  N2_17
REMARK    4  A    between atoms: C3_3  and  N1_4
REMARK    5  A    between atoms: C4_5  and  C5_7
REMARK                            x       y       z     vdW  Elec       q    Type
REMARK                         _______ _______ _______ _____ _____    ______ ____
ROOT
ATOM      1  N1  UNL     1       0.825  -0.178  -2.039  0.00  0.00    -0.309 N 
ATOM      2  C4  UNL     1      -0.344   0.583  -2.381  0.00  0.00    +0.251 C 
ATOM      3  O1  UNL     1      -0.346   1.292  -3.423  0.00  0.00    -0.270 OA
ATOM      4  H7  UNL     1       0.760  -0.873  -1.268  0.00  0.00    +0.149 HD
ENDROOT
BRANCH   2   5
ATOM      5  C5  UNL     1      -1.551   0.550  -1.535  0.00  0.00    +0.074 A 
ATOM      6  C6  UNL     1      -1.680  -0.034  -0.277  0.00  0.00    +0.024 A 
ATOM      7  C7  UNL     1      -2.961   0.107   0.283  0.00  0.00    -0.036 A 
ATOM      8  C8  UNL     1      -3.833   0.848  -0.527  0.00  0.00    -0.006 A 
ATOM      9  S1  UNL     1      -3.020   1.263  -1.939  0.00  0.00    -0.088 S 
ATOM     10  C9  UNL     1      -5.284   1.159  -0.283  0.00  0.00    +0.043 C 
ATOM     11  C10 UNL     1      -5.579   1.441   1.195  0.00  0.00    +0.005 C 
ATOM     12  C11 UNL     1      -5.759   0.163   2.034  0.00  0.00    +0.001 C 
ATOM     13  C12 UNL     1      -4.726  -0.945   1.762  0.00  0.00    +0.005 C 
ATOM     14  C13 UNL     1      -3.287  -0.423   1.658  0.00  0.00    +0.036 C 
ENDBRANCH   2   5
BRANCH   1  15
ATOM     15  C3  UNL     1       2.075  -0.017  -2.785  0.00  0.00    +0.126 C 
BRANCH  15  17
ATOM     16  C1  UNL     1       3.055  -2.317  -2.174  0.00  0.00    +0.029 C 
ATOM     17  C2  UNL     1       3.262  -0.793  -2.173  0.00  0.00    +0.090 C 
BRANCH  17  18
ATOM     18  N2  UNL     1       3.643  -0.261  -0.844  0.00  0.00    -0.297 N 
ATOM     19  C14 UNL     1       2.890  -0.604   0.377  0.00  0.00    +0.108 C 
ATOM     20  C15 UNL     1       3.787  -0.561   1.616  0.00  0.00    +0.019 C 
ATOM     21  C16 UNL     1       4.457   0.809   1.734  0.00  0.00    +0.011 C 
ATOM     22  C17 UNL     1       5.341   1.086   0.518  0.00  0.00    +0.096 C 
ATOM     23  C18 UNL     1       4.614   0.806  -0.767  0.00  0.00    +0.216 C 
ATOM     24  O2  UNL     1       4.922   1.467  -1.797  0.00  0.00    -0.276 OA
ENDBRANCH  17  18
ENDBRANCH  15  17
ENDBRANCH   1  15
TORSDOF 4
