MODEL 1
REMARK VINA RESULT:    -6.071      0.000      0.000
REMARK INTER + INTRA:          -8.323
REMARK INTER:                  -7.490
REMARK INTRA:                  -0.833
REMARK UNBOUND:                -0.833
REMARK  Name = /home/qwerty/github/datacon2025hack/step_04_hit_selection/docking/ligands/lig_178.pdb
REMARK  5 active torsions:
REMARK  status: ('A' for Active; 'I' for Inactive)
REMARK    1  A    between atoms: C1_1  and  C2_2
REMARK    2  A    between atoms: C2_2  and  N1_3
REMARK    3  A    between atoms: C2_2  and  C11_16
REMARK    4  A    between atoms: C6_9  and  N3_10
REMARK    5  A    between atoms: C14_19  and  N5_20
REMARK                            x       y       z     vdW  Elec       q    Type
REMARK                         _______ _______ _______ _____ _____    ______ ____
ROOT
ATOM      1  C1  UNL     1      16.231   3.968  19.530  0.00  0.00    +0.033 C 
ATOM      2  C2  UNL     1      15.236   2.857  19.878  0.00  0.00    +0.102 C 
ENDROOT
BRANCH   2   3
ATOM      3  N1  UNL     1      15.762   2.039  20.976  0.00  0.00    -0.293 N 
ATOM      4  C3  UNL     1      16.031   0.634  20.839  0.00  0.00    +0.303 C 
ATOM      5  O1  UNL     1      15.889   0.074  19.718  0.00  0.00    -0.253 OA
ATOM      6  N2  UNL     1      16.464  -0.144  21.967  0.00  0.00    -0.284 N 
ATOM      7  C4  UNL     1      16.789  -1.557  21.873  0.00  0.00    +0.111 C 
ATOM      8  C5  UNL     1      17.285  -1.960  23.256  0.00  0.00    +0.047 C 
ATOM      9  C6  UNL     1      16.818  -0.852  24.208  0.00  0.00    +0.126 C 
ATOM     10  C10 UNL     1      16.568   0.370  23.323  0.00  0.00    +0.136 C 
ATOM     11  H5  UNL     1      16.059   2.521  21.853  0.00  0.00    +0.151 HD
BRANCH   9  12
ATOM     12  N3  UNL     1      15.585  -1.251  24.895  0.00  0.00    -0.267 N 
ATOM     13  C7  UNL     1      15.149  -2.513  25.063  0.00  0.00    +0.108 A 
ATOM     14  C8  UNL     1      13.969  -2.474  25.773  0.00  0.00    +0.041 A 
ATOM     15  C9  UNL     1      13.745  -1.131  26.010  0.00  0.00    +0.134 A 
ATOM     16  N4  UNL     1      14.741  -0.405  25.468  0.00  0.00    -0.179 NA
ENDBRANCH   9  12
ENDBRANCH   2   3
BRANCH   2  17
ATOM     17  C11 UNL     1      13.882   3.427  20.252  0.00  0.00    -0.027 A 
ATOM     18  C12 UNL     1      13.040   2.764  21.162  0.00  0.00    +0.007 A 
ATOM     19  C13 UNL     1      11.791   3.297  21.493  0.00  0.00    +0.024 A 
ATOM     20  C14 UNL     1      11.349   4.498  20.914  0.00  0.00    +0.040 A 
ATOM     21  C18 UNL     1      12.196   5.167  20.013  0.00  0.00    +0.024 A 
ATOM     22  C19 UNL     1      13.445   4.635  19.682  0.00  0.00    +0.007 A 
BRANCH  20  23
ATOM     23  N5  UNL     1      10.060   5.041  21.264  0.00  0.00    -0.234 N 
ATOM     24  C15 UNL     1       8.771   4.535  20.804  0.00  0.00    +0.158 C 
ATOM     25  C16 UNL     1       7.708   5.362  21.566  0.00  0.00    +0.253 C 
ATOM     26  O2  UNL     1       8.438   6.319  22.324  0.00  0.00    -0.448 OA
ATOM     27  C17 UNL     1       9.787   6.123  22.138  0.00  0.00    +0.407 C 
ATOM     28  O3  UNL     1      10.667   6.871  22.637  0.00  0.00    -0.226 OA
ENDBRANCH  20  23
ENDBRANCH   2  17
TORSDOF 4
ENDMDL
MODEL 2
REMARK VINA RESULT:    -6.066      9.161     12.051
REMARK INTER + INTRA:          -8.316
REMARK INTER:                  -7.872
REMARK INTRA:                  -0.444
REMARK UNBOUND:                -0.833
REMARK  Name = /home/qwerty/github/datacon2025hack/step_04_hit_selection/docking/ligands/lig_178.pdb
REMARK  5 active torsions:
REMARK  status: ('A' for Active; 'I' for Inactive)
REMARK    1  A    between atoms: C1_1  and  C2_2
REMARK    2  A    between atoms: C2_2  and  N1_3
REMARK    3  A    between atoms: C2_2  and  C11_16
REMARK    4  A    between atoms: C6_9  and  N3_10
REMARK    5  A    between atoms: C14_19  and  N5_20
REMARK                            x       y       z     vdW  Elec       q    Type
REMARK                         _______ _______ _______ _____ _____    ______ ____
ROOT
ATOM      1  C1  UNL     1      22.893  -0.724  28.906  0.00  0.00    +0.033 C 
ATOM      2  C2  UNL     1      21.678   0.204  28.986  0.00  0.00    +0.102 C 
ENDROOT
BRANCH   2   3
ATOM      3  N1  UNL     1      21.680   0.925  30.263  0.00  0.00    -0.293 N 
ATOM      4  C3  UNL     1      20.475   1.389  30.895  0.00  0.00    +0.303 C 
ATOM      5  O1  UNL     1      19.353   1.112  30.389  0.00  0.00    -0.253 OA
ATOM      6  N2  UNL     1      20.533   2.167  32.102  0.00  0.00    -0.284 N 
ATOM      7  C4  UNL     1      19.345   2.624  32.803  0.00  0.00    +0.111 C 
ATOM      8  C5  UNL     1      19.850   3.320  34.062  0.00  0.00    +0.047 C 
ATOM      9  C6  UNL     1      21.337   3.606  33.814  0.00  0.00    +0.126 C 
ATOM     10  C10 UNL     1      21.766   2.628  32.720  0.00  0.00    +0.136 C 
ATOM     11  H5  UNL     1      22.579   1.001  30.786  0.00  0.00    +0.151 HD
BRANCH   9  12
ATOM     12  N3  UNL     1      21.526   4.991  33.370  0.00  0.00    -0.267 N 
ATOM     13  C7  UNL     1      20.767   6.044  33.725  0.00  0.00    +0.108 A 
ATOM     14  C8  UNL     1      21.276   7.171  33.118  0.00  0.00    +0.041 A 
ATOM     15  C9  UNL     1      22.366   6.721  32.399  0.00  0.00    +0.134 A 
ATOM     16  N4  UNL     1      22.502   5.392  32.567  0.00  0.00    -0.179 NA
ENDBRANCH   9  12
ENDBRANCH   2   3
BRANCH   2  17
ATOM     17  C11 UNL     1      21.657   1.185  27.830  0.00  0.00    -0.027 A 
ATOM     18  C12 UNL     1      22.573   2.248  27.764  0.00  0.00    +0.007 A 
ATOM     19  C13 UNL     1      22.540   3.150  26.696  0.00  0.00    +0.024 A 
ATOM     20  C14 UNL     1      21.583   3.017  25.677  0.00  0.00    +0.040 A 
ATOM     21  C18 UNL     1      20.673   1.946  25.738  0.00  0.00    +0.024 A 
ATOM     22  C19 UNL     1      20.707   1.044  26.804  0.00  0.00    +0.007 A 
BRANCH  20  23
ATOM     23  N5  UNL     1      21.558   3.951  24.578  0.00  0.00    -0.234 N 
ATOM     24  C15 UNL     1      20.718   3.843  23.389  0.00  0.00    +0.158 C 
ATOM     25  C16 UNL     1      20.959   5.149  22.595  0.00  0.00    +0.253 C 
ATOM     26  O2  UNL     1      21.959   5.858  23.317  0.00  0.00    -0.448 OA
ATOM     27  C17 UNL     1      22.294   5.155  24.451  0.00  0.00    +0.407 C 
ATOM     28  O3  UNL     1      23.203   5.517  25.242  0.00  0.00    -0.226 OA
ENDBRANCH  20  23
ENDBRANCH   2  17
TORSDOF 4
ENDMDL
MODEL 3
REMARK VINA RESULT:    -6.034     15.500     16.977
REMARK INTER + INTRA:          -8.277
REMARK INTER:                  -7.415
REMARK INTRA:                  -0.862
REMARK UNBOUND:                -0.833
REMARK  Name = /home/qwerty/github/datacon2025hack/step_04_hit_selection/docking/ligands/lig_178.pdb
REMARK  5 active torsions:
REMARK  status: ('A' for Active; 'I' for Inactive)
REMARK    1  A    between atoms: C1_1  and  C2_2
REMARK    2  A    between atoms: C2_2  and  N1_3
REMARK    3  A    between atoms: C2_2  and  C11_16
REMARK    4  A    between atoms: C6_9  and  N3_10
REMARK    5  A    between atoms: C14_19  and  N5_20
REMARK                            x       y       z     vdW  Elec       q    Type
REMARK                         _______ _______ _______ _____ _____    ______ ____
ROOT
ATOM      1  C1  UNL     1      18.004   6.298  37.924  0.00  0.00    +0.033 C 
ATOM      2  C2  UNL     1      18.961   7.461  37.648  0.00  0.00    +0.102 C 
ENDROOT
BRANCH   2   3
ATOM      3  N1  UNL     1      19.908   7.090  36.592  0.00  0.00    -0.293 N 
ATOM      4  C3  UNL     1      21.325   7.000  36.816  0.00  0.00    +0.303 C 
ATOM      5  O1  UNL     1      21.790   7.168  37.977  0.00  0.00    -0.253 OA
ATOM      6  N2  UNL     1      22.224   6.718  35.730  0.00  0.00    -0.284 N 
ATOM      7  C4  UNL     1      23.658   6.575  35.910  0.00  0.00    +0.111 C 
ATOM      8  C5  UNL     1      24.210   6.192  34.542  0.00  0.00    +0.047 C 
ATOM      9  C6  UNL     1      23.112   6.550  33.532  0.00  0.00    +0.126 C 
ATOM     10  C10 UNL     1      21.814   6.603  34.339  0.00  0.00    +0.136 C 
ATOM     11  H5  UNL     1      19.527   6.769  35.675  0.00  0.00    +0.151 HD
BRANCH   9  12
ATOM     12  N3  UNL     1      23.387   7.851  32.914  0.00  0.00    -0.267 N 
ATOM     13  C7  UNL     1      24.603   8.403  32.747  0.00  0.00    +0.108 A 
ATOM     14  C8  UNL     1      24.446   9.615  32.111  0.00  0.00    +0.041 A 
ATOM     15  C9  UNL     1      23.084   9.736  31.915  0.00  0.00    +0.134 A 
ATOM     16  N4  UNL     1      22.458   8.651  32.410  0.00  0.00    -0.179 NA
ENDBRANCH   9  12
ENDBRANCH   2   3
BRANCH   2  17
ATOM     17  C11 UNL     1      18.205   8.716  37.257  0.00  0.00    -0.027 A 
ATOM     18  C12 UNL     1      16.985   9.050  37.870  0.00  0.00    +0.007 A 
ATOM     19  C13 UNL     1      16.295  10.206  37.497  0.00  0.00    +0.024 A 
ATOM     20  C14 UNL     1      16.801  11.049  36.494  0.00  0.00    +0.040 A 
ATOM     21  C18 UNL     1      18.027  10.720  35.888  0.00  0.00    +0.024 A 
ATOM     22  C19 UNL     1      18.718   9.565  36.262  0.00  0.00    +0.007 A 
BRANCH  20  23
ATOM     23  N5  UNL     1      16.083  12.241  36.117  0.00  0.00    -0.234 N 
ATOM     24  C15 UNL     1      16.186  13.540  36.775  0.00  0.00    +0.158 C 
ATOM     25  C16 UNL     1      15.336  14.506  35.914  0.00  0.00    +0.253 C 
ATOM     26  O2  UNL     1      14.749  13.700  34.900  0.00  0.00    -0.448 OA
ATOM     27  C17 UNL     1      15.186  12.402  35.032  0.00  0.00    +0.407 C 
ATOM     28  O3  UNL     1      14.773  11.460  34.307  0.00  0.00    -0.226 OA
ENDBRANCH  20  23
ENDBRANCH   2  17
TORSDOF 4
ENDMDL
MODEL 4
REMARK VINA RESULT:    -5.952     11.109     13.650
REMARK INTER + INTRA:          -8.176
REMARK INTER:                  -7.474
REMARK INTRA:                  -0.702
REMARK UNBOUND:                -0.833
REMARK  Name = /home/qwerty/github/datacon2025hack/step_04_hit_selection/docking/ligands/lig_178.pdb
REMARK  5 active torsions:
REMARK  status: ('A' for Active; 'I' for Inactive)
REMARK    1  A    between atoms: C1_1  and  C2_2
REMARK    2  A    between atoms: C2_2  and  N1_3
REMARK    3  A    between atoms: C2_2  and  C11_16
REMARK    4  A    between atoms: C6_9  and  N3_10
REMARK    5  A    between atoms: C14_19  and  N5_20
REMARK                            x       y       z     vdW  Elec       q    Type
REMARK                         _______ _______ _______ _____ _____    ______ ____
ROOT
ATOM      1  C1  UNL     1      21.657   1.117  30.861  0.00  0.00    +0.033 C 
ATOM      2  C2  UNL     1      21.270   2.593  30.733  0.00  0.00    +0.102 C 
ENDROOT
BRANCH   2   3
ATOM      3  N1  UNL     1      22.157   3.417  31.562  0.00  0.00    -0.293 N 
ATOM      4  C3  UNL     1      21.716   4.060  32.769  0.00  0.00    +0.303 C 
ATOM      5  O1  UNL     1      20.545   3.862  33.195  0.00  0.00    -0.253 OA
ATOM      6  N2  UNL     1      22.596   4.928  33.502  0.00  0.00    -0.284 N 
ATOM      7  C4  UNL     1      22.214   5.569  34.749  0.00  0.00    +0.111 C 
ATOM      8  C5  UNL     1      23.455   6.312  35.228  0.00  0.00    +0.047 C 
ATOM      9  C6  UNL     1      24.379   6.415  34.008  0.00  0.00    +0.126 C 
ATOM     10  C10 UNL     1      23.928   5.306  33.057  0.00  0.00    +0.136 C 
ATOM     11  H5  UNL     1      23.173   3.442  31.325  0.00  0.00    +0.151 HD
BRANCH   9  12
ATOM     12  N3  UNL     1      24.242   7.728  33.370  0.00  0.00    -0.267 N 
ATOM     13  C7  UNL     1      25.211   8.389  32.709  0.00  0.00    +0.108 A 
ATOM     14  C8  UNL     1      24.687   9.573  32.239  0.00  0.00    +0.041 A 
ATOM     15  C9  UNL     1      23.370   9.564  32.654  0.00  0.00    +0.134 A 
ATOM     16  N4  UNL     1      23.120   8.432  33.340  0.00  0.00    -0.179 NA
ENDBRANCH   9  12
ENDBRANCH   2   3
BRANCH   2  17
ATOM     17  C11 UNL     1      21.324   3.054  29.290  0.00  0.00    -0.027 A 
ATOM     18  C12 UNL     1      21.878   2.239  28.287  0.00  0.00    +0.007 A 
ATOM     19  C13 UNL     1      21.927   2.678  26.961  0.00  0.00    +0.024 A 
ATOM     20  C14 UNL     1      21.436   3.945  26.608  0.00  0.00    +0.040 A 
ATOM     21  C18 UNL     1      20.872   4.756  27.610  0.00  0.00    +0.024 A 
ATOM     22  C19 UNL     1      20.822   4.317  28.935  0.00  0.00    +0.007 A 
BRANCH  20  23
ATOM     23  N5  UNL     1      21.489   4.388  25.237  0.00  0.00    -0.234 N 
ATOM     24  C15 UNL     1      20.516   4.062  24.199  0.00  0.00    +0.158 C 
ATOM     25  C16 UNL     1      20.943   4.886  22.961  0.00  0.00    +0.253 C 
ATOM     26  O2  UNL     1      22.148   5.542  23.334  0.00  0.00    -0.448 OA
ATOM     27  C17 UNL     1      22.450   5.244  24.643  0.00  0.00    +0.407 C 
ATOM     28  O3  UNL     1      23.499   5.637  25.214  0.00  0.00    -0.226 OA
ENDBRANCH  20  23
ENDBRANCH   2  17
TORSDOF 4
ENDMDL
MODEL 5
REMARK VINA RESULT:    -5.929     10.766     13.736
REMARK INTER + INTRA:          -8.148
REMARK INTER:                  -7.349
REMARK INTRA:                  -0.798
REMARK UNBOUND:                -0.833
REMARK  Name = /home/qwerty/github/datacon2025hack/step_04_hit_selection/docking/ligands/lig_178.pdb
REMARK  5 active torsions:
REMARK  status: ('A' for Active; 'I' for Inactive)
REMARK    1  A    between atoms: C1_1  and  C2_2
REMARK    2  A    between atoms: C2_2  and  N1_3
REMARK    3  A    between atoms: C2_2  and  C11_16
REMARK    4  A    between atoms: C6_9  and  N3_10
REMARK    5  A    between atoms: C14_19  and  N5_20
REMARK                            x       y       z     vdW  Elec       q    Type
REMARK                         _______ _______ _______ _____ _____    ______ ____
ROOT
ATOM      1  C1  UNL     1      20.654   1.083  32.707  0.00  0.00    +0.033 C 
ATOM      2  C2  UNL     1      20.509   2.439  32.012  0.00  0.00    +0.102 C 
ENDROOT
BRANCH   2   3
ATOM      3  N1  UNL     1      21.596   3.333  32.424  0.00  0.00    -0.293 N 
ATOM      4  C3  UNL     1      21.459   4.281  33.496  0.00  0.00    +0.303 C 
ATOM      5  O1  UNL     1      20.395   4.314  34.173  0.00  0.00    -0.253 OA
ATOM      6  N2  UNL     1      22.522   5.196  33.807  0.00  0.00    -0.284 N 
ATOM      7  C4  UNL     1      22.451   6.145  34.905  0.00  0.00    +0.111 C 
ATOM      8  C5  UNL     1      23.806   6.842  34.938  0.00  0.00    +0.047 C 
ATOM      9  C6  UNL     1      24.456   6.560  33.578  0.00  0.00    +0.126 C 
ATOM     10  C10 UNL     1      23.750   5.315  33.036  0.00  0.00    +0.136 C 
ATOM     11  H5  UNL     1      22.540   3.193  32.000  0.00  0.00    +0.151 HD
BRANCH   9  12
ATOM     12  N3  UNL     1      24.263   7.696  32.671  0.00  0.00    -0.267 N 
ATOM     13  C7  UNL     1      24.903   8.878  32.741  0.00  0.00    +0.108 A 
ATOM     14  C8  UNL     1      24.464   9.672  31.704  0.00  0.00    +0.041 A 
ATOM     15  C9  UNL     1      23.543   8.893  31.030  0.00  0.00    +0.134 A 
ATOM     16  N4  UNL     1      23.437   7.694  31.635  0.00  0.00    -0.179 NA
ENDBRANCH   9  12
ENDBRANCH   2   3
BRANCH   2  17
ATOM     17  C11 UNL     1      20.500   2.287  30.503  0.00  0.00    -0.027 A 
ATOM     18  C12 UNL     1      19.864   3.233  29.682  0.00  0.00    +0.007 A 
ATOM     19  C13 UNL     1      19.857   3.079  28.292  0.00  0.00    +0.024 A 
ATOM     20  C14 UNL     1      20.474   1.969  27.693  0.00  0.00    +0.040 A 
ATOM     21  C18 UNL     1      21.121   1.028  28.515  0.00  0.00    +0.024 A 
ATOM     22  C19 UNL     1      21.128   1.183  29.904  0.00  0.00    +0.007 A 
BRANCH  20  23
ATOM     23  N5  UNL     1      20.464   1.819  26.259  0.00  0.00    -0.234 N 
ATOM     24  C15 UNL     1      19.581   0.936  25.503  0.00  0.00    +0.158 C 
ATOM     25  C16 UNL     1      19.867   1.247  24.014  0.00  0.00    +0.253 C 
ATOM     26  O2  UNL     1      20.927   2.195  24.016  0.00  0.00    -0.448 OA
ATOM     27  C17 UNL     1      21.260   2.511  25.313  0.00  0.00    +0.407 C 
ATOM     28  O3  UNL     1      22.212   3.277  25.611  0.00  0.00    -0.226 OA
ENDBRANCH  20  23
ENDBRANCH   2  17
TORSDOF 4
ENDMDL
MODEL 6
REMARK VINA RESULT:    -5.878      6.585      9.186
REMARK INTER + INTRA:          -8.085
REMARK INTER:                  -7.436
REMARK INTRA:                  -0.649
REMARK UNBOUND:                -0.833
REMARK  Name = /home/qwerty/github/datacon2025hack/step_04_hit_selection/docking/ligands/lig_178.pdb
REMARK  5 active torsions:
REMARK  status: ('A' for Active; 'I' for Inactive)
REMARK    1  A    between atoms: C1_1  and  C2_2
REMARK    2  A    between atoms: C2_2  and  N1_3
REMARK    3  A    between atoms: C2_2  and  C11_16
REMARK    4  A    between atoms: C6_9  and  N3_10
REMARK    5  A    between atoms: C14_19  and  N5_20
REMARK                            x       y       z     vdW  Elec       q    Type
REMARK                         _______ _______ _______ _____ _____    ______ ____
ROOT
ATOM      1  C1  UNL     1      21.953   3.505  25.325  0.00  0.00    +0.033 C 
ATOM      2  C2  UNL     1      21.429   2.268  26.058  0.00  0.00    +0.102 C 
ENDROOT
BRANCH   2   3
ATOM      3  N1  UNL     1      21.143   2.598  27.458  0.00  0.00    -0.293 N 
ATOM      4  C3  UNL     1      22.004   2.207  28.540  0.00  0.00    +0.303 C 
ATOM      5  O1  UNL     1      23.093   1.620  28.296  0.00  0.00    -0.253 OA
ATOM      6  N2  UNL     1      21.638   2.477  29.904  0.00  0.00    -0.284 N 
ATOM      7  C4  UNL     1      22.490   2.141  31.031  0.00  0.00    +0.111 C 
ATOM      8  C5  UNL     1      21.775   2.678  32.265  0.00  0.00    +0.047 C 
ATOM      9  C6  UNL     1      20.325   2.929  31.833  0.00  0.00    +0.126 C 
ATOM     10  C10 UNL     1      20.367   3.058  30.309  0.00  0.00    +0.136 C 
ATOM     11  H5  UNL     1      20.345   3.240  27.661  0.00  0.00    +0.151 HD
BRANCH   9  12
ATOM     12  N3  UNL     1      19.469   1.807  32.231  0.00  0.00    -0.267 N 
ATOM     13  C7  UNL     1      19.320   0.652  31.557  0.00  0.00    +0.108 A 
ATOM     14  C8  UNL     1      18.451  -0.153  32.261  0.00  0.00    +0.041 A 
ATOM     15  C9  UNL     1      18.108   0.589  33.374  0.00  0.00    +0.134 A 
ATOM     16  N4  UNL     1      18.740   1.778  33.337  0.00  0.00    -0.179 NA
ENDBRANCH   9  12
ENDBRANCH   2   3
BRANCH   2  17
ATOM     17  C11 UNL     1      20.188   1.714  25.386  0.00  0.00    -0.027 A 
ATOM     18  C12 UNL     1      19.476   2.470  24.439  0.00  0.00    +0.007 A 
ATOM     19  C13 UNL     1      18.329   1.950  23.831  0.00  0.00    +0.024 A 
ATOM     20  C14 UNL     1      17.861   0.668  24.164  0.00  0.00    +0.040 A 
ATOM     21  C18 UNL     1      18.581  -0.092  25.103  0.00  0.00    +0.024 A 
ATOM     22  C19 UNL     1      19.727   0.427  25.710  0.00  0.00    +0.007 A 
BRANCH  20  23
ATOM     23  N5  UNL     1      16.679   0.140  23.530  0.00  0.00    -0.234 N 
ATOM     24  C15 UNL     1      15.305   0.528  23.834  0.00  0.00    +0.158 C 
ATOM     25  C16 UNL     1      14.429  -0.213  22.795  0.00  0.00    +0.253 C 
ATOM     26  O2  UNL     1      15.326  -1.021  22.044  0.00  0.00    -0.448 OA
ATOM     27  C17 UNL     1      16.614  -0.809  22.479  0.00  0.00    +0.407 C 
ATOM     28  O3  UNL     1      17.604  -1.445  22.035  0.00  0.00    -0.226 OA
ENDBRANCH  20  23
ENDBRANCH   2  17
TORSDOF 4
ENDMDL
MODEL 7
REMARK VINA RESULT:    -5.830      6.842     10.112
REMARK INTER + INTRA:          -8.026
REMARK INTER:                  -7.323
REMARK INTRA:                  -0.703
REMARK UNBOUND:                -0.833
REMARK  Name = /home/qwerty/github/datacon2025hack/step_04_hit_selection/docking/ligands/lig_178.pdb
REMARK  5 active torsions:
REMARK  status: ('A' for Active; 'I' for Inactive)
REMARK    1  A    between atoms: C1_1  and  C2_2
REMARK    2  A    between atoms: C2_2  and  N1_3
REMARK    3  A    between atoms: C2_2  and  C11_16
REMARK    4  A    between atoms: C6_9  and  N3_10
REMARK    5  A    between atoms: C14_19  and  N5_20
REMARK                            x       y       z     vdW  Elec       q    Type
REMARK                         _______ _______ _______ _____ _____    ______ ____
ROOT
ATOM      1  C1  UNL     1      21.757   2.555  25.210  0.00  0.00    +0.033 C 
ATOM      2  C2  UNL     1      20.416   2.419  25.935  0.00  0.00    +0.102 C 
ENDROOT
BRANCH   2   3
ATOM      3  N1  UNL     1      19.738   1.189  25.509  0.00  0.00    -0.293 N 
ATOM      4  C3  UNL     1      18.826   1.149  24.399  0.00  0.00    +0.303 C 
ATOM      5  O1  UNL     1      18.641   2.183  23.700  0.00  0.00    -0.253 OA
ATOM      6  N2  UNL     1      18.120  -0.059  24.073  0.00  0.00    -0.284 N 
ATOM      7  C4  UNL     1      17.219  -0.165  22.937  0.00  0.00    +0.111 C 
ATOM      8  C5  UNL     1      16.766  -1.619  22.903  0.00  0.00    +0.047 C 
ATOM      9  C6  UNL     1      17.097  -2.194  24.286  0.00  0.00    +0.126 C 
ATOM     10  C10 UNL     1      18.179  -1.279  24.862  0.00  0.00    +0.136 C 
ATOM     11  H5  UNL     1      20.019   0.289  25.957  0.00  0.00    +0.151 HD
BRANCH   9  12
ATOM     12  N3  UNL     1      15.907  -2.186  25.144  0.00  0.00    -0.267 N 
ATOM     13  C7  UNL     1      15.620  -1.269  26.086  0.00  0.00    +0.108 A 
ATOM     14  C8  UNL     1      14.410  -1.597  26.657  0.00  0.00    +0.041 A 
ATOM     15  C9  UNL     1      14.009  -2.743  25.999  0.00  0.00    +0.134 A 
ATOM     16  N4  UNL     1      14.935  -3.084  25.081  0.00  0.00    -0.179 NA
ENDBRANCH   9  12
ENDBRANCH   2   3
BRANCH   2  17
ATOM     17  C11 UNL     1      20.600   2.421  27.440  0.00  0.00    -0.027 A 
ATOM     18  C12 UNL     1      21.574   1.615  28.053  0.00  0.00    +0.007 A 
ATOM     19  C13 UNL     1      21.731   1.621  29.442  0.00  0.00    +0.024 A 
ATOM     20  C14 UNL     1      20.909   2.423  30.251  0.00  0.00    +0.040 A 
ATOM     21  C18 UNL     1      19.942   3.238  29.636  0.00  0.00    +0.024 A 
ATOM     22  C19 UNL     1      19.786   3.232  28.247  0.00  0.00    +0.007 A 
BRANCH  20  23
ATOM     23  N5  UNL     1      21.079   2.424  31.683  0.00  0.00    -0.234 N 
ATOM     24  C15 UNL     1      21.780   3.445  32.455  0.00  0.00    +0.158 C 
ATOM     25  C16 UNL     1      21.560   3.063  33.939  0.00  0.00    +0.253 C 
ATOM     26  O2  UNL     1      20.842   1.835  33.915  0.00  0.00    -0.448 OA
ATOM     27  C17 UNL     1      20.577   1.480  32.613  0.00  0.00    +0.407 C 
ATOM     28  O3  UNL     1      20.011   0.402  32.295  0.00  0.00    -0.226 OA
ENDBRANCH  20  23
ENDBRANCH   2  17
TORSDOF 4
ENDMDL
MODEL 8
REMARK VINA RESULT:    -5.776     16.168     18.286
REMARK INTER + INTRA:          -7.959
REMARK INTER:                  -7.087
REMARK INTRA:                  -0.872
REMARK UNBOUND:                -0.833
REMARK  Name = /home/qwerty/github/datacon2025hack/step_04_hit_selection/docking/ligands/lig_178.pdb
REMARK  5 active torsions:
REMARK  status: ('A' for Active; 'I' for Inactive)
REMARK    1  A    between atoms: C1_1  and  C2_2
REMARK    2  A    between atoms: C2_2  and  N1_3
REMARK    3  A    between atoms: C2_2  and  C11_16
REMARK    4  A    between atoms: C6_9  and  N3_10
REMARK    5  A    between atoms: C14_19  and  N5_20
REMARK                            x       y       z     vdW  Elec       q    Type
REMARK                         _______ _______ _______ _____ _____    ______ ____
ROOT
ATOM      1  C1  UNL     1      18.086  14.113  32.897  0.00  0.00    +0.033 C 
ATOM      2  C2  UNL     1      17.555  13.693  34.269  0.00  0.00    +0.102 C 
ENDROOT
BRANCH   2   3
ATOM      3  N1  UNL     1      16.121  13.397  34.183  0.00  0.00    -0.293 N 
ATOM      4  C3  UNL     1      15.162  13.917  35.119  0.00  0.00    +0.303 C 
ATOM      5  O1  UNL     1      15.533  14.724  36.015  0.00  0.00    -0.253 OA
ATOM      6  N2  UNL     1      13.780  13.529  35.046  0.00  0.00    -0.284 N 
ATOM      7  C4  UNL     1      12.764  14.057  35.940  0.00  0.00    +0.111 C 
ATOM      8  C5  UNL     1      11.444  13.464  35.462  0.00  0.00    +0.047 C 
ATOM      9  C6  UNL     1      11.818  12.276  34.568  0.00  0.00    +0.126 C 
ATOM     10  C10 UNL     1      13.258  12.536  34.121  0.00  0.00    +0.136 C 
ATOM     11  H5  UNL     1      15.772  12.883  33.344  0.00  0.00    +0.151 HD
BRANCH   9  12
ATOM     12  N3  UNL     1      11.732  11.020  35.320  0.00  0.00    -0.267 N 
ATOM     13  C7  UNL     1      10.953  10.797  36.395  0.00  0.00    +0.108 A 
ATOM     14  C8  UNL     1      11.137   9.493  36.802  0.00  0.00    +0.041 A 
ATOM     15  C9  UNL     1      12.055   8.972  35.909  0.00  0.00    +0.134 A 
ATOM     16  N4  UNL     1      12.402   9.918  35.015  0.00  0.00    -0.179 NA
ENDBRANCH   9  12
ENDBRANCH   2   3
BRANCH   2  17
ATOM     17  C11 UNL     1      18.307  12.491  34.807  0.00  0.00    -0.027 A 
ATOM     18  C12 UNL     1      19.476  12.648  35.571  0.00  0.00    +0.007 A 
ATOM     19  C13 UNL     1      20.164  11.532  36.056  0.00  0.00    +0.024 A 
ATOM     20  C14 UNL     1      19.706  10.233  35.779  0.00  0.00    +0.040 A 
ATOM     21  C18 UNL     1      18.530  10.077  35.024  0.00  0.00    +0.024 A 
ATOM     22  C19 UNL     1      17.842  11.193  34.540  0.00  0.00    +0.007 A 
BRANCH  20  23
ATOM     23  N5  UNL     1      20.421   9.089  36.285  0.00  0.00    -0.234 N 
ATOM     24  C15 UNL     1      21.708   8.604  35.795  0.00  0.00    +0.158 C 
ATOM     25  C16 UNL     1      22.105   7.453  36.750  0.00  0.00    +0.253 C 
ATOM     26  O2  UNL     1      21.009   7.301  37.644  0.00  0.00    -0.448 OA
ATOM     27  C17 UNL     1      20.050   8.246  37.362  0.00  0.00    +0.407 C 
ATOM     28  O3  UNL     1      18.942   8.299  37.955  0.00  0.00    -0.226 OA
ENDBRANCH  20  23
ENDBRANCH   2  17
TORSDOF 4
ENDMDL
MODEL 9
REMARK VINA RESULT:    -5.773      5.089      8.125
REMARK INTER + INTRA:          -7.955
REMARK INTER:                  -7.050
REMARK INTRA:                  -0.905
REMARK UNBOUND:                -0.833
REMARK  Name = /home/qwerty/github/datacon2025hack/step_04_hit_selection/docking/ligands/lig_178.pdb
REMARK  5 active torsions:
REMARK  status: ('A' for Active; 'I' for Inactive)
REMARK    1  A    between atoms: C1_1  and  C2_2
REMARK    2  A    between atoms: C2_2  and  N1_3
REMARK    3  A    between atoms: C2_2  and  C11_16
REMARK    4  A    between atoms: C6_9  and  N3_10
REMARK    5  A    between atoms: C14_19  and  N5_20
REMARK                            x       y       z     vdW  Elec       q    Type
REMARK                         _______ _______ _______ _____ _____    ______ ____
ROOT
ATOM      1  C1  UNL     1      11.540  10.410  21.814  0.00  0.00    +0.033 C 
ATOM      2  C2  UNL     1      10.386   9.467  22.165  0.00  0.00    +0.102 C 
ENDROOT
BRANCH   2   3
ATOM      3  N1  UNL     1      10.841   8.074  22.103  0.00  0.00    -0.293 N 
ATOM      4  C3  UNL     1      10.087   7.039  21.449  0.00  0.00    +0.303 C 
ATOM      5  O1  UNL     1       9.025   7.329  20.832  0.00  0.00    -0.253 OA
ATOM      6  N2  UNL     1      10.529   5.672  21.489  0.00  0.00    -0.284 N 
ATOM      7  C4  UNL     1       9.828   4.596  20.810  0.00  0.00    +0.111 C 
ATOM      8  C5  UNL     1      10.674   3.348  21.029  0.00  0.00    +0.047 C 
ATOM      9  C6  UNL     1      11.616   3.680  22.194  0.00  0.00    +0.126 C 
ATOM     10  C10 UNL     1      11.679   5.207  22.248  0.00  0.00    +0.136 C 
ATOM     11  H5  UNL     1      11.801   7.851  22.446  0.00  0.00    +0.151 HD
BRANCH   9  12
ATOM     12  N3  UNL     1      11.087   3.142  23.451  0.00  0.00    -0.267 N 
ATOM     13  C7  UNL     1      11.028   3.797  24.626  0.00  0.00    +0.108 A 
ATOM     14  C8  UNL     1      10.450   2.964  25.559  0.00  0.00    +0.041 A 
ATOM     15  C9  UNL     1      10.174   1.800  24.869  0.00  0.00    +0.134 A 
ATOM     16  N4  UNL     1      10.569   1.930  23.587  0.00  0.00    -0.179 NA
ENDBRANCH   9  12
ENDBRANCH   2   3
BRANCH   2  17
ATOM     17  C11 UNL     1       9.822   9.773  23.539  0.00  0.00    -0.027 A 
ATOM     18  C12 UNL     1       8.436   9.782  23.769  0.00  0.00    +0.007 A 
ATOM     19  C13 UNL     1       7.928  10.072  25.039  0.00  0.00    +0.024 A 
ATOM     20  C14 UNL     1       8.792  10.372  26.104  0.00  0.00    +0.040 A 
ATOM     21  C18 UNL     1      10.180  10.353  25.875  0.00  0.00    +0.024 A 
ATOM     22  C19 UNL     1      10.688  10.062  24.606  0.00  0.00    +0.007 A 
BRANCH  20  23
ATOM     23  N5  UNL     1       8.259  10.668  27.410  0.00  0.00    -0.234 N 
ATOM     24  C15 UNL     1       7.626   9.707  28.308  0.00  0.00    +0.158 C 
ATOM     25  C16 UNL     1       7.361  10.483  29.621  0.00  0.00    +0.253 C 
ATOM     26  O2  UNL     1       7.768  11.821  29.364  0.00  0.00    -0.448 OA
ATOM     27  C17 UNL     1       8.278  11.911  28.090  0.00  0.00    +0.407 C 
ATOM     28  O3  UNL     1       8.653  12.996  27.573  0.00  0.00    -0.226 OA
ENDBRANCH  20  23
ENDBRANCH   2  17
TORSDOF 4
ENDMDL
