MODEL 1
REMARK VINA RESULT:    -6.335      0.000      0.000
REMARK INTER + INTRA:          -7.592
REMARK INTER:                  -7.076
REMARK INTRA:                  -0.516
REMARK UNBOUND:                -0.516
REMARK  Name = /home/qwerty/github/datacon2025hack/step_04_hit_selection/docking/ligands/lig_358.pdb
REMARK  3 active torsions:
REMARK  status: ('A' for Active; 'I' for Inactive)
REMARK    1  A    between atoms: C1_1  and  O1_2
REMARK    2  A    between atoms: O1_2  and  C2_3
REMARK    3  A    between atoms: C12_15  and  C13_16
REMARK                            x       y       z     vdW  Elec       q    Type
REMARK                         _______ _______ _______ _____ _____    ______ ____
ROOT
ATOM      1  C2  UNL     1      16.322  12.053  36.555  0.00  0.00    +0.121 A 
ATOM      2  C3  UNL     1      17.615  12.650  36.532  0.00  0.00    +0.047 A 
ATOM      3  C4  UNL     1      18.767  11.880  36.775  0.00  0.00    +0.030 A 
ATOM      4  C5  UNL     1      18.602  10.522  37.036  0.00  0.00    +0.047 A 
ATOM      5  N1  UNL     1      19.567   9.616  37.291  0.00  0.00    -0.356 N 
ATOM      6  C6  UNL     1      18.914   8.442  37.459  0.00  0.00    +0.042 A 
ATOM      7  C7  UNL     1      17.549   8.613  37.355  0.00  0.00    -0.016 A 
ATOM      8  C8  UNL     1      17.355   9.943  37.061  0.00  0.00    +0.007 A 
ATOM      9  C9  UNL     1      16.196  10.676  36.825  0.00  0.00    +0.056 A 
ATOM     10  C10 UNL     1      16.564   7.496  37.484  0.00  0.00    +0.052 C 
ATOM     11  C11 UNL     1      17.243   6.291  38.171  0.00  0.00    +0.086 C 
ATOM     12  N2  UNL     1      18.577   6.013  37.600  0.00  0.00    -0.304 NA
ATOM     13  C12 UNL     1      19.527   7.122  37.847  0.00  0.00    +0.132 C 
ATOM     14  H6  UNL     1      20.597   9.784  37.349  0.00  0.00    +0.166 HD
ATOM     15  H12 UNL     1      18.462   5.866  36.569  0.00  0.00    +0.123 HD
ENDROOT
BRANCH  13  16
ATOM     16  C13 UNL     1      20.825   6.876  37.107  0.00  0.00    -0.021 A 
ATOM     17  C14 UNL     1      22.070   6.908  37.794  0.00  0.00    +0.009 A 
ATOM     18  C15 UNL     1      23.275   6.692  37.101  0.00  0.00    +0.050 A 
ATOM     19  C16 UNL     1      23.205   6.455  35.733  0.00  0.00    +0.166 A 
ATOM     20  C17 UNL     1      22.024   6.430  35.068  0.00  0.00    +0.167 A 
ATOM     21  C18 UNL     1      20.808   6.638  35.713  0.00  0.00    +0.055 A 
ATOM     22  O2  UNL     1      22.255   6.178  33.729  0.00  0.00    -0.453 OA
ATOM     23  C19 UNL     1      23.670   6.035  33.543  0.00  0.00    +0.466 C 
ATOM     24  O3  UNL     1      24.238   6.219  34.847  0.00  0.00    -0.453 OA
ENDBRANCH  13  16
BRANCH   1  26
ATOM     25  C1  UNL     1      13.861  12.418  36.783  0.00  0.00    +0.277 C 
ATOM     26  O1  UNL     1      15.154  12.790  36.316  0.00  0.00    -0.495 OA
ENDBRANCH   1  26
TORSDOF 2
ENDMDL
MODEL 2
REMARK VINA RESULT:    -6.323      5.023      7.967
REMARK INTER + INTRA:          -7.579
REMARK INTER:                  -7.098
REMARK INTRA:                  -0.481
REMARK UNBOUND:                -0.516
REMARK  Name = /home/qwerty/github/datacon2025hack/step_04_hit_selection/docking/ligands/lig_358.pdb
REMARK  3 active torsions:
REMARK  status: ('A' for Active; 'I' for Inactive)
REMARK    1  A    between atoms: C1_1  and  O1_2
REMARK    2  A    between atoms: O1_2  and  C2_3
REMARK    3  A    between atoms: C12_15  and  C13_16
REMARK                            x       y       z     vdW  Elec       q    Type
REMARK                         _______ _______ _______ _____ _____    ______ ____
ROOT
ATOM      1  C2  UNL     1      22.559   7.125  35.308  0.00  0.00    +0.121 A 
ATOM      2  C3  UNL     1      23.747   7.177  34.526  0.00  0.00    +0.047 A 
ATOM      3  C4  UNL     1      24.005   6.202  33.545  0.00  0.00    +0.030 A 
ATOM      4  C5  UNL     1      23.064   5.191  33.366  0.00  0.00    +0.047 A 
ATOM      5  N1  UNL     1      23.119   4.170  32.486  0.00  0.00    -0.356 N 
ATOM      6  C6  UNL     1      21.974   3.475  32.681  0.00  0.00    +0.042 A 
ATOM      7  C7  UNL     1      21.226   4.024  33.701  0.00  0.00    -0.016 A 
ATOM      8  C8  UNL     1      21.917   5.137  34.121  0.00  0.00    +0.007 A 
ATOM      9  C9  UNL     1      21.632   6.085  35.099  0.00  0.00    +0.056 A 
ATOM     10  C10 UNL     1      19.904   3.481  34.140  0.00  0.00    +0.052 C 
ATOM     11  C11 UNL     1      19.746   2.035  33.623  0.00  0.00    +0.086 C 
ATOM     12  N2  UNL     1      20.139   1.913  32.204  0.00  0.00    -0.304 NA
ATOM     13  C12 UNL     1      21.581   2.188  32.003  0.00  0.00    +0.132 C 
ATOM     14  H6  UNL     1      23.882   3.961  31.804  0.00  0.00    +0.166 HD
ATOM     15  H12 UNL     1      19.566   2.594  31.651  0.00  0.00    +0.123 HD
ENDROOT
BRANCH  13  16
ATOM     16  C13 UNL     1      21.908   2.218  30.526  0.00  0.00    -0.021 A 
ATOM     17  C14 UNL     1      22.875   1.332  29.978  0.00  0.00    +0.009 A 
ATOM     18  C15 UNL     1      23.187   1.370  28.606  0.00  0.00    +0.050 A 
ATOM     19  C16 UNL     1      22.526   2.304  27.816  0.00  0.00    +0.166 A 
ATOM     20  C17 UNL     1      21.607   3.159  28.330  0.00  0.00    +0.167 A 
ATOM     21  C18 UNL     1      21.268   3.155  29.680  0.00  0.00    +0.055 A 
ATOM     22  O2  UNL     1      21.119   3.969  27.323  0.00  0.00    -0.453 OA
ATOM     23  C19 UNL     1      21.771   3.598  26.100  0.00  0.00    +0.466 C 
ATOM     24  O3  UNL     1      22.660   2.532  26.460  0.00  0.00    -0.453 OA
ENDBRANCH  13  16
BRANCH   1  26
ATOM     25  C1  UNL     1      21.432   9.214  36.091  0.00  0.00    +0.277 C 
ATOM     26  O1  UNL     1      22.270   8.081  36.294  0.00  0.00    -0.495 OA
ENDBRANCH   1  26
TORSDOF 2
ENDMDL
MODEL 3
REMARK VINA RESULT:    -6.160     13.805     16.546
REMARK INTER + INTRA:          -7.397
REMARK INTER:                  -6.989
REMARK INTRA:                  -0.408
REMARK UNBOUND:                -0.516
REMARK  Name = /home/qwerty/github/datacon2025hack/step_04_hit_selection/docking/ligands/lig_358.pdb
REMARK  3 active torsions:
REMARK  status: ('A' for Active; 'I' for Inactive)
REMARK    1  A    between atoms: C1_1  and  O1_2
REMARK    2  A    between atoms: O1_2  and  C2_3
REMARK    3  A    between atoms: C12_15  and  C13_16
REMARK                            x       y       z     vdW  Elec       q    Type
REMARK                         _______ _______ _______ _____ _____    ______ ____
ROOT
ATOM      1  C2  UNL     1      20.634   1.499  26.065  0.00  0.00    +0.121 A 
ATOM      2  C3  UNL     1      20.290   2.662  25.319  0.00  0.00    +0.047 A 
ATOM      3  C4  UNL     1      19.213   2.643  24.413  0.00  0.00    +0.030 A 
ATOM      4  C5  UNL     1      18.500   1.455  24.272  0.00  0.00    +0.047 A 
ATOM      5  N1  UNL     1      17.444   1.228  23.465  0.00  0.00    -0.356 N 
ATOM      6  C6  UNL     1      17.094  -0.059  23.696  0.00  0.00    +0.042 A 
ATOM      7  C7  UNL     1      17.946  -0.651  24.604  0.00  0.00    -0.016 A 
ATOM      8  C8  UNL     1      18.832   0.330  24.988  0.00  0.00    +0.007 A 
ATOM      9  C9  UNL     1      19.890   0.315  25.892  0.00  0.00    +0.056 A 
ATOM     10  C10 UNL     1      17.808  -2.066  25.067  0.00  0.00    +0.052 C 
ATOM     11  C11 UNL     1      16.907  -2.842  24.082  0.00  0.00    +0.086 C 
ATOM     12  N2  UNL     1      15.694  -2.077  23.727  0.00  0.00    -0.304 NA
ATOM     13  C12 UNL     1      16.018  -0.837  22.985  0.00  0.00    +0.132 C 
ATOM     14  H6  UNL     1      16.994   1.900  22.803  0.00  0.00    +0.166 HD
ATOM     15  H12 UNL     1      15.192  -1.840  24.616  0.00  0.00    +0.123 HD
ENDROOT
BRANCH  13  16
ATOM     16  C13 UNL     1      14.770  -0.003  22.789  0.00  0.00    -0.021 A 
ATOM     17  C14 UNL     1      13.733  -0.007  23.762  0.00  0.00    +0.009 A 
ATOM     18  C15 UNL     1      12.568   0.759  23.572  0.00  0.00    +0.050 A 
ATOM     19  C16 UNL     1      12.466   1.506  22.403  0.00  0.00    +0.166 A 
ATOM     20  C17 UNL     1      13.446   1.511  21.466  0.00  0.00    +0.167 A 
ATOM     21  C18 UNL     1      14.614   0.769  21.614  0.00  0.00    +0.055 A 
ATOM     22  O2  UNL     1      13.076   2.333  20.419  0.00  0.00    -0.453 OA
ATOM     23  C19 UNL     1      11.784   2.880  20.719  0.00  0.00    +0.466 C 
ATOM     24  O3  UNL     1      11.433   2.326  21.995  0.00  0.00    -0.453 OA
ENDBRANCH  13  16
BRANCH   1  26
ATOM     25  C1  UNL     1      22.479   2.624  27.320  0.00  0.00    +0.277 C 
ATOM     26  O1  UNL     1      21.700   1.483  26.976  0.00  0.00    -0.495 OA
ENDBRANCH   1  26
TORSDOF 2
ENDMDL
MODEL 4
REMARK VINA RESULT:    -6.144     11.020     14.102
REMARK INTER + INTRA:          -7.379
REMARK INTER:                  -6.919
REMARK INTRA:                  -0.460
REMARK UNBOUND:                -0.516
REMARK  Name = /home/qwerty/github/datacon2025hack/step_04_hit_selection/docking/ligands/lig_358.pdb
REMARK  3 active torsions:
REMARK  status: ('A' for Active; 'I' for Inactive)
REMARK    1  A    between atoms: C1_1  and  O1_2
REMARK    2  A    between atoms: O1_2  and  C2_3
REMARK    3  A    between atoms: C12_15  and  C13_16
REMARK                            x       y       z     vdW  Elec       q    Type
REMARK                         _______ _______ _______ _____ _____    ______ ____
ROOT
ATOM      1  C2  UNL     1      16.437  -0.540  22.737  0.00  0.00    +0.121 A 
ATOM      2  C3  UNL     1      16.626  -1.719  23.513  0.00  0.00    +0.047 A 
ATOM      3  C4  UNL     1      17.591  -1.760  24.535  0.00  0.00    +0.030 A 
ATOM      4  C5  UNL     1      18.351  -0.615  24.762  0.00  0.00    +0.047 A 
ATOM      5  N1  UNL     1      19.318  -0.447  25.687  0.00  0.00    -0.356 N 
ATOM      6  C6  UNL     1      19.741   0.829  25.527  0.00  0.00    +0.042 A 
ATOM      7  C7  UNL     1      19.079   1.446  24.486  0.00  0.00    -0.016 A 
ATOM      8  C8  UNL     1      18.173   0.524  24.014  0.00  0.00    +0.007 A 
ATOM      9  C9  UNL     1      17.227   0.598  22.996  0.00  0.00    +0.056 A 
ATOM     10  C10 UNL     1      19.323   2.862  24.076  0.00  0.00    +0.052 C 
ATOM     11  C11 UNL     1      20.671   3.340  24.658  0.00  0.00    +0.086 C 
ATOM     12  N2  UNL     1      20.819   2.966  26.079  0.00  0.00    -0.304 NA
ATOM     13  C12 UNL     1      20.873   1.497  26.263  0.00  0.00    +0.132 C 
ATOM     14  H6  UNL     1      19.668  -1.151  26.375  0.00  0.00    +0.166 HD
ATOM     15  H12 UNL     1      20.002   3.360  26.603  0.00  0.00    +0.123 HD
ENDROOT
BRANCH  13  16
ATOM     16  C13 UNL     1      20.856   1.152  27.736  0.00  0.00    -0.021 A 
ATOM     17  C14 UNL     1      21.974   0.521  28.348  0.00  0.00    +0.009 A 
ATOM     18  C15 UNL     1      21.951   0.189  29.715  0.00  0.00    +0.050 A 
ATOM     19  C16 UNL     1      20.802   0.491  30.437  0.00  0.00    +0.166 A 
ATOM     20  C17 UNL     1      19.727   1.085  29.862  0.00  0.00    +0.167 A 
ATOM     21  C18 UNL     1      19.707   1.431  28.513  0.00  0.00    +0.055 A 
ATOM     22  O2  UNL     1      18.737   1.260  30.809  0.00  0.00    -0.453 OA
ATOM     23  C19 UNL     1      19.221   0.746  32.057  0.00  0.00    +0.466 C 
ATOM     24  O3  UNL     1      20.542   0.265  31.774  0.00  0.00    -0.453 OA
ENDBRANCH  13  16
BRANCH   1  26
ATOM     25  C1  UNL     1      15.346   0.642  20.824  0.00  0.00    +0.277 C 
ATOM     26  O1  UNL     1      15.484  -0.463  21.712  0.00  0.00    -0.495 OA
ENDBRANCH   1  26
TORSDOF 2
ENDMDL
MODEL 5
REMARK VINA RESULT:    -6.085      7.356     11.914
REMARK INTER + INTRA:          -7.313
REMARK INTER:                  -6.852
REMARK INTRA:                  -0.461
REMARK UNBOUND:                -0.516
REMARK  Name = /home/qwerty/github/datacon2025hack/step_04_hit_selection/docking/ligands/lig_358.pdb
REMARK  3 active torsions:
REMARK  status: ('A' for Active; 'I' for Inactive)
REMARK    1  A    between atoms: C1_1  and  O1_2
REMARK    2  A    between atoms: O1_2  and  C2_3
REMARK    3  A    between atoms: C12_15  and  C13_16
REMARK                            x       y       z     vdW  Elec       q    Type
REMARK                         _______ _______ _______ _____ _____    ______ ____
ROOT
ATOM      1  C2  UNL     1      14.046  13.711  35.633  0.00  0.00    +0.121 A 
ATOM      2  C3  UNL     1      12.696  13.658  36.083  0.00  0.00    +0.047 A 
ATOM      3  C4  UNL     1      11.632  13.664  35.162  0.00  0.00    +0.030 A 
ATOM      4  C5  UNL     1      11.941  13.722  33.806  0.00  0.00    +0.047 A 
ATOM      5  N1  UNL     1      11.077  13.737  32.771  0.00  0.00    -0.356 N 
ATOM      6  C6  UNL     1      11.854  13.781  31.663  0.00  0.00    +0.042 A 
ATOM      7  C7  UNL     1      13.191  13.838  31.995  0.00  0.00    -0.016 A 
ATOM      8  C8  UNL     1      13.243  13.776  33.369  0.00  0.00    +0.007 A 
ATOM      9  C9  UNL     1      14.319  13.772  34.252  0.00  0.00    +0.056 A 
ATOM     10  C10 UNL     1      14.292  13.884  30.986  0.00  0.00    +0.052 C 
ATOM     11  C11 UNL     1      13.715  14.303  29.616  0.00  0.00    +0.086 C 
ATOM     12  N2  UNL     1      12.473  13.570  29.296  0.00  0.00    -0.304 NA
ATOM     13  C12 UNL     1      11.378  13.895  30.239  0.00  0.00    +0.132 C 
ATOM     14  H6  UNL     1      10.033  13.721  32.815  0.00  0.00    +0.166 HD
ATOM     15  H12 UNL     1      12.685  12.544  29.337  0.00  0.00    +0.123 HD
ENDROOT
BRANCH  13  16
ATOM     16  C13 UNL     1      10.182  13.003  29.981  0.00  0.00    -0.021 A 
ATOM     17  C14 UNL     1       8.934  13.559  29.586  0.00  0.00    +0.009 A 
ATOM     18  C15 UNL     1       7.820  12.729  29.360  0.00  0.00    +0.050 A 
ATOM     19  C16 UNL     1       7.982  11.360  29.543  0.00  0.00    +0.166 A 
ATOM     20  C17 UNL     1       9.166  10.822  29.926  0.00  0.00    +0.167 A 
ATOM     21  C18 UNL     1      10.293  11.605  30.160  0.00  0.00    +0.055 A 
ATOM     22  O2  UNL     1       9.035   9.451  30.031  0.00  0.00    -0.453 OA
ATOM     23  C19 UNL     1       7.685   9.106  29.690  0.00  0.00    +0.466 C 
ATOM     24  O3  UNL     1       7.048  10.355  29.385  0.00  0.00    -0.453 OA
ENDBRANCH  13  16
BRANCH   1  26
ATOM     25  C1  UNL     1      15.644  12.538  37.155  0.00  0.00    +0.277 C 
ATOM     26  O1  UNL     1      15.131  13.706  36.522  0.00  0.00    -0.495 OA
ENDBRANCH   1  26
TORSDOF 2
ENDMDL
MODEL 6
REMARK VINA RESULT:    -6.015     13.339     16.249
REMARK INTER + INTRA:          -7.235
REMARK INTER:                  -6.771
REMARK INTRA:                  -0.463
REMARK UNBOUND:                -0.516
REMARK  Name = /home/qwerty/github/datacon2025hack/step_04_hit_selection/docking/ligands/lig_358.pdb
REMARK  3 active torsions:
REMARK  status: ('A' for Active; 'I' for Inactive)
REMARK    1  A    between atoms: C1_1  and  O1_2
REMARK    2  A    between atoms: O1_2  and  C2_3
REMARK    3  A    between atoms: C12_15  and  C13_16
REMARK                            x       y       z     vdW  Elec       q    Type
REMARK                         _______ _______ _______ _____ _____    ______ ____
ROOT
ATOM      1  C2  UNL     1       8.462   7.406  21.856  0.00  0.00    +0.121 A 
ATOM      2  C3  UNL     1       8.320   8.747  21.398  0.00  0.00    +0.047 A 
ATOM      3  C4  UNL     1       8.220   9.811  22.312  0.00  0.00    +0.030 A 
ATOM      4  C5  UNL     1       8.263   9.512  23.671  0.00  0.00    +0.047 A 
ATOM      5  N1  UNL     1       8.185  10.378  24.701  0.00  0.00    -0.356 N 
ATOM      6  C6  UNL     1       8.293   9.614  25.814  0.00  0.00    +0.042 A 
ATOM      7  C7  UNL     1       8.393   8.277  25.491  0.00  0.00    -0.016 A 
ATOM      8  C8  UNL     1       8.397   8.218  24.116  0.00  0.00    +0.007 A 
ATOM      9  C9  UNL     1       8.499   7.143  23.239  0.00  0.00    +0.056 A 
ATOM     10  C10 UNL     1       8.535   7.190  26.508  0.00  0.00    +0.052 C 
ATOM     11  C11 UNL     1       8.108   7.725  27.892  0.00  0.00    +0.086 C 
ATOM     12  N2  UNL     1       8.690   9.053  28.172  0.00  0.00    -0.304 NA
ATOM     13  C12 UNL     1       8.184  10.087  27.240  0.00  0.00    +0.132 C 
ATOM     14  H6  UNL     1       8.065  11.415  24.651  0.00  0.00    +0.166 HD
ATOM     15  H12 UNL     1       9.731   8.974  28.084  0.00  0.00    +0.123 HD
ENDROOT
BRANCH  13  16
ATOM     16  C13 UNL     1       8.925  11.390  27.449  0.00  0.00    -0.021 A 
ATOM     17  C14 UNL     1       8.233  12.561  27.864  0.00  0.00    +0.009 A 
ATOM     18  C15 UNL     1       8.921  13.774  28.045  0.00  0.00    +0.050 A 
ATOM     19  C16 UNL     1      10.290  13.787  27.799  0.00  0.00    +0.166 A 
ATOM     20  C17 UNL     1      10.958  12.678  27.396  0.00  0.00    +0.167 A 
ATOM     21  C18 UNL     1      10.317  11.458  27.205  0.00  0.00    +0.055 A 
ATOM     22  O2  UNL     1      12.295  12.983  27.227  0.00  0.00    -0.453 OA
ATOM     23  C19 UNL     1      12.478  14.369  27.545  0.00  0.00    +0.466 C 
ATOM     24  O3  UNL     1      11.173  14.844  27.905  0.00  0.00    -0.453 OA
ENDBRANCH  13  16
BRANCH   1  26
ATOM     25  C1  UNL     1       7.556   5.333  20.794  0.00  0.00    +0.277 C 
ATOM     26  O1  UNL     1       8.565   6.321  20.973  0.00  0.00    -0.495 OA
ENDBRANCH   1  26
TORSDOF 2
ENDMDL
MODEL 7
REMARK VINA RESULT:    -5.961     12.218     14.912
REMARK INTER + INTRA:          -7.175
REMARK INTER:                  -6.694
REMARK INTRA:                  -0.480
REMARK UNBOUND:                -0.516
REMARK  Name = /home/qwerty/github/datacon2025hack/step_04_hit_selection/docking/ligands/lig_358.pdb
REMARK  3 active torsions:
REMARK  status: ('A' for Active; 'I' for Inactive)
REMARK    1  A    between atoms: C1_1  and  O1_2
REMARK    2  A    between atoms: O1_2  and  C2_3
REMARK    3  A    between atoms: C12_15  and  C13_16
REMARK                            x       y       z     vdW  Elec       q    Type
REMARK                         _______ _______ _______ _____ _____    ______ ____
ROOT
ATOM      1  C2  UNL     1      11.607  13.586  29.543  0.00  0.00    +0.121 A 
ATOM      2  C3  UNL     1      12.501  13.263  28.483  0.00  0.00    +0.047 A 
ATOM      3  C4  UNL     1      12.187  12.247  27.562  0.00  0.00    +0.030 A 
ATOM      4  C5  UNL     1      10.979  11.571  27.721  0.00  0.00    +0.047 A 
ATOM      5  N1  UNL     1      10.494  10.575  26.954  0.00  0.00    -0.356 N 
ATOM      6  C6  UNL     1       9.293  10.266  27.496  0.00  0.00    +0.042 A 
ATOM      7  C7  UNL     1       9.042  11.027  28.618  0.00  0.00    -0.016 A 
ATOM      8  C8  UNL     1      10.115  11.879  28.745  0.00  0.00    +0.007 A 
ATOM      9  C9  UNL     1      10.396  12.879  29.672  0.00  0.00    +0.056 A 
ATOM     10  C10 UNL     1       7.789  10.921  29.426  0.00  0.00    +0.052 C 
ATOM     11  C11 UNL     1       7.081   9.588  29.101  0.00  0.00    +0.086 C 
ATOM     12  N2  UNL     1       7.023   9.337  27.646  0.00  0.00    -0.304 NA
ATOM     13  C12 UNL     1       8.372   9.156  27.061  0.00  0.00    +0.132 C 
ATOM     14  H6  UNL     1      10.948  10.135  26.122  0.00  0.00    +0.166 HD
ATOM     15  H12 UNL     1       6.548  10.156  27.197  0.00  0.00    +0.123 HD
ENDROOT
BRANCH  13  16
ATOM     16  C13 UNL     1       8.282   9.069  25.553  0.00  0.00    -0.021 A 
ATOM     17  C14 UNL     1       7.668  10.109  24.801  0.00  0.00    +0.009 A 
ATOM     18  C15 UNL     1       7.573  10.021  23.400  0.00  0.00    +0.050 A 
ATOM     19  C16 UNL     1       8.090   8.886  22.785  0.00  0.00    +0.166 A 
ATOM     20  C17 UNL     1       8.671   7.886  23.493  0.00  0.00    +0.167 A 
ATOM     21  C18 UNL     1       8.786   7.932  24.879  0.00  0.00    +0.055 A 
ATOM     22  O2  UNL     1       9.088   6.893  22.628  0.00  0.00    -0.453 OA
ATOM     23  C19 UNL     1       8.749   7.295  21.294  0.00  0.00    +0.466 C 
ATOM     24  O3  UNL     1       8.115   8.573  21.440  0.00  0.00    -0.453 OA
ENDBRANCH  13  16
BRANCH   1  26
ATOM     25  C1  UNL     1      11.907  14.397  31.887  0.00  0.00    +0.277 C 
ATOM     26  O1  UNL     1      11.888  14.594  30.477  0.00  0.00    -0.495 OA
ENDBRANCH   1  26
TORSDOF 2
ENDMDL
MODEL 8
REMARK VINA RESULT:    -5.905      4.142      6.900
REMARK INTER + INTRA:          -7.112
REMARK INTER:                  -6.647
REMARK INTRA:                  -0.465
REMARK UNBOUND:                -0.516
REMARK  Name = /home/qwerty/github/datacon2025hack/step_04_hit_selection/docking/ligands/lig_358.pdb
REMARK  3 active torsions:
REMARK  status: ('A' for Active; 'I' for Inactive)
REMARK    1  A    between atoms: C1_1  and  O1_2
REMARK    2  A    between atoms: O1_2  and  C2_3
REMARK    3  A    between atoms: C12_15  and  C13_16
REMARK                            x       y       z     vdW  Elec       q    Type
REMARK                         _______ _______ _______ _____ _____    ______ ____
ROOT
ATOM      1  C2  UNL     1      12.440  13.581  31.641  0.00  0.00    +0.121 A 
ATOM      2  C3  UNL     1      13.327  12.593  31.125  0.00  0.00    +0.047 A 
ATOM      3  C4  UNL     1      14.470  12.205  31.848  0.00  0.00    +0.030 A 
ATOM      4  C5  UNL     1      14.703  12.816  33.078  0.00  0.00    +0.047 A 
ATOM      5  N1  UNL     1      15.731  12.588  33.920  0.00  0.00    -0.356 N 
ATOM      6  C6  UNL     1      15.507  13.403  34.978  0.00  0.00    +0.042 A 
ATOM      7  C7  UNL     1      14.376  14.168  34.786  0.00  0.00    -0.016 A 
ATOM      8  C8  UNL     1      13.851  13.771  33.578  0.00  0.00    +0.007 A 
ATOM      9  C9  UNL     1      12.712  14.178  32.888  0.00  0.00    +0.056 A 
ATOM     10  C10 UNL     1      13.867  15.155  35.787  0.00  0.00    +0.052 C 
ATOM     11  C11 UNL     1      14.990  15.495  36.789  0.00  0.00    +0.086 C 
ATOM     12  N2  UNL     1      15.689  14.284  37.264  0.00  0.00    -0.304 NA
ATOM     13  C12 UNL     1      16.410  13.594  36.168  0.00  0.00    +0.132 C 
ATOM     14  H6  UNL     1      16.529  11.927  33.784  0.00  0.00    +0.166 HD
ATOM     15  H12 UNL     1      14.973  13.641  37.678  0.00  0.00    +0.123 HD
ENDROOT
BRANCH  13  16
ATOM     16  C13 UNL     1      16.969  12.276  36.657  0.00  0.00    -0.021 A 
ATOM     17  C14 UNL     1      16.208  11.438  37.518  0.00  0.00    +0.009 A 
ATOM     18  C15 UNL     1      16.735  10.219  37.982  0.00  0.00    +0.050 A 
ATOM     19  C16 UNL     1      18.019   9.871  37.578  0.00  0.00    +0.166 A 
ATOM     20  C17 UNL     1      18.757  10.666  36.764  0.00  0.00    +0.167 A 
ATOM     21  C18 UNL     1      18.274  11.880  36.281  0.00  0.00    +0.055 A 
ATOM     22  O2  UNL     1      19.984  10.075  36.533  0.00  0.00    -0.453 OA
ATOM     23  C19 UNL     1      20.018   8.831  37.244  0.00  0.00    +0.466 C 
ATOM     24  O3  UNL     1      18.744   8.740  37.898  0.00  0.00    -0.453 OA
ENDBRANCH  13  16
BRANCH   1  26
ATOM     25  C1  UNL     1      11.114  13.861  29.542  0.00  0.00    +0.277 C 
ATOM     26  O1  UNL     1      11.292  13.991  30.949  0.00  0.00    -0.495 OA
ENDBRANCH   1  26
TORSDOF 2
ENDMDL
MODEL 9
REMARK VINA RESULT:    -5.880     16.508     18.676
REMARK INTER + INTRA:          -7.084
REMARK INTER:                  -6.595
REMARK INTRA:                  -0.488
REMARK UNBOUND:                -0.516
REMARK  Name = /home/qwerty/github/datacon2025hack/step_04_hit_selection/docking/ligands/lig_358.pdb
REMARK  3 active torsions:
REMARK  status: ('A' for Active; 'I' for Inactive)
REMARK    1  A    between atoms: C1_1  and  O1_2
REMARK    2  A    between atoms: O1_2  and  C2_3
REMARK    3  A    between atoms: C12_15  and  C13_16
REMARK                            x       y       z     vdW  Elec       q    Type
REMARK                         _______ _______ _______ _____ _____    ______ ____
ROOT
ATOM      1  C2  UNL     1      15.901   0.378  21.253  0.00  0.00    +0.121 A 
ATOM      2  C3  UNL     1      16.173   1.424  20.325  0.00  0.00    +0.047 A 
ATOM      3  C4  UNL     1      15.189   2.378  20.008  0.00  0.00    +0.030 A 
ATOM      4  C5  UNL     1      13.948   2.267  20.629  0.00  0.00    +0.047 A 
ATOM      5  N1  UNL     1      12.878   3.072  20.466  0.00  0.00    -0.356 N 
ATOM      6  C6  UNL     1      11.929   2.569  21.289  0.00  0.00    +0.042 A 
ATOM      7  C7  UNL     1      12.378   1.434  21.932  0.00  0.00    -0.016 A 
ATOM      8  C8  UNL     1      13.680   1.258  21.523  0.00  0.00    +0.007 A 
ATOM      9  C9  UNL     1      14.631   0.298  21.859  0.00  0.00    +0.056 A 
ATOM     10  C10 UNL     1      11.558   0.661  22.913  0.00  0.00    +0.052 C 
ATOM     11  C11 UNL     1      10.070   1.039  22.748  0.00  0.00    +0.086 C 
ATOM     12  N2  UNL     1       9.883   2.500  22.646  0.00  0.00    -0.304 NA
ATOM     13  C12 UNL     1      10.510   3.056  21.425  0.00  0.00    +0.132 C 
ATOM     14  H6  UNL     1      12.799   3.903  19.837  0.00  0.00    +0.166 HD
ATOM     15  H12 UNL     1      10.309   2.940  23.496  0.00  0.00    +0.123 HD
ENDROOT
BRANCH  13  16
ATOM     16  C13 UNL     1      10.442   4.568  21.441  0.00  0.00    -0.021 A 
ATOM     17  C14 UNL     1      10.175   5.296  20.249  0.00  0.00    +0.009 A 
ATOM     18  C15 UNL     1      10.126   6.702  20.265  0.00  0.00    +0.050 A 
ATOM     19  C16 UNL     1      10.353   7.347  21.476  0.00  0.00    +0.166 A 
ATOM     20  C17 UNL     1      10.616   6.662  22.616  0.00  0.00    +0.167 A 
ATOM     21  C18 UNL     1      10.674   5.271  22.646  0.00  0.00    +0.055 A 
ATOM     22  O2  UNL     1      10.802   7.553  23.655  0.00  0.00    -0.453 OA
ATOM     23  C19 UNL     1      10.644   8.880  23.135  0.00  0.00    +0.466 C 
ATOM     24  O3  UNL     1      10.358   8.702  21.740  0.00  0.00    -0.453 OA
ENDBRANCH  13  16
BRANCH   1  26
ATOM     25  C1  UNL     1      16.684  -1.565  22.615  0.00  0.00    +0.277 C 
ATOM     26  O1  UNL     1      16.857  -0.589  21.593  0.00  0.00    -0.495 OA
ENDBRANCH   1  26
TORSDOF 2
ENDMDL
