MODEL 1
REMARK VINA RESULT:    -5.618      0.000      0.000
REMARK INTER + INTRA:          -9.067
REMARK INTER:                  -8.081
REMARK INTRA:                  -0.986
REMARK UNBOUND:                -0.986
REMARK  Name = /home/qwerty/github/datacon2025hack/step_04_hit_selection/docking/ligands/lig_606.pdb
REMARK  11 active torsions:
REMARK  status: ('A' for Active; 'I' for Inactive)
REMARK    1  A    between atoms: C1_1  and  C2_2
REMARK    2  A    between atoms: C2_2  and  C3_3
REMARK    3  A    between atoms: C2_2  and  C4_4
REMARK    4  A    between atoms: C6_6  and  C7_7
REMARK    5  A    between atoms: N1_9  and  C8_10
REMARK    6  A    between atoms: C8_10  and  C9_11
REMARK    7  A    between atoms: C9_11  and  O2_12
REMARK    8  A    between atoms: C9_11  and  C10_13
REMARK    9  A    between atoms: C10_13  and  N2_14
REMARK   10  A    between atoms: C11_15  and  C12_17
REMARK   11  A    between atoms: N5_20  and  C13_21
REMARK                            x       y       z     vdW  Elec       q    Type
REMARK                         _______ _______ _______ _____ _____    ______ ____
ROOT
ATOM      1  C8  UNL     1       8.195   8.970  28.251  0.00  0.00    +0.137 C 
ENDROOT
BRANCH   1   4
ATOM      2  C7  UNL     1       8.689   9.976  25.971  0.00  0.00    +0.264 C 
ATOM      3  O1  UNL     1       9.357  10.904  26.502  0.00  0.00    -0.268 OA
ATOM      4  N1  UNL     1       8.116   8.945  26.791  0.00  0.00    -0.308 N 
ATOM      5  H9  UNL     1       7.677   8.110  26.344  0.00  0.00    +0.149 HD
BRANCH   2   8
ATOM      6  C4  UNL     1       8.801   9.768  22.354  0.00  0.00    +0.039 A 
ATOM      7  C5  UNL     1       9.458   9.606  23.560  0.00  0.00    +0.057 A 
ATOM      8  C6  UNL     1       8.515   9.972  24.507  0.00  0.00    +0.147 A 
ATOM      9  N7  UNL     1       7.367  10.327  23.896  0.00  0.00    -0.169 NA
ATOM     10  N8  UNL     1       7.549  10.202  22.592  0.00  0.00    -0.281 N 
ATOM     11  H20 UNL     1       6.819  10.411  21.876  0.00  0.00    +0.189 HD
BRANCH   6  13
ATOM     12  C1  UNL     1      10.769  10.092  20.849  0.00  0.00    +0.014 C 
ATOM     13  C2  UNL     1       9.361   9.504  20.981  0.00  0.00    +0.031 C 
ATOM     14  C3  UNL     1       9.361   8.002  20.679  0.00  0.00    +0.014 C 
ENDBRANCH   6  13
ENDBRANCH   2   8
ENDBRANCH   1   4
BRANCH   1  15
ATOM     15  C9  UNL     1       7.195   9.983  28.829  0.00  0.00    +0.149 C 
BRANCH  15  16
ATOM     16  O2  UNL     1       6.045   9.307  29.265  0.00  0.00    -0.389 OA
ATOM     17  H13 UNL     1       5.875   8.578  28.613  0.00  0.00    +0.210 HD
ENDBRANCH  15  16
BRANCH  15  18
ATOM     18  C10 UNL     1       7.818  10.792  29.984  0.00  0.00    +0.137 C 
BRANCH  18  19
ATOM     19  N2  UNL     1       9.008  11.525  29.549  0.00  0.00    -0.306 N 
ATOM     20  C11 UNL     1       9.013  12.943  29.332  0.00  0.00    +0.285 C 
ATOM     21  O3  UNL     1       7.945  13.605  29.433  0.00  0.00    -0.267 OA
ATOM     22  H16 UNL     1       9.876  10.975  29.354  0.00  0.00    +0.149 HD
BRANCH  20  23
ATOM     23  C12 UNL     1      10.259  13.639  28.983  0.00  0.00    +0.259 A 
ATOM     24  N3  UNL     1      11.174  14.062  29.879  0.00  0.00    -0.103 NA
ATOM     25  N4  UNL     1      12.126  14.625  29.151  0.00  0.00    -0.046 NA
ATOM     26  N5  UNL     1      11.788  14.552  27.875  0.00  0.00    -0.166 N 
ATOM     27  C13 UNL     1      12.627  15.009  26.778  0.00  0.00    +0.199 C 
ATOM     28  N6  UNL     1      10.632  13.930  27.722  0.00  0.00    -0.126 NA
ENDBRANCH  20  23
ENDBRANCH  18  19
ENDBRANCH  15  18
ENDBRANCH   1  15
TORSDOF 8
ENDMDL
MODEL 2
REMARK VINA RESULT:    -5.565     15.087     16.072
REMARK INTER + INTRA:          -8.991
REMARK INTER:                  -8.311
REMARK INTRA:                  -0.681
REMARK UNBOUND:                -0.986
REMARK  Name = /home/qwerty/github/datacon2025hack/step_04_hit_selection/docking/ligands/lig_606.pdb
REMARK  11 active torsions:
REMARK  status: ('A' for Active; 'I' for Inactive)
REMARK    1  A    between atoms: C1_1  and  C2_2
REMARK    2  A    between atoms: C2_2  and  C3_3
REMARK    3  A    between atoms: C2_2  and  C4_4
REMARK    4  A    between atoms: C6_6  and  C7_7
REMARK    5  A    between atoms: N1_9  and  C8_10
REMARK    6  A    between atoms: C8_10  and  C9_11
REMARK    7  A    between atoms: C9_11  and  O2_12
REMARK    8  A    between atoms: C9_11  and  C10_13
REMARK    9  A    between atoms: C10_13  and  N2_14
REMARK   10  A    between atoms: C11_15  and  C12_17
REMARK   11  A    between atoms: N5_20  and  C13_21
REMARK                            x       y       z     vdW  Elec       q    Type
REMARK                         _______ _______ _______ _____ _____    ______ ____
ROOT
ATOM      1  C8  UNL     1      22.081   4.964  34.141  0.00  0.00    +0.137 C 
ENDROOT
BRANCH   1   4
ATOM      2  C7  UNL     1      21.316   2.793  33.066  0.00  0.00    +0.264 C 
ATOM      3  O1  UNL     1      20.678   2.478  34.107  0.00  0.00    -0.268 OA
ATOM      4  N1  UNL     1      22.006   4.051  33.000  0.00  0.00    -0.308 N 
ATOM      5  H9  UNL     1      22.421   4.369  32.097  0.00  0.00    +0.149 HD
BRANCH   2   8
ATOM      6  C4  UNL     1      21.770   0.818  30.061  0.00  0.00    +0.039 A 
ATOM      7  C5  UNL     1      22.127   1.931  30.799  0.00  0.00    +0.057 A 
ATOM      8  C6  UNL     1      21.333   1.853  31.931  0.00  0.00    +0.147 A 
ATOM      9  N7  UNL     1      20.554   0.754  31.867  0.00  0.00    -0.169 NA
ATOM     10  N8  UNL     1      20.824   0.134  30.730  0.00  0.00    -0.281 N 
ATOM     11  H20 UNL     1      20.363  -0.751  30.422  0.00  0.00    +0.189 HD
BRANCH   6  13
ATOM     12  C1  UNL     1      22.710  -1.082  28.737  0.00  0.00    +0.014 C 
ATOM     13  C2  UNL     1      22.332   0.403  28.727  0.00  0.00    +0.031 C 
ATOM     14  C3  UNL     1      21.338   0.709  27.603  0.00  0.00    +0.014 C 
ENDBRANCH   6  13
ENDBRANCH   2   8
ENDBRANCH   1   4
BRANCH   1  15
ATOM     15  C9  UNL     1      23.322   5.864  34.033  0.00  0.00    +0.149 C 
BRANCH  15  16
ATOM     16  O2  UNL     1      23.092   6.864  33.075  0.00  0.00    -0.389 OA
ATOM     17  H13 UNL     1      22.379   6.526  32.472  0.00  0.00    +0.210 HD
ENDBRANCH  15  16
BRANCH  15  18
ATOM     18  C10 UNL     1      23.682   6.490  35.394  0.00  0.00    +0.137 C 
BRANCH  18  19
ATOM     19  N2  UNL     1      22.489   6.744  36.203  0.00  0.00    -0.306 N 
ATOM     20  C11 UNL     1      21.709   7.943  36.086  0.00  0.00    +0.285 C 
ATOM     21  O3  UNL     1      22.084   8.873  35.321  0.00  0.00    -0.267 OA
ATOM     22  H16 UNL     1      22.225   6.031  36.921  0.00  0.00    +0.149 HD
BRANCH  20  23
ATOM     23  C12 UNL     1      20.471   8.104  36.859  0.00  0.00    +0.259 A 
ATOM     24  N3  UNL     1      19.824   7.098  37.484  0.00  0.00    -0.103 NA
ATOM     25  N4  UNL     1      18.775   7.671  38.054  0.00  0.00    -0.046 NA
ATOM     26  N5  UNL     1      18.788   8.963  37.771  0.00  0.00    -0.166 N 
ATOM     27  C13 UNL     1      17.824   9.923  38.285  0.00  0.00    +0.199 C 
ATOM     28  N6  UNL     1      19.839   9.281  37.037  0.00  0.00    -0.126 NA
ENDBRANCH  20  23
ENDBRANCH  18  19
ENDBRANCH  15  18
ENDBRANCH   1  15
TORSDOF 8
ENDMDL
MODEL 3
REMARK VINA RESULT:    -5.492     12.966     15.061
REMARK INTER + INTRA:          -8.887
REMARK INTER:                  -8.090
REMARK INTRA:                  -0.797
REMARK UNBOUND:                -0.986
REMARK  Name = /home/qwerty/github/datacon2025hack/step_04_hit_selection/docking/ligands/lig_606.pdb
REMARK  11 active torsions:
REMARK  status: ('A' for Active; 'I' for Inactive)
REMARK    1  A    between atoms: C1_1  and  C2_2
REMARK    2  A    between atoms: C2_2  and  C3_3
REMARK    3  A    between atoms: C2_2  and  C4_4
REMARK    4  A    between atoms: C6_6  and  C7_7
REMARK    5  A    between atoms: N1_9  and  C8_10
REMARK    6  A    between atoms: C8_10  and  C9_11
REMARK    7  A    between atoms: C9_11  and  O2_12
REMARK    8  A    between atoms: C9_11  and  C10_13
REMARK    9  A    between atoms: C10_13  and  N2_14
REMARK   10  A    between atoms: C11_15  and  C12_17
REMARK   11  A    between atoms: N5_20  and  C13_21
REMARK                            x       y       z     vdW  Elec       q    Type
REMARK                         _______ _______ _______ _____ _____    ______ ____
ROOT
ATOM      1  C8  UNL     1      19.089   7.351  37.474  0.00  0.00    +0.137 C 
ENDROOT
BRANCH   1   4
ATOM      2  C7  UNL     1      21.517   7.094  36.771  0.00  0.00    +0.264 C 
ATOM      3  O1  UNL     1      21.899   7.242  37.963  0.00  0.00    -0.268 OA
ATOM      4  N1  UNL     1      20.114   7.093  36.463  0.00  0.00    -0.308 N 
ATOM      5  H9  UNL     1      19.793   6.841  35.502  0.00  0.00    +0.149 HD
BRANCH   2   8
ATOM      6  C4  UNL     1      23.752   7.110  33.917  0.00  0.00    +0.039 A 
ATOM      7  C5  UNL     1      22.650   7.657  34.548  0.00  0.00    +0.057 A 
ATOM      8  C6  UNL     1      22.530   6.921  35.715  0.00  0.00    +0.147 A 
ATOM      9  N7  UNL     1      23.508   5.994  35.771  0.00  0.00    -0.169 NA
ATOM     10  N8  UNL     1      24.243   6.115  34.678  0.00  0.00    -0.281 N 
ATOM     11  H20 UNL     1      25.072   5.520  34.461  0.00  0.00    +0.189 HD
BRANCH   6  13
ATOM     12  C1  UNL     1      23.319   7.370  31.470  0.00  0.00    +0.014 C 
ATOM     13  C2  UNL     1      24.340   7.539  32.599  0.00  0.00    +0.031 C 
ATOM     14  C3  UNL     1      24.839   8.986  32.675  0.00  0.00    +0.014 C 
ENDBRANCH   6  13
ENDBRANCH   2   8
ENDBRANCH   1   4
BRANCH   1  15
ATOM     15  C9  UNL     1      18.728   8.845  37.509  0.00  0.00    +0.149 C 
BRANCH  15  16
ATOM     16  O2  UNL     1      19.857   9.589  37.886  0.00  0.00    -0.389 OA
ATOM     17  H13 UNL     1      19.567  10.204  38.610  0.00  0.00    +0.210 HD
ENDBRANCH  15  16
BRANCH  15  18
ATOM     18  C10 UNL     1      18.193   9.325  36.146  0.00  0.00    +0.137 C 
BRANCH  18  19
ATOM     19  N2  UNL     1      17.069  10.249  36.303  0.00  0.00    -0.306 N 
ATOM     20  C11 UNL     1      17.244  11.651  36.556  0.00  0.00    +0.285 C 
ATOM     21  O3  UNL     1      18.397  12.126  36.737  0.00  0.00    -0.267 OA
ATOM     22  H16 UNL     1      16.102   9.854  36.265  0.00  0.00    +0.149 HD
BRANCH  20  23
ATOM     23  C12 UNL     1      16.081  12.547  36.615  0.00  0.00    +0.259 A 
ATOM     24  N3  UNL     1      14.902  12.232  37.191  0.00  0.00    -0.103 NA
ATOM     25  N4  UNL     1      14.145  13.306  37.025  0.00  0.00    -0.046 NA
ATOM     26  N5  UNL     1      14.838  14.220  36.367  0.00  0.00    -0.166 N 
ATOM     27  C13 UNL     1      14.352  15.556  36.064  0.00  0.00    +0.199 C 
ATOM     28  N6  UNL     1      16.061  13.793  36.102  0.00  0.00    -0.126 NA
ENDBRANCH  20  23
ENDBRANCH  18  19
ENDBRANCH  15  18
ENDBRANCH   1  15
TORSDOF 8
ENDMDL
MODEL 4
REMARK VINA RESULT:    -5.468     14.301     15.493
REMARK INTER + INTRA:          -8.852
REMARK INTER:                  -7.807
REMARK INTRA:                  -1.045
REMARK UNBOUND:                -0.986
REMARK  Name = /home/qwerty/github/datacon2025hack/step_04_hit_selection/docking/ligands/lig_606.pdb
REMARK  11 active torsions:
REMARK  status: ('A' for Active; 'I' for Inactive)
REMARK    1  A    between atoms: C1_1  and  C2_2
REMARK    2  A    between atoms: C2_2  and  C3_3
REMARK    3  A    between atoms: C2_2  and  C4_4
REMARK    4  A    between atoms: C6_6  and  C7_7
REMARK    5  A    between atoms: N1_9  and  C8_10
REMARK    6  A    between atoms: C8_10  and  C9_11
REMARK    7  A    between atoms: C9_11  and  O2_12
REMARK    8  A    between atoms: C9_11  and  C10_13
REMARK    9  A    between atoms: C10_13  and  N2_14
REMARK   10  A    between atoms: C11_15  and  C12_17
REMARK   11  A    between atoms: N5_20  and  C13_21
REMARK                            x       y       z     vdW  Elec       q    Type
REMARK                         _______ _______ _______ _____ _____    ______ ____
ROOT
ATOM      1  C8  UNL     1      20.690   3.232  26.120  0.00  0.00    +0.137 C 
ENDROOT
BRANCH   1   4
ATOM      2  C7  UNL     1      18.949   1.395  26.343  0.00  0.00    +0.264 C 
ATOM      3  O1  UNL     1      19.212   1.266  27.569  0.00  0.00    -0.268 OA
ATOM      4  N1  UNL     1      19.624   2.398  25.566  0.00  0.00    -0.308 N 
ATOM      5  H9  UNL     1      19.313   2.593  24.589  0.00  0.00    +0.149 HD
BRANCH   2   8
ATOM      6  C4  UNL     1      16.229  -0.793  25.368  0.00  0.00    +0.039 A 
ATOM      7  C5  UNL     1      16.857  -0.075  26.369  0.00  0.00    +0.057 A 
ATOM      8  C6  UNL     1      17.941   0.508  25.735  0.00  0.00    +0.147 A 
ATOM      9  N7  UNL     1      17.952   0.157  24.433  0.00  0.00    -0.169 NA
ATOM     10  N8  UNL     1      16.912  -0.632  24.219  0.00  0.00    -0.281 N 
ATOM     11  H20 UNL     1      16.676  -1.052  23.293  0.00  0.00    +0.189 HD
BRANCH   6  13
ATOM     12  C1  UNL     1      15.259  -3.085  25.141  0.00  0.00    +0.014 C 
ATOM     13  C2  UNL     1      14.980  -1.623  25.503  0.00  0.00    +0.031 C 
ATOM     14  C3  UNL     1      14.405  -1.508  26.919  0.00  0.00    +0.014 C 
ENDBRANCH   6  13
ENDBRANCH   2   8
ENDBRANCH   1   4
BRANCH   1  15
ATOM     15  C9  UNL     1      22.035   2.489  26.077  0.00  0.00    +0.149 C 
BRANCH  15  16
ATOM     16  O2  UNL     1      22.802   2.972  25.006  0.00  0.00    -0.389 OA
ATOM     17  H13 UNL     1      22.833   3.960  25.097  0.00  0.00    +0.210 HD
ENDBRANCH  15  16
BRANCH  15  18
ATOM     18  C10 UNL     1      22.803   2.641  27.405  0.00  0.00    +0.137 C 
BRANCH  18  19
ATOM     19  N2  UNL     1      21.937   2.396  28.560  0.00  0.00    -0.306 N 
ATOM     20  C11 UNL     1      22.157   1.319  29.483  0.00  0.00    +0.285 C 
ATOM     21  O3  UNL     1      23.077   0.482  29.277  0.00  0.00    -0.267 OA
ATOM     22  H16 UNL     1      21.104   3.015  28.686  0.00  0.00    +0.149 HD
BRANCH  20  23
ATOM     23  C12 UNL     1      21.310   1.176  30.674  0.00  0.00    +0.259 A 
ATOM     24  N3  UNL     1      21.439   1.913  31.797  0.00  0.00    -0.103 NA
ATOM     25  N4  UNL     1      20.490   1.469  32.606  0.00  0.00    -0.046 NA
ATOM     26  N5  UNL     1      19.829   0.499  31.998  0.00  0.00    -0.166 N 
ATOM     27  C13 UNL     1      18.673  -0.181  32.558  0.00  0.00    +0.199 C 
ATOM     28  N6  UNL     1      20.300   0.291  30.780  0.00  0.00    -0.126 NA
ENDBRANCH  20  23
ENDBRANCH  18  19
ENDBRANCH  15  18
ENDBRANCH   1  15
TORSDOF 8
ENDMDL
MODEL 5
REMARK VINA RESULT:    -5.413      4.374      9.459
REMARK INTER + INTRA:          -8.773
REMARK INTER:                  -7.762
REMARK INTRA:                  -1.011
REMARK UNBOUND:                -0.986
REMARK  Name = /home/qwerty/github/datacon2025hack/step_04_hit_selection/docking/ligands/lig_606.pdb
REMARK  11 active torsions:
REMARK  status: ('A' for Active; 'I' for Inactive)
REMARK    1  A    between atoms: C1_1  and  C2_2
REMARK    2  A    between atoms: C2_2  and  C3_3
REMARK    3  A    between atoms: C2_2  and  C4_4
REMARK    4  A    between atoms: C6_6  and  C7_7
REMARK    5  A    between atoms: N1_9  and  C8_10
REMARK    6  A    between atoms: C8_10  and  C9_11
REMARK    7  A    between atoms: C9_11  and  O2_12
REMARK    8  A    between atoms: C9_11  and  C10_13
REMARK    9  A    between atoms: C10_13  and  N2_14
REMARK   10  A    between atoms: C11_15  and  C12_17
REMARK   11  A    between atoms: N5_20  and  C13_21
REMARK                            x       y       z     vdW  Elec       q    Type
REMARK                         _______ _______ _______ _____ _____    ______ ____
ROOT
ATOM      1  C8  UNL     1      12.466  13.066  29.925  0.00  0.00    +0.137 C 
ENDROOT
BRANCH   1   4
ATOM      2  C7  UNL     1      11.706  12.097  32.147  0.00  0.00    +0.264 C 
ATOM      3  O1  UNL     1      10.811  11.422  31.570  0.00  0.00    -0.268 OA
ATOM      4  N1  UNL     1      12.603  12.910  31.373  0.00  0.00    -0.308 N 
ATOM      5  H9  UNL     1      13.422  13.363  31.834  0.00  0.00    +0.149 HD
BRANCH   2   8
ATOM      6  C4  UNL     1      11.692  11.430  35.710  0.00  0.00    +0.039 A 
ATOM      7  C5  UNL     1      11.328  11.026  34.438  0.00  0.00    +0.057 A 
ATOM      8  C6  UNL     1      11.812  12.030  33.616  0.00  0.00    +0.147 A 
ATOM      9  N7  UNL     1      12.429  12.971  34.358  0.00  0.00    -0.169 NA
ATOM     10  N8  UNL     1      12.351  12.600  35.626  0.00  0.00    -0.281 N 
ATOM     11  H20 UNL     1      12.749  13.146  36.421  0.00  0.00    +0.189 HD
BRANCH   6  13
ATOM     12  C1  UNL     1      10.525  11.537  37.917  0.00  0.00    +0.014 C 
ATOM     13  C2  UNL     1      11.420  10.700  36.998  0.00  0.00    +0.031 C 
ATOM     14  C3  UNL     1      10.794   9.329  36.721  0.00  0.00    +0.014 C 
ENDBRANCH   6  13
ENDBRANCH   2   8
ENDBRANCH   1   4
BRANCH   1  15
ATOM     15  C9  UNL     1      11.650  14.326  29.592  0.00  0.00    +0.149 C 
BRANCH  15  16
ATOM     16  O2  UNL     1      12.520  15.354  29.197  0.00  0.00    -0.389 OA
ATOM     17  H13 UNL     1      12.095  16.210  29.467  0.00  0.00    +0.210 HD
ENDBRANCH  15  16
BRANCH  15  18
ATOM     18  C10 UNL     1      10.608  14.045  28.491  0.00  0.00    +0.137 C 
BRANCH  18  19
ATOM     19  N2  UNL     1      10.012  12.716  28.639  0.00  0.00    -0.306 N 
ATOM     20  C11 UNL     1       8.614  12.514  28.890  0.00  0.00    +0.285 C 
ATOM     21  O3  UNL     1       7.852  13.501  29.076  0.00  0.00    -0.267 OA
ATOM     22  H16 UNL     1      10.648  11.888  28.596  0.00  0.00    +0.149 HD
BRANCH  20  23
ATOM     23  C12 UNL     1       8.055  11.156  28.939  0.00  0.00    +0.259 A 
ATOM     24  N3  UNL     1       7.761  10.411  27.854  0.00  0.00    -0.103 NA
ATOM     25  N4  UNL     1       7.291   9.273  28.340  0.00  0.00    -0.046 NA
ATOM     26  N5  UNL     1       7.293   9.339  29.660  0.00  0.00    -0.166 N 
ATOM     27  C13 UNL     1       6.907   8.245  30.536  0.00  0.00    +0.199 C 
ATOM     28  N6  UNL     1       7.776  10.496  30.080  0.00  0.00    -0.126 NA
ENDBRANCH  20  23
ENDBRANCH  18  19
ENDBRANCH  15  18
ENDBRANCH   1  15
TORSDOF 8
ENDMDL
MODEL 6
REMARK VINA RESULT:    -5.365     15.074     15.705
REMARK INTER + INTRA:          -8.703
REMARK INTER:                  -7.810
REMARK INTRA:                  -0.893
REMARK UNBOUND:                -0.986
REMARK  Name = /home/qwerty/github/datacon2025hack/step_04_hit_selection/docking/ligands/lig_606.pdb
REMARK  11 active torsions:
REMARK  status: ('A' for Active; 'I' for Inactive)
REMARK    1  A    between atoms: C1_1  and  C2_2
REMARK    2  A    between atoms: C2_2  and  C3_3
REMARK    3  A    between atoms: C2_2  and  C4_4
REMARK    4  A    between atoms: C6_6  and  C7_7
REMARK    5  A    between atoms: N1_9  and  C8_10
REMARK    6  A    between atoms: C8_10  and  C9_11
REMARK    7  A    between atoms: C9_11  and  O2_12
REMARK    8  A    between atoms: C9_11  and  C10_13
REMARK    9  A    between atoms: C10_13  and  N2_14
REMARK   10  A    between atoms: C11_15  and  C12_17
REMARK   11  A    between atoms: N5_20  and  C13_21
REMARK                            x       y       z     vdW  Elec       q    Type
REMARK                         _______ _______ _______ _____ _____    ______ ____
ROOT
ATOM      1  C8  UNL     1      20.177   0.223  31.348  0.00  0.00    +0.137 C 
ENDROOT
BRANCH   1   4
ATOM      2  C7  UNL     1      21.502   0.610  29.216  0.00  0.00    +0.264 C 
ATOM      3  O1  UNL     1      22.185  -0.429  29.427  0.00  0.00    -0.268 OA
ATOM      4  N1  UNL     1      20.445   0.970  30.119  0.00  0.00    -0.308 N 
ATOM      5  H9  UNL     1      19.797   1.751  29.876  0.00  0.00    +0.149 HD
BRANCH   2   8
ATOM      6  C4  UNL     1      21.758   2.432  26.093  0.00  0.00    +0.039 A 
ATOM      7  C5  UNL     1      21.050   1.540  26.876  0.00  0.00    +0.057 A 
ATOM      8  C6  UNL     1      21.807   1.433  28.031  0.00  0.00    +0.147 A 
ATOM      9  N7  UNL     1      22.898   2.219  27.937  0.00  0.00    -0.169 NA
ATOM     10  N8  UNL     1      22.861   2.820  26.759  0.00  0.00    -0.281 N 
ATOM     11  H20 UNL     1      23.587   3.490  26.420  0.00  0.00    +0.189 HD
BRANCH   6  13
ATOM     12  C1  UNL     1      19.898   2.659  24.439  0.00  0.00    +0.014 C 
ATOM     13  C2  UNL     1      21.382   2.919  24.718  0.00  0.00    +0.031 C 
ATOM     14  C3  UNL     1      21.718   4.406  24.562  0.00  0.00    +0.014 C 
ENDBRANCH   6  13
ENDBRANCH   2   8
ENDBRANCH   1   4
BRANCH   1  15
ATOM     15  C9  UNL     1      19.717   1.171  32.467  0.00  0.00    +0.149 C 
BRANCH  15  16
ATOM     16  O2  UNL     1      20.639   1.128  33.525  0.00  0.00    -0.389 OA
ATOM     17  H13 UNL     1      20.112   1.143  34.366  0.00  0.00    +0.210 HD
ENDBRANCH  15  16
BRANCH  15  18
ATOM     18  C10 UNL     1      19.555   2.614  31.950  0.00  0.00    +0.137 C 
BRANCH  18  19
ATOM     19  N2  UNL     1      20.373   3.557  32.715  0.00  0.00    -0.306 N 
ATOM     20  C11 UNL     1      21.776   3.739  32.478  0.00  0.00    +0.285 C 
ATOM     21  O3  UNL     1      22.380   3.017  31.640  0.00  0.00    -0.267 OA
ATOM     22  H16 UNL     1      19.912   4.087  33.489  0.00  0.00    +0.149 HD
BRANCH  20  23
ATOM     23  C12 UNL     1      22.528   4.764  33.215  0.00  0.00    +0.259 A 
ATOM     24  N3  UNL     1      23.526   5.505  32.690  0.00  0.00    -0.103 NA
ATOM     25  N4  UNL     1      23.919   6.294  33.678  0.00  0.00    -0.046 NA
ATOM     26  N5  UNL     1      23.195   6.028  34.751  0.00  0.00    -0.166 N 
ATOM     27  C13 UNL     1      23.301   6.748  36.011  0.00  0.00    +0.199 C 
ATOM     28  N6  UNL     1      22.302   5.086  34.504  0.00  0.00    -0.126 NA
ENDBRANCH  20  23
ENDBRANCH  18  19
ENDBRANCH  15  18
ENDBRANCH   1  15
TORSDOF 8
ENDMDL
MODEL 7
REMARK VINA RESULT:    -5.331      1.627      6.475
REMARK INTER + INTRA:          -8.655
REMARK INTER:                  -7.556
REMARK INTRA:                  -1.099
REMARK UNBOUND:                -0.986
REMARK  Name = /home/qwerty/github/datacon2025hack/step_04_hit_selection/docking/ligands/lig_606.pdb
REMARK  11 active torsions:
REMARK  status: ('A' for Active; 'I' for Inactive)
REMARK    1  A    between atoms: C1_1  and  C2_2
REMARK    2  A    between atoms: C2_2  and  C3_3
REMARK    3  A    between atoms: C2_2  and  C4_4
REMARK    4  A    between atoms: C6_6  and  C7_7
REMARK    5  A    between atoms: N1_9  and  C8_10
REMARK    6  A    between atoms: C8_10  and  C9_11
REMARK    7  A    between atoms: C9_11  and  O2_12
REMARK    8  A    between atoms: C9_11  and  C10_13
REMARK    9  A    between atoms: C10_13  and  N2_14
REMARK   10  A    between atoms: C11_15  and  C12_17
REMARK   11  A    between atoms: N5_20  and  C13_21
REMARK                            x       y       z     vdW  Elec       q    Type
REMARK                         _______ _______ _______ _____ _____    ______ ____
ROOT
ATOM      1  C8  UNL     1       7.361   9.187  28.966  0.00  0.00    +0.137 C 
ENDROOT
BRANCH   1   4
ATOM      2  C7  UNL     1       8.976  11.134  29.197  0.00  0.00    +0.264 C 
ATOM      3  O1  UNL     1       9.364  10.706  30.318  0.00  0.00    -0.268 OA
ATOM      4  N1  UNL     1       8.004  10.392  28.443  0.00  0.00    -0.308 N 
ATOM      5  H9  UNL     1       7.782  10.674  27.463  0.00  0.00    +0.149 HD
BRANCH   2   8
ATOM      6  C4  UNL     1      10.834  14.093  28.230  0.00  0.00    +0.039 A 
ATOM      7  C5  UNL     1      10.795  12.916  28.954  0.00  0.00    +0.057 A 
ATOM      8  C6  UNL     1       9.540  12.395  28.683  0.00  0.00    +0.147 A 
ATOM      9  N7  UNL     1       8.878  13.216  27.843  0.00  0.00    -0.169 NA
ATOM     10  N8  UNL     1       9.668  14.242  27.575  0.00  0.00    -0.281 N 
ATOM     11  H20 UNL     1       9.407  15.034  26.946  0.00  0.00    +0.189 HD
BRANCH   6  13
ATOM     12  C1  UNL     1      12.939  14.865  29.332  0.00  0.00    +0.014 C 
ATOM     13  C2  UNL     1      11.980  15.067  28.155  0.00  0.00    +0.031 C 
ATOM     14  C3  UNL     1      12.716  14.933  26.818  0.00  0.00    +0.014 C 
ENDBRANCH   6  13
ENDBRANCH   2   8
ENDBRANCH   1   4
BRANCH   1  15
ATOM     15  C9  UNL     1       7.352   8.075  27.904  0.00  0.00    +0.149 C 
BRANCH  15  16
ATOM     16  O2  UNL     1       6.262   8.263  27.041  0.00  0.00    -0.389 OA
ATOM     17  H13 UNL     1       5.512   8.606  27.594  0.00  0.00    +0.210 HD
ENDBRANCH  15  16
BRANCH  15  18
ATOM     18  C10 UNL     1       8.673   8.045  27.111  0.00  0.00    +0.137 C 
BRANCH  18  19
ATOM     19  N2  UNL     1       8.468   8.409  25.708  0.00  0.00    -0.306 N 
ATOM     20  C11 UNL     1       9.042   9.584  25.116  0.00  0.00    +0.285 C 
ATOM     21  O3  UNL     1       9.687  10.402  25.824  0.00  0.00    -0.267 OA
ATOM     22  H16 UNL     1       7.844   7.799  25.132  0.00  0.00    +0.149 HD
BRANCH  20  23
ATOM     23  C12 UNL     1       8.876   9.850  23.681  0.00  0.00    +0.259 A 
ATOM     24  N3  UNL     1       7.713  10.206  23.099  0.00  0.00    -0.103 NA
ATOM     25  N4  UNL     1       8.004  10.348  21.815  0.00  0.00    -0.046 NA
ATOM     26  N5  UNL     1       9.285  10.076  21.636  0.00  0.00    -0.166 N 
ATOM     27  C13 UNL     1       9.977  10.193  20.361  0.00  0.00    +0.199 C 
ATOM     28  N6  UNL     1       9.874   9.773  22.779  0.00  0.00    -0.126 NA
ENDBRANCH  20  23
ENDBRANCH  18  19
ENDBRANCH  15  18
ENDBRANCH   1  15
TORSDOF 8
ENDMDL
MODEL 8
REMARK VINA RESULT:    -5.325      4.240      9.112
REMARK INTER + INTRA:          -8.646
REMARK INTER:                  -7.615
REMARK INTRA:                  -1.032
REMARK UNBOUND:                -0.986
REMARK  Name = /home/qwerty/github/datacon2025hack/step_04_hit_selection/docking/ligands/lig_606.pdb
REMARK  11 active torsions:
REMARK  status: ('A' for Active; 'I' for Inactive)
REMARK    1  A    between atoms: C1_1  and  C2_2
REMARK    2  A    between atoms: C2_2  and  C3_3
REMARK    3  A    between atoms: C2_2  and  C4_4
REMARK    4  A    between atoms: C6_6  and  C7_7
REMARK    5  A    between atoms: N1_9  and  C8_10
REMARK    6  A    between atoms: C8_10  and  C9_11
REMARK    7  A    between atoms: C9_11  and  O2_12
REMARK    8  A    between atoms: C9_11  and  C10_13
REMARK    9  A    between atoms: C10_13  and  N2_14
REMARK   10  A    between atoms: C11_15  and  C12_17
REMARK   11  A    between atoms: N5_20  and  C13_21
REMARK                            x       y       z     vdW  Elec       q    Type
REMARK                         _______ _______ _______ _____ _____    ______ ____
ROOT
ATOM      1  C8  UNL     1      13.860  13.889  28.654  0.00  0.00    +0.137 C 
ENDROOT
BRANCH   1   4
ATOM      2  C7  UNL     1      13.203  13.328  31.043  0.00  0.00    +0.264 C 
ATOM      3  O1  UNL     1      13.761  12.201  30.954  0.00  0.00    -0.268 OA
ATOM      4  N1  UNL     1      13.256  14.244  29.938  0.00  0.00    -0.308 N 
ATOM      5  H9  UNL     1      12.911  15.222  30.058  0.00  0.00    +0.149 HD
BRANCH   2   8
ATOM      6  C4  UNL     1      11.428  13.629  34.189  0.00  0.00    +0.039 A 
ATOM      7  C5  UNL     1      11.927  12.805  33.197  0.00  0.00    +0.057 A 
ATOM      8  C6  UNL     1      12.509  13.680  32.295  0.00  0.00    +0.147 A 
ATOM      9  N7  UNL     1      12.365  14.948  32.731  0.00  0.00    -0.169 NA
ATOM     10  N8  UNL     1      11.708  14.908  33.878  0.00  0.00    -0.281 N 
ATOM     11  H20 UNL     1      11.459  15.751  34.440  0.00  0.00    +0.189 HD
BRANCH   6  13
ATOM     12  C1  UNL     1      11.676  12.676  36.486  0.00  0.00    +0.014 C 
ATOM     13  C2  UNL     1      10.695  13.199  35.432  0.00  0.00    +0.031 C 
ATOM     14  C3  UNL     1       9.853  14.352  35.989  0.00  0.00    +0.014 C 
ENDBRANCH   6  13
ENDBRANCH   2   8
ENDBRANCH   1   4
BRANCH   1  15
ATOM     15  C9  UNL     1      13.207  14.682  27.511  0.00  0.00    +0.149 C 
BRANCH  15  16
ATOM     16  O2  UNL     1      13.310  13.952  26.318  0.00  0.00    -0.389 OA
ATOM     17  H13 UNL     1      14.092  14.315  25.825  0.00  0.00    +0.210 HD
ENDBRANCH  15  16
BRANCH  15  18
ATOM     18  C10 UNL     1      11.732  15.004  27.823  0.00  0.00    +0.137 C 
BRANCH  18  19
ATOM     19  N2  UNL     1      10.876  13.828  27.659  0.00  0.00    -0.306 N 
ATOM     20  C11 UNL     1      10.006  13.348  28.694  0.00  0.00    +0.285 C 
ATOM     21  O3  UNL     1      10.013  13.889  29.832  0.00  0.00    -0.267 OA
ATOM     22  H16 UNL     1      10.939  13.300  26.758  0.00  0.00    +0.149 HD
BRANCH  20  23
ATOM     23  C12 UNL     1       9.103  12.216  28.441  0.00  0.00    +0.259 A 
ATOM     24  N3  UNL     1       8.659  11.851  27.221  0.00  0.00    -0.103 NA
ATOM     25  N4  UNL     1       7.885  10.800  27.442  0.00  0.00    -0.046 NA
ATOM     26  N5  UNL     1       7.858  10.555  28.741  0.00  0.00    -0.166 N 
ATOM     27  C13 UNL     1       7.162   9.432  29.348  0.00  0.00    +0.199 C 
ATOM     28  N6  UNL     1       8.617  11.409  29.404  0.00  0.00    -0.126 NA
ENDBRANCH  20  23
ENDBRANCH  18  19
ENDBRANCH  15  18
ENDBRANCH   1  15
TORSDOF 8
ENDMDL
MODEL 9
REMARK VINA RESULT:    -5.317      9.689     12.992
REMARK INTER + INTRA:          -8.634
REMARK INTER:                  -7.587
REMARK INTRA:                  -1.047
REMARK UNBOUND:                -0.986
REMARK  Name = /home/qwerty/github/datacon2025hack/step_04_hit_selection/docking/ligands/lig_606.pdb
REMARK  11 active torsions:
REMARK  status: ('A' for Active; 'I' for Inactive)
REMARK    1  A    between atoms: C1_1  and  C2_2
REMARK    2  A    between atoms: C2_2  and  C3_3
REMARK    3  A    between atoms: C2_2  and  C4_4
REMARK    4  A    between atoms: C6_6  and  C7_7
REMARK    5  A    between atoms: N1_9  and  C8_10
REMARK    6  A    between atoms: C8_10  and  C9_11
REMARK    7  A    between atoms: C9_11  and  O2_12
REMARK    8  A    between atoms: C9_11  and  C10_13
REMARK    9  A    between atoms: C10_13  and  N2_14
REMARK   10  A    between atoms: C11_15  and  C12_17
REMARK   11  A    between atoms: N5_20  and  C13_21
REMARK                            x       y       z     vdW  Elec       q    Type
REMARK                         _______ _______ _______ _____ _____    ______ ____
ROOT
ATOM      1  C8  UNL     1      15.371   3.400  20.197  0.00  0.00    +0.137 C 
ENDROOT
BRANCH   1   4
ATOM      2  C7  UNL     1      15.789   1.076  21.134  0.00  0.00    +0.264 C 
ATOM      3  O1  UNL     1      16.494   0.776  20.132  0.00  0.00    -0.268 OA
ATOM      4  N1  UNL     1      15.232   2.395  21.250  0.00  0.00    -0.308 N 
ATOM      5  H9  UNL     1      14.762   2.683  22.137  0.00  0.00    +0.149 HD
BRANCH   2   8
ATOM      6  C4  UNL     1      14.982  -1.009  23.986  0.00  0.00    +0.039 A 
ATOM      7  C5  UNL     1      14.972   0.248  23.412  0.00  0.00    +0.057 A 
ATOM      8  C6  UNL     1      15.557   0.055  22.171  0.00  0.00    +0.147 A 
ATOM      9  N7  UNL     1      15.890  -1.243  22.021  0.00  0.00    -0.169 NA
ATOM     10  N8  UNL     1      15.540  -1.880  23.125  0.00  0.00    -0.281 N 
ATOM     11  H20 UNL     1      15.681  -2.903  23.282  0.00  0.00    +0.189 HD
BRANCH   6  13
ATOM     12  C1  UNL     1      14.284  -2.899  25.465  0.00  0.00    +0.014 C 
ATOM     13  C2  UNL     1      14.455  -1.381  25.347  0.00  0.00    +0.031 C 
ATOM     14  C3  UNL     1      15.377  -0.846  26.448  0.00  0.00    +0.014 C 
ENDBRANCH   6  13
ENDBRANCH   2   8
ENDBRANCH   1   4
BRANCH   1  15
ATOM     15  C9  UNL     1      14.207   4.403  20.249  0.00  0.00    +0.149 C 
BRANCH  15  16
ATOM     16  O2  UNL     1      14.647   5.653  19.790  0.00  0.00    -0.389 OA
ATOM     17  H13 UNL     1      14.166   5.833  18.940  0.00  0.00    +0.210 HD
ENDBRANCH  15  16
BRANCH  15  18
ATOM     18  C10 UNL     1      13.005   3.912  19.419  0.00  0.00    +0.137 C 
BRANCH  18  19
ATOM     19  N2  UNL     1      11.777   3.881  20.214  0.00  0.00    -0.306 N 
ATOM     20  C11 UNL     1      11.493   2.846  21.168  0.00  0.00    +0.285 C 
ATOM     21  O3  UNL     1      12.275   1.865  21.293  0.00  0.00    -0.267 OA
ATOM     22  H16 UNL     1      11.065   4.628  20.044  0.00  0.00    +0.149 HD
BRANCH  20  23
ATOM     23  C12 UNL     1      10.286   2.914  22.002  0.00  0.00    +0.259 A 
ATOM     24  N3  UNL     1      10.026   2.089  23.037  0.00  0.00    -0.103 NA
ATOM     25  N4  UNL     1       8.856   2.492  23.507  0.00  0.00    -0.046 NA
ATOM     26  N5  UNL     1       8.429   3.508  22.777  0.00  0.00    -0.166 N 
ATOM     27  C13 UNL     1       7.209   4.253  23.042  0.00  0.00    +0.199 C 
ATOM     28  N6  UNL     1       9.300   3.816  21.831  0.00  0.00    -0.126 NA
ENDBRANCH  20  23
ENDBRANCH  18  19
ENDBRANCH  15  18
ENDBRANCH   1  15
TORSDOF 8
ENDMDL
