MODEL 1
REMARK VINA RESULT:    -6.047      0.000      0.000
REMARK INTER + INTRA:          -8.129
REMARK INTER:                  -7.108
REMARK INTRA:                  -1.022
REMARK UNBOUND:                -1.022
REMARK  Name = /home/qwerty/github/datacon2025hack/step_04_hit_selection/docking/ligands/lig_490.pdb
REMARK  4 active torsions:
REMARK  status: ('A' for Active; 'I' for Inactive)
REMARK    1  A    between atoms: C1_1  and  C2_2
REMARK    2  A    between atoms: C3_3  and  N1_4
REMARK    3  A    between atoms: C8_11  and  C9_12
REMARK    4  A    between atoms: C16_20  and  C17_21
REMARK                            x       y       z     vdW  Elec       q    Type
REMARK                         _______ _______ _______ _____ _____    ______ ____
ROOT
ATOM      1  N1  UNL     1       9.723  12.114  29.652  0.00  0.00    -0.269 N 
ATOM      2  C4  UNL     1      10.653  11.809  30.706  0.00  0.00    +0.307 C 
ATOM      3  O1  UNL     1      10.754  10.626  31.133  0.00  0.00    -0.252 OA
ATOM      4  N2  UNL     1      11.490  12.835  31.274  0.00  0.00    -0.278 N 
ATOM      5  C5  UNL     1      12.215  12.644  32.518  0.00  0.00    +0.110 C 
ATOM      6  C6  UNL     1      12.705  14.026  32.928  0.00  0.00    +0.021 C 
ATOM      7  C7  UNL     1      12.633  14.887  31.671  0.00  0.00    +0.029 C 
ATOM      8  C8  UNL     1      11.648  14.181  30.735  0.00  0.00    +0.114 C 
ATOM      9  H4  UNL     1       9.664  13.088  29.284  0.00  0.00    +0.156 HD
ENDROOT
BRANCH   1  12
ATOM     10  C1  UNL     1      10.277  11.363  26.898  0.00  0.00    +0.046 C 
ATOM     11  C2  UNL     1       9.100  10.783  27.652  0.00  0.00    -0.017 A 
ATOM     12  C3  UNL     1       8.906  11.117  29.017  0.00  0.00    +0.038 A 
ATOM     13  C13 UNL     1       7.865  10.517  29.740  0.00  0.00    +0.023 A 
ATOM     14  C14 UNL     1       7.020   9.596  29.130  0.00  0.00    +0.003 A 
ATOM     15  C15 UNL     1       7.178   9.287  27.782  0.00  0.00    +0.013 A 
ATOM     16  C16 UNL     1       8.193   9.888  27.019  0.00  0.00    +0.042 A 
BRANCH  16  17
ATOM     17  C17 UNL     1       8.258   9.572  25.568  0.00  0.00    +0.227 A 
ATOM     18  N3  UNL     1       8.881   8.481  25.071  0.00  0.00    -0.217 NA
ATOM     19  C18 UNL     1       8.678   8.577  23.744  0.00  0.00    +0.152 A 
ATOM     20  C19 UNL     1       7.942   9.709  23.482  0.00  0.00    +0.217 A 
ATOM     21  O2  UNL     1       7.698  10.297  24.625  0.00  0.00    -0.444 OA
ENDBRANCH  16  17
ENDBRANCH   1  12
BRANCH   8  22
ATOM     22  C9  UNL     1      12.169  14.146  29.323  0.00  0.00    +0.010 A 
ATOM     23  C10 UNL     1      11.650  14.862  28.251  0.00  0.00    +0.013 A 
ATOM     24  C11 UNL     1      12.359  14.666  27.060  0.00  0.00    +0.008 A 
ATOM     25  C12 UNL     1      13.444  13.808  27.191  0.00  0.00    +0.045 A 
ATOM     26  S1  UNL     1      13.522  13.294  28.790  0.00  0.00    -0.100 S 
ENDBRANCH   8  22
TORSDOF 3
ENDMDL
MODEL 2
REMARK VINA RESULT:    -6.024     13.514     14.764
REMARK INTER + INTRA:          -8.102
REMARK INTER:                  -7.094
REMARK INTRA:                  -1.008
REMARK UNBOUND:                -1.022
REMARK  Name = /home/qwerty/github/datacon2025hack/step_04_hit_selection/docking/ligands/lig_490.pdb
REMARK  4 active torsions:
REMARK  status: ('A' for Active; 'I' for Inactive)
REMARK    1  A    between atoms: C1_1  and  C2_2
REMARK    2  A    between atoms: C3_3  and  N1_4
REMARK    3  A    between atoms: C8_11  and  C9_12
REMARK    4  A    between atoms: C16_20  and  C17_21
REMARK                            x       y       z     vdW  Elec       q    Type
REMARK                         _______ _______ _______ _____ _____    ______ ____
ROOT
ATOM      1  N1  UNL     1      22.625   4.957  32.577  0.00  0.00    -0.269 N 
ATOM      2  C4  UNL     1      22.425   6.152  31.802  0.00  0.00    +0.307 C 
ATOM      3  O1  UNL     1      21.512   6.192  30.934  0.00  0.00    -0.252 OA
ATOM      4  N2  UNL     1      23.244   7.318  32.016  0.00  0.00    -0.278 N 
ATOM      5  C5  UNL     1      23.280   8.423  31.074  0.00  0.00    +0.110 C 
ATOM      6  C6  UNL     1      24.469   9.280  31.486  0.00  0.00    +0.021 C 
ATOM      7  C7  UNL     1      24.796   8.881  32.922  0.00  0.00    +0.029 C 
ATOM      8  C8  UNL     1      24.174   7.497  33.124  0.00  0.00    +0.114 C 
ATOM      9  H4  UNL     1      23.364   4.939  33.313  0.00  0.00    +0.156 HD
ENDROOT
BRANCH   1  12
ATOM     10  C1  UNL     1      20.226   4.708  34.201  0.00  0.00    +0.046 C 
ATOM     11  C2  UNL     1      20.666   3.600  33.271  0.00  0.00    -0.017 A 
ATOM     12  C3  UNL     1      21.801   3.788  32.440  0.00  0.00    +0.038 A 
ATOM     13  C13 UNL     1      22.162   2.795  31.518  0.00  0.00    +0.023 A 
ATOM     14  C14 UNL     1      21.417   1.625  31.410  0.00  0.00    +0.003 A 
ATOM     15  C15 UNL     1      20.323   1.413  32.245  0.00  0.00    +0.013 A 
ATOM     16  C16 UNL     1      19.946   2.374  33.198  0.00  0.00    +0.042 A 
BRANCH  16  17
ATOM     17  C17 UNL     1      18.817   2.051  34.108  0.00  0.00    +0.227 A 
ATOM     18  N3  UNL     1      17.543   1.894  33.686  0.00  0.00    -0.217 NA
ATOM     19  C18 UNL     1      16.871   1.596  34.813  0.00  0.00    +0.152 A 
ATOM     20  C19 UNL     1      17.750   1.577  35.871  0.00  0.00    +0.217 A 
ATOM     21  O2  UNL     1      18.939   1.858  35.403  0.00  0.00    -0.444 OA
ENDBRANCH  16  17
ENDBRANCH   1  12
BRANCH   8  22
ATOM     22  C9  UNL     1      23.467   7.407  34.451  0.00  0.00    +0.010 A 
ATOM     23  C10 UNL     1      23.792   6.535  35.483  0.00  0.00    +0.013 A 
ATOM     24  C11 UNL     1      22.987   6.699  36.617  0.00  0.00    +0.008 A 
ATOM     25  C12 UNL     1      22.038   7.705  36.489  0.00  0.00    +0.045 A 
ATOM     26  S1  UNL     1      22.200   8.393  34.962  0.00  0.00    -0.100 S 
ENDBRANCH   8  22
TORSDOF 3
ENDMDL
MODEL 3
REMARK VINA RESULT:    -5.992     13.450     15.322
REMARK INTER + INTRA:          -8.064
REMARK INTER:                  -7.121
REMARK INTRA:                  -0.944
REMARK UNBOUND:                -1.022
REMARK  Name = /home/qwerty/github/datacon2025hack/step_04_hit_selection/docking/ligands/lig_490.pdb
REMARK  4 active torsions:
REMARK  status: ('A' for Active; 'I' for Inactive)
REMARK    1  A    between atoms: C1_1  and  C2_2
REMARK    2  A    between atoms: C3_3  and  N1_4
REMARK    3  A    between atoms: C8_11  and  C9_12
REMARK    4  A    between atoms: C16_20  and  C17_21
REMARK                            x       y       z     vdW  Elec       q    Type
REMARK                         _______ _______ _______ _____ _____    ______ ____
ROOT
ATOM      1  N1  UNL     1      18.236  -0.025  25.419  0.00  0.00    -0.269 N 
ATOM      2  C4  UNL     1      16.990   0.081  26.130  0.00  0.00    +0.307 C 
ATOM      3  O1  UNL     1      16.785   1.062  26.895  0.00  0.00    -0.252 OA
ATOM      4  N2  UNL     1      15.959  -0.912  25.968  0.00  0.00    -0.278 N 
ATOM      5  C5  UNL     1      14.826  -1.008  26.872  0.00  0.00    +0.110 C 
ATOM      6  C6  UNL     1      14.160  -2.341  26.560  0.00  0.00    +0.021 C 
ATOM      7  C7  UNL     1      14.666  -2.751  25.181  0.00  0.00    +0.029 C 
ATOM      8  C8  UNL     1      15.960  -1.964  24.958  0.00  0.00    +0.114 C 
ATOM      9  H4  UNL     1      18.389  -0.824  24.766  0.00  0.00    +0.156 HD
ENDROOT
BRANCH   1  12
ATOM     10  C1  UNL     1      18.203   2.234  23.590  0.00  0.00    +0.046 C 
ATOM     11  C2  UNL     1      19.330   2.038  24.579  0.00  0.00    -0.017 A 
ATOM     12  C3  UNL     1      19.274   0.965  25.505  0.00  0.00    +0.038 A 
ATOM     13  C13 UNL     1      20.276   0.829  26.477  0.00  0.00    +0.023 A 
ATOM     14  C14 UNL     1      21.326   1.739  26.541  0.00  0.00    +0.003 A 
ATOM     15  C15 UNL     1      21.412   2.775  25.616  0.00  0.00    +0.013 A 
ATOM     16  C16 UNL     1      20.440   2.928  24.612  0.00  0.00    +0.042 A 
BRANCH  16  17
ATOM     17  C17 UNL     1      20.634   4.008  23.610  0.00  0.00    +0.227 A 
ATOM     18  N3  UNL     1      20.738   5.315  23.936  0.00  0.00    -0.217 NA
ATOM     19  C18 UNL     1      20.921   5.924  22.750  0.00  0.00    +0.152 A 
ATOM     20  C19 UNL     1      20.927   4.976  21.754  0.00  0.00    +0.217 A 
ATOM     21  O2  UNL     1      20.751   3.808  22.316  0.00  0.00    -0.444 OA
ENDBRANCH  16  17
ENDBRANCH   1  12
BRANCH   8  22
ATOM     22  C9  UNL     1      16.013  -1.387  23.568  0.00  0.00    +0.010 A 
ATOM     23  C10 UNL     1      16.965  -1.691  22.603  0.00  0.00    +0.013 A 
ATOM     24  C11 UNL     1      16.746  -1.034  21.386  0.00  0.00    +0.008 A 
ATOM     25  C12 UNL     1      15.618  -0.224  21.383  0.00  0.00    +0.045 A 
ATOM     26  S1  UNL     1      14.891  -0.326  22.896  0.00  0.00    -0.100 S 
ENDBRANCH   8  22
TORSDOF 3
ENDMDL
MODEL 4
REMARK VINA RESULT:    -5.884     13.205     15.437
REMARK INTER + INTRA:          -7.938
REMARK INTER:                  -6.866
REMARK INTRA:                  -1.072
REMARK UNBOUND:                -1.022
REMARK  Name = /home/qwerty/github/datacon2025hack/step_04_hit_selection/docking/ligands/lig_490.pdb
REMARK  4 active torsions:
REMARK  status: ('A' for Active; 'I' for Inactive)
REMARK    1  A    between atoms: C1_1  and  C2_2
REMARK    2  A    between atoms: C3_3  and  N1_4
REMARK    3  A    between atoms: C8_11  and  C9_12
REMARK    4  A    between atoms: C16_20  and  C17_21
REMARK                            x       y       z     vdW  Elec       q    Type
REMARK                         _______ _______ _______ _____ _____    ______ ____
ROOT
ATOM      1  N1  UNL     1      20.549   1.490  28.746  0.00  0.00    -0.269 N 
ATOM      2  C4  UNL     1      19.293   1.392  28.053  0.00  0.00    +0.307 C 
ATOM      3  O1  UNL     1      18.212   1.490  28.695  0.00  0.00    -0.252 OA
ATOM      4  N2  UNL     1      19.249   1.201  26.626  0.00  0.00    -0.278 N 
ATOM      5  C5  UNL     1      18.035   0.804  25.934  0.00  0.00    +0.110 C 
ATOM      6  C6  UNL     1      18.469   0.408  24.530  0.00  0.00    +0.021 C 
ATOM      7  C7  UNL     1      19.850   1.025  24.328  0.00  0.00    +0.029 C 
ATOM      8  C8  UNL     1      20.397   1.298  25.732  0.00  0.00    +0.114 C 
ATOM      9  H4  UNL     1      21.440   1.436  28.207  0.00  0.00    +0.156 HD
ENDROOT
BRANCH   1  12
ATOM     10  C1  UNL     1      21.356   4.121  29.685  0.00  0.00    +0.046 C 
ATOM     11  C2  UNL     1      21.111   2.982  30.649  0.00  0.00    -0.017 A 
ATOM     12  C3  UNL     1      20.647   1.734  30.159  0.00  0.00    +0.038 A 
ATOM     13  C13 UNL     1      20.340   0.703  31.059  0.00  0.00    +0.023 A 
ATOM     14  C14 UNL     1      20.486   0.893  32.429  0.00  0.00    +0.003 A 
ATOM     15  C15 UNL     1      20.975   2.100  32.920  0.00  0.00    +0.013 A 
ATOM     16  C16 UNL     1      21.317   3.147  32.047  0.00  0.00    +0.042 A 
BRANCH  16  17
ATOM     17  C17 UNL     1      21.905   4.381  32.632  0.00  0.00    +0.227 A 
ATOM     18  N3  UNL     1      21.163   5.387  33.145  0.00  0.00    -0.217 NA
ATOM     19  C18 UNL     1      22.083   6.271  33.573  0.00  0.00    +0.152 A 
ATOM     20  C19 UNL     1      23.340   5.776  33.314  0.00  0.00    +0.217 A 
ATOM     21  O2  UNL     1      23.195   4.610  32.737  0.00  0.00    -0.444 OA
ENDBRANCH  16  17
ENDBRANCH   1  12
BRANCH   8  22
ATOM     22  C9  UNL     1      21.038   2.658  25.811  0.00  0.00    +0.010 A 
ATOM     23  C10 UNL     1      22.397   2.904  25.962  0.00  0.00    +0.013 A 
ATOM     24  C11 UNL     1      22.714   4.268  25.966  0.00  0.00    +0.008 A 
ATOM     25  C12 UNL     1      21.612   5.098  25.806  0.00  0.00    +0.045 A 
ATOM     26  S1  UNL     1      20.242   4.135  25.658  0.00  0.00    -0.100 S 
ENDBRANCH   8  22
TORSDOF 3
ENDMDL
MODEL 5
REMARK VINA RESULT:    -5.841     13.382     14.476
REMARK INTER + INTRA:          -7.887
REMARK INTER:                  -6.804
REMARK INTRA:                  -1.083
REMARK UNBOUND:                -1.022
REMARK  Name = /home/qwerty/github/datacon2025hack/step_04_hit_selection/docking/ligands/lig_490.pdb
REMARK  4 active torsions:
REMARK  status: ('A' for Active; 'I' for Inactive)
REMARK    1  A    between atoms: C1_1  and  C2_2
REMARK    2  A    between atoms: C3_3  and  N1_4
REMARK    3  A    between atoms: C8_11  and  C9_12
REMARK    4  A    between atoms: C16_20  and  C17_21
REMARK                            x       y       z     vdW  Elec       q    Type
REMARK                         _______ _______ _______ _____ _____    ______ ____
ROOT
ATOM      1  N1  UNL     1      21.576   2.675  29.378  0.00  0.00    -0.269 N 
ATOM      2  C4  UNL     1      21.421   3.907  30.104  0.00  0.00    +0.307 C 
ATOM      3  O1  UNL     1      21.150   4.971  29.484  0.00  0.00    -0.252 OA
ATOM      4  N2  UNL     1      21.554   3.942  31.538  0.00  0.00    -0.278 N 
ATOM      5  C5  UNL     1      21.701   5.187  32.272  0.00  0.00    +0.110 C 
ATOM      6  C6  UNL     1      22.123   4.789  33.680  0.00  0.00    +0.021 C 
ATOM      7  C7  UNL     1      21.761   3.315  33.827  0.00  0.00    +0.029 C 
ATOM      8  C8  UNL     1      21.638   2.770  32.401  0.00  0.00    +0.114 C 
ATOM      9  H4  UNL     1      21.773   1.793  29.899  0.00  0.00    +0.156 HD
ENDROOT
BRANCH   1  12
ATOM     10  C1  UNL     1      19.141   1.487  28.323  0.00  0.00    +0.046 C 
ATOM     11  C2  UNL     1      20.260   1.935  27.409  0.00  0.00    -0.017 A 
ATOM     12  C3  UNL     1      21.401   2.577  27.955  0.00  0.00    +0.038 A 
ATOM     13  C13 UNL     1      22.401   3.066  27.103  0.00  0.00    +0.023 A 
ATOM     14  C14 UNL     1      22.285   2.927  25.724  0.00  0.00    +0.003 A 
ATOM     15  C15 UNL     1      21.188   2.267  25.177  0.00  0.00    +0.013 A 
ATOM     16  C16 UNL     1      20.179   1.741  26.001  0.00  0.00    +0.042 A 
BRANCH  16  17
ATOM     17  C17 UNL     1      19.076   0.982  25.357  0.00  0.00    +0.227 A 
ATOM     18  N3  UNL     1      17.961   1.564  24.862  0.00  0.00    -0.217 NA
ATOM     19  C18 UNL     1      17.258   0.530  24.364  0.00  0.00    +0.152 A 
ATOM     20  C19 UNL     1      17.963  -0.634  24.566  0.00  0.00    +0.217 A 
ATOM     21  O2  UNL     1      19.078  -0.321  25.177  0.00  0.00    -0.444 OA
ENDBRANCH  16  17
ENDBRANCH   1  12
BRANCH   8  22
ATOM     22  C9  UNL     1      20.420   1.896  32.256  0.00  0.00    +0.010 A 
ATOM     23  C10 UNL     1      20.431   0.523  32.042  0.00  0.00    +0.013 A 
ATOM     24  C11 UNL     1      19.149  -0.037  31.985  0.00  0.00    +0.008 A 
ATOM     25  C12 UNL     1      18.128   0.887  32.165  0.00  0.00    +0.045 A 
ATOM     26  S1  UNL     1      18.820   2.402  32.397  0.00  0.00    -0.100 S 
ENDBRANCH   8  22
TORSDOF 3
ENDMDL
MODEL 6
REMARK VINA RESULT:    -5.762      2.163      7.648
REMARK INTER + INTRA:          -7.794
REMARK INTER:                  -6.753
REMARK INTRA:                  -1.040
REMARK UNBOUND:                -1.022
REMARK  Name = /home/qwerty/github/datacon2025hack/step_04_hit_selection/docking/ligands/lig_490.pdb
REMARK  4 active torsions:
REMARK  status: ('A' for Active; 'I' for Inactive)
REMARK    1  A    between atoms: C1_1  and  C2_2
REMARK    2  A    between atoms: C3_3  and  N1_4
REMARK    3  A    between atoms: C8_11  and  C9_12
REMARK    4  A    between atoms: C16_20  and  C17_21
REMARK                            x       y       z     vdW  Elec       q    Type
REMARK                         _______ _______ _______ _____ _____    ______ ____
ROOT
ATOM      1  N1  UNL     1       9.886  12.124  27.720  0.00  0.00    -0.269 N 
ATOM      2  C4  UNL     1      10.332  11.214  26.700  0.00  0.00    +0.307 C 
ATOM      3  O1  UNL     1      11.546  11.196  26.360  0.00  0.00    -0.252 OA
ATOM      4  N2  UNL     1       9.412  10.302  26.069  0.00  0.00    -0.278 N 
ATOM      5  C5  UNL     1       9.744   9.587  24.849  0.00  0.00    +0.110 C 
ATOM      6  C6  UNL     1       8.434   8.997  24.346  0.00  0.00    +0.021 C 
ATOM      7  C7  UNL     1       7.481   9.013  25.537  0.00  0.00    +0.029 C 
ATOM      8  C8  UNL     1       8.046  10.051  26.511  0.00  0.00    +0.114 C 
ATOM      9  H4  UNL     1       8.886  12.115  28.017  0.00  0.00    +0.156 HD
ENDROOT
BRANCH   1  12
ATOM     10  C1  UNL     1      10.521  11.605  30.510  0.00  0.00    +0.046 C 
ATOM     11  C2  UNL     1      11.044  12.833  29.798  0.00  0.00    -0.017 A 
ATOM     12  C3  UNL     1      10.774  13.014  28.418  0.00  0.00    +0.038 A 
ATOM     13  C13 UNL     1      11.326  14.109  27.737  0.00  0.00    +0.023 A 
ATOM     14  C14 UNL     1      12.137  15.020  28.404  0.00  0.00    +0.003 A 
ATOM     15  C15 UNL     1      12.380  14.874  29.767  0.00  0.00    +0.013 A 
ATOM     16  C16 UNL     1      11.823  13.804  30.488  0.00  0.00    +0.042 A 
BRANCH  16  17
ATOM     17  C17 UNL     1      12.060  13.750  31.954  0.00  0.00    +0.227 A 
ATOM     18  N3  UNL     1      11.244  14.332  32.861  0.00  0.00    -0.217 NA
ATOM     19  C18 UNL     1      11.811  14.022  34.041  0.00  0.00    +0.152 A 
ATOM     20  C19 UNL     1      12.938  13.267  33.815  0.00  0.00    +0.217 A 
ATOM     21  O2  UNL     1      13.062  13.116  32.521  0.00  0.00    -0.444 OA
ENDBRANCH  16  17
ENDBRANCH   1  12
BRANCH   8  22
ATOM     22  C9  UNL     1       8.015   9.540  27.928  0.00  0.00    +0.010 A 
ATOM     23  C10 UNL     1       7.189  10.013  28.939  0.00  0.00    +0.013 A 
ATOM     24  C11 UNL     1       7.348   9.325  30.149  0.00  0.00    +0.008 A 
ATOM     25  C12 UNL     1       8.288   8.304  30.091  0.00  0.00    +0.045 A 
ATOM     26  S1  UNL     1       8.920   8.255  28.533  0.00  0.00    -0.100 S 
ENDBRANCH   8  22
TORSDOF 3
ENDMDL
MODEL 7
REMARK VINA RESULT:    -5.756      3.062      5.613
REMARK INTER + INTRA:          -7.787
REMARK INTER:                  -6.938
REMARK INTRA:                  -0.849
REMARK UNBOUND:                -1.022
REMARK  Name = /home/qwerty/github/datacon2025hack/step_04_hit_selection/docking/ligands/lig_490.pdb
REMARK  4 active torsions:
REMARK  status: ('A' for Active; 'I' for Inactive)
REMARK    1  A    between atoms: C1_1  and  C2_2
REMARK    2  A    between atoms: C3_3  and  N1_4
REMARK    3  A    between atoms: C8_11  and  C9_12
REMARK    4  A    between atoms: C16_20  and  C17_21
REMARK                            x       y       z     vdW  Elec       q    Type
REMARK                         _______ _______ _______ _____ _____    ______ ____
ROOT
ATOM      1  N1  UNL     1       8.298  10.396  25.339  0.00  0.00    -0.269 N 
ATOM      2  C4  UNL     1       8.091   9.319  26.269  0.00  0.00    +0.307 C 
ATOM      3  O1  UNL     1       8.171   8.124  25.874  0.00  0.00    -0.252 OA
ATOM      4  N2  UNL     1       7.810   9.583  27.657  0.00  0.00    -0.278 N 
ATOM      5  C5  UNL     1       7.307   8.558  28.555  0.00  0.00    +0.110 C 
ATOM      6  C6  UNL     1       6.849   9.294  29.807  0.00  0.00    +0.021 C 
ATOM      7  C7  UNL     1       7.524  10.661  29.762  0.00  0.00    +0.029 C 
ATOM      8  C8  UNL     1       7.912  10.889  28.298  0.00  0.00    +0.114 C 
ATOM      9  H4  UNL     1       8.258  11.382  25.677  0.00  0.00    +0.156 HD
ENDROOT
BRANCH   1  12
ATOM     10  C1  UNL     1      11.080   9.999  24.595  0.00  0.00    +0.046 C 
ATOM     11  C2  UNL     1       9.987  10.064  23.551  0.00  0.00    -0.017 A 
ATOM     12  C3  UNL     1       8.634  10.184  23.958  0.00  0.00    +0.038 A 
ATOM     13  C13 UNL     1       7.613  10.162  22.997  0.00  0.00    +0.023 A 
ATOM     14  C14 UNL     1       7.916  10.021  21.646  0.00  0.00    +0.003 A 
ATOM     15  C15 UNL     1       9.242   9.939  21.232  0.00  0.00    +0.013 A 
ATOM     16  C16 UNL     1      10.293   9.983  22.163  0.00  0.00    +0.042 A 
BRANCH  16  17
ATOM     17  C17 UNL     1      11.686   9.967  21.647  0.00  0.00    +0.227 A 
ATOM     18  N3  UNL     1      12.170  10.886  20.782  0.00  0.00    -0.217 NA
ATOM     19  C18 UNL     1      13.449  10.510  20.604  0.00  0.00    +0.152 A 
ATOM     20  C19 UNL     1      13.700   9.390  21.362  0.00  0.00    +0.217 A 
ATOM     21  O2  UNL     1      12.595   9.083  21.994  0.00  0.00    -0.444 OA
ENDBRANCH  16  17
ENDBRANCH   1  12
BRANCH   8  22
ATOM     22  C9  UNL     1       9.307  11.446  28.185  0.00  0.00    +0.010 A 
ATOM     23  C10 UNL     1       9.634  12.722  27.745  0.00  0.00    +0.013 A 
ATOM     24  C11 UNL     1      11.010  12.982  27.780  0.00  0.00    +0.008 A 
ATOM     25  C12 UNL     1      11.767  11.920  28.258  0.00  0.00    +0.045 A 
ATOM     26  S1  UNL     1      10.724  10.657  28.640  0.00  0.00    -0.100 S 
ENDBRANCH   8  22
TORSDOF 3
ENDMDL
MODEL 8
REMARK VINA RESULT:    -5.739     12.937     15.309
REMARK INTER + INTRA:          -7.767
REMARK INTER:                  -6.882
REMARK INTRA:                  -0.885
REMARK UNBOUND:                -1.022
REMARK  Name = /home/qwerty/github/datacon2025hack/step_04_hit_selection/docking/ligands/lig_490.pdb
REMARK  4 active torsions:
REMARK  status: ('A' for Active; 'I' for Inactive)
REMARK    1  A    between atoms: C1_1  and  C2_2
REMARK    2  A    between atoms: C3_3  and  N1_4
REMARK    3  A    between atoms: C8_11  and  C9_12
REMARK    4  A    between atoms: C16_20  and  C17_21
REMARK                            x       y       z     vdW  Elec       q    Type
REMARK                         _______ _______ _______ _____ _____    ______ ____
ROOT
ATOM      1  N1  UNL     1      22.739   4.314  32.004  0.00  0.00    -0.269 N 
ATOM      2  C4  UNL     1      21.666   3.677  32.719  0.00  0.00    +0.307 C 
ATOM      3  O1  UNL     1      21.181   4.227  33.745  0.00  0.00    -0.252 OA
ATOM      4  N2  UNL     1      21.120   2.422  32.269  0.00  0.00    -0.278 N 
ATOM      5  C5  UNL     1      20.258   1.607  33.108  0.00  0.00    +0.110 C 
ATOM      6  C6  UNL     1      20.161   0.256  32.412  0.00  0.00    +0.021 C 
ATOM      7  C7  UNL     1      20.602   0.493  30.971  0.00  0.00    +0.029 C 
ATOM      8  C8  UNL     1      21.417   1.789  30.990  0.00  0.00    +0.114 C 
ATOM      9  H4  UNL     1      23.117   3.868  31.140  0.00  0.00    +0.156 HD
ENDROOT
BRANCH   1  12
ATOM     10  C1  UNL     1      21.825   6.709  30.631  0.00  0.00    +0.046 C 
ATOM     11  C2  UNL     1      22.914   6.769  31.680  0.00  0.00    -0.017 A 
ATOM     12  C3  UNL     1      23.281   5.591  32.380  0.00  0.00    +0.038 A 
ATOM     13  C13 UNL     1      24.231   5.659  33.409  0.00  0.00    +0.023 A 
ATOM     14  C14 UNL     1      24.818   6.873  33.750  0.00  0.00    +0.003 A 
ATOM     15  C15 UNL     1      24.494   8.029  33.047  0.00  0.00    +0.013 A 
ATOM     16  C16 UNL     1      23.565   7.995  31.993  0.00  0.00    +0.042 A 
BRANCH  16  17
ATOM     17  C17 UNL     1      23.322   9.250  31.234  0.00  0.00    +0.227 A 
ATOM     18  N3  UNL     1      22.137   9.899  31.229  0.00  0.00    -0.217 NA
ATOM     19  C18 UNL     1      22.366  10.971  30.449  0.00  0.00    +0.152 A 
ATOM     20  C19 UNL     1      23.670  10.941  30.013  0.00  0.00    +0.217 A 
ATOM     21  O2  UNL     1      24.232   9.871  30.516  0.00  0.00    -0.444 OA
ENDBRANCH  16  17
ENDBRANCH   1  12
BRANCH   8  22
ATOM     22  C9  UNL     1      21.044   2.684  29.838  0.00  0.00    +0.010 A 
ATOM     23  C10 UNL     1      21.807   2.893  28.696  0.00  0.00    +0.013 A 
ATOM     24  C11 UNL     1      21.194   3.747  27.771  0.00  0.00    +0.008 A 
ATOM     25  C12 UNL     1      19.946   4.202  28.173  0.00  0.00    +0.045 A 
ATOM     26  S1  UNL     1      19.602   3.541  29.681  0.00  0.00    -0.100 S 
ENDBRANCH   8  22
TORSDOF 3
ENDMDL
MODEL 9
REMARK VINA RESULT:    -5.715      6.815      9.478
REMARK INTER + INTRA:          -7.739
REMARK INTER:                  -6.650
REMARK INTRA:                  -1.089
REMARK UNBOUND:                -1.022
REMARK  Name = /home/qwerty/github/datacon2025hack/step_04_hit_selection/docking/ligands/lig_490.pdb
REMARK  4 active torsions:
REMARK  status: ('A' for Active; 'I' for Inactive)
REMARK    1  A    between atoms: C1_1  and  C2_2
REMARK    2  A    between atoms: C3_3  and  N1_4
REMARK    3  A    between atoms: C8_11  and  C9_12
REMARK    4  A    between atoms: C16_20  and  C17_21
REMARK                            x       y       z     vdW  Elec       q    Type
REMARK                         _______ _______ _______ _____ _____    ______ ____
ROOT
ATOM      1  N1  UNL     1       9.616   6.647  21.738  0.00  0.00    -0.269 N 
ATOM      2  C4  UNL     1       9.215   7.283  22.964  0.00  0.00    +0.307 C 
ATOM      3  O1  UNL     1       9.372   6.685  24.063  0.00  0.00    -0.252 OA
ATOM      4  N2  UNL     1       8.649   8.608  22.959  0.00  0.00    -0.278 N 
ATOM      5  C5  UNL     1       7.965   9.163  24.114  0.00  0.00    +0.110 C 
ATOM      6  C6  UNL     1       7.256  10.414  23.614  0.00  0.00    +0.021 C 
ATOM      7  C7  UNL     1       7.930  10.780  22.295  0.00  0.00    +0.029 C 
ATOM      8  C8  UNL     1       8.618   9.501  21.807  0.00  0.00    +0.114 C 
ATOM      9  H4  UNL     1       9.509   7.158  20.835  0.00  0.00    +0.156 HD
ENDROOT
BRANCH   1  12
ATOM     10  C1  UNL     1      12.497   6.453  21.396  0.00  0.00    +0.046 C 
ATOM     11  C2  UNL     1      11.625   5.219  21.452  0.00  0.00    -0.017 A 
ATOM     12  C3  UNL     1      10.234   5.350  21.694  0.00  0.00    +0.038 A 
ATOM     13  C13 UNL     1       9.438   4.204  21.829  0.00  0.00    +0.023 A 
ATOM     14  C14 UNL     1      10.001   2.936  21.727  0.00  0.00    +0.003 A 
ATOM     15  C15 UNL     1      11.359   2.793  21.454  0.00  0.00    +0.013 A 
ATOM     16  C16 UNL     1      12.183   3.919  21.288  0.00  0.00    +0.042 A 
BRANCH  16  17
ATOM     17  C17 UNL     1      13.606   3.696  20.922  0.00  0.00    +0.227 A 
ATOM     18  N3  UNL     1      14.570   3.409  21.824  0.00  0.00    -0.217 NA
ATOM     19  C18 UNL     1      15.676   3.269  21.072  0.00  0.00    +0.152 A 
ATOM     20  C19 UNL     1      15.351   3.469  19.750  0.00  0.00    +0.217 A 
ATOM     21  O2  UNL     1      14.069   3.727  19.692  0.00  0.00    -0.444 OA
ENDBRANCH  16  17
ENDBRANCH   1  12
BRANCH   8  22
ATOM     22  C9  UNL     1      10.007   9.790  21.302  0.00  0.00    +0.010 A 
ATOM     23  C10 UNL     1      10.405   9.763  19.972  0.00  0.00    +0.013 A 
ATOM     24  C11 UNL     1      11.749  10.111  19.790  0.00  0.00    +0.008 A 
ATOM     25  C12 UNL     1      12.409  10.425  20.971  0.00  0.00    +0.045 A 
ATOM     26  S1  UNL     1      11.319  10.271  22.243  0.00  0.00    -0.100 S 
ENDBRANCH   8  22
TORSDOF 3
ENDMDL
