REMARK  Name = /home/qwerty/github/datacon2025hack/step_04_hit_selection/docking/ligands/lig_243.pdb
REMARK  4 active torsions:
REMARK  status: ('A' for Active; 'I' for Inactive)
REMARK    1  A    between atoms: C1_1  and  O1_2
REMARK    2  A    between atoms: O1_2  and  C2_3
REMARK    3  A    between atoms: C9_11  and  N1_12
REMARK    4  A    between atoms: C13_18  and  C14_19
REMARK                            x       y       z     vdW  Elec       q    Type
REMARK                         _______ _______ _______ _____ _____    ______ ____
ROOT
ATOM      1  N1  UNL     1       0.058   0.219  -0.168  0.00  0.00    -0.293 N 
ATOM      2  C10 UNL     1      -0.716  -0.682   0.642  0.00  0.00    +0.303 C 
ATOM      3  O3  UNL     1      -0.229  -1.796   0.979  0.00  0.00    -0.253 OA
ATOM      4  N2  UNL     1      -2.043  -0.332   1.075  0.00  0.00    -0.285 N 
ATOM      5  C11 UNL     1      -2.826  -1.177   1.960  0.00  0.00    +0.110 C 
ATOM      6  C12 UNL     1      -4.092  -0.391   2.279  0.00  0.00    +0.029 C 
ATOM      7  C13 UNL     1      -4.148   0.769   1.272  0.00  0.00    +0.038 C 
ATOM      8  C20 UNL     1      -2.735   0.885   0.686  0.00  0.00    +0.117 C 
ATOM      9  H10 UNL     1      -0.366   1.124  -0.470  0.00  0.00    +0.151 HD
ENDROOT
BRANCH   1  18
ATOM     10  C2  UNL     1       6.520  -0.230  -0.741  0.00  0.00    +0.124 A 
ATOM     11  C3  UNL     1       6.184  -0.459   0.607  0.00  0.00    +0.046 A 
ATOM     12  C4  UNL     1       4.853  -0.369   1.027  0.00  0.00    +0.011 A 
ATOM     13  C5  UNL     1       3.841  -0.059   0.108  0.00  0.00    -0.004 A 
ATOM     14  C6  UNL     1       4.178   0.192  -1.235  0.00  0.00    +0.127 A 
ATOM     15  C7  UNL     1       5.509   0.094  -1.653  0.00  0.00    +0.091 A 
ATOM     16  O2  UNL     1       3.183   0.515  -2.165  0.00  0.00    -0.490 OA
ATOM     17  C8  UNL     1       1.844   0.809  -1.768  0.00  0.00    +0.251 C 
ATOM     18  C9  UNL     1       1.421  -0.102  -0.604  0.00  0.00    +0.116 C 
ATOM     19  C21 UNL     1       2.409   0.067   0.566  0.00  0.00    +0.064 C 
BRANCH  10  21
ATOM     20  C1  UNL     1       8.964  -0.632  -0.399  0.00  0.00    +0.277 C 
ATOM     21  O1  UNL     1       7.839  -0.313  -1.211  0.00  0.00    -0.495 OA
ENDBRANCH  10  21
ENDBRANCH   1  18
BRANCH   7  22
ATOM     22  C14 UNL     1      -5.195   0.528   0.197  0.00  0.00    -0.043 A 
ATOM     23  C15 UNL     1      -5.098  -0.569  -0.682  0.00  0.00    +0.007 A 
ATOM     24  C16 UNL     1      -6.075  -0.782  -1.659  0.00  0.00    +0.038 A 
ATOM     25  C17 UNL     1      -7.159   0.091  -1.768  0.00  0.00    +0.123 A 
ATOM     26  F1  UNL     1      -8.106  -0.118  -2.716  0.00  0.00    -0.205 F 
ATOM     27  C18 UNL     1      -7.269   1.180  -0.899  0.00  0.00    +0.038 A 
ATOM     28  C19 UNL     1      -6.294   1.398   0.079  0.00  0.00    +0.007 A 
ENDBRANCH   7  22
TORSDOF 3
