REMARK  Name = /home/qwerty/github/datacon2025hack/step_04_hit_selection/docking/ligands/lig_36.pdb
REMARK  3 active torsions:
REMARK  status: ('A' for Active; 'I' for Inactive)
REMARK    1  A    between atoms: C1_1  and  C2_2
REMARK    2  A    between atoms: C5_7  and  N2_8
REMARK    3  A    between atoms: C6_9  and  C7_11
REMARK                            x       y       z     vdW  Elec       q    Type
REMARK                         _______ _______ _______ _____ _____    ______ ____
ROOT
ATOM      1  N2  UNL     1      -1.404  -1.575   0.677  0.00  0.00    -0.304 N 
ATOM      2  C6  UNL     1      -0.459  -2.184   1.572  0.00  0.00    +0.245 C 
ATOM      3  O2  UNL     1      -0.874  -2.892   2.530  0.00  0.00    -0.270 OA
ATOM      4  H9  UNL     1      -1.065  -1.198  -0.237  0.00  0.00    +0.150 HD
ENDROOT
BRANCH   2   5
ATOM      5  C7  UNL     1       0.998  -2.002   1.380  0.00  0.00    +0.037 A 
ATOM      6  C8  UNL     1       1.908  -2.958   1.908  0.00  0.00    +0.015 A 
ATOM      7  C9  UNL     1       3.296  -2.804   1.745  0.00  0.00    +0.027 A 
ATOM      8  C10 UNL     1       3.752  -1.682   1.059  0.00  0.00    +0.047 A 
ATOM      9  N3  UNL     1       5.031  -1.353   0.791  0.00  0.00    -0.358 N 
ATOM     10  C11 UNL     1       4.963  -0.193   0.100  0.00  0.00    +0.020 A 
ATOM     11  C12 UNL     1       3.652   0.229  -0.038  0.00  0.00    -0.019 A 
ATOM     12  C13 UNL     1       2.881  -0.744   0.559  0.00  0.00    +0.004 A 
ATOM     13  C14 UNL     1       1.501  -0.868   0.698  0.00  0.00    +0.023 A 
ATOM     14  C15 UNL     1       3.230   1.440  -0.813  0.00  0.00    +0.037 C 
ATOM     15  C16 UNL     1       4.426   2.394  -1.005  0.00  0.00    +0.005 C 
ATOM     16  C17 UNL     1       5.699   1.636  -1.436  0.00  0.00    +0.006 C 
ATOM     17  C18 UNL     1       6.138   0.606  -0.375  0.00  0.00    +0.053 C 
ATOM     18  H12 UNL     1       5.892  -1.881   1.060  0.00  0.00    +0.166 HD
ENDBRANCH   2   5
BRANCH   1  25
ATOM     19  C1  UNL     1      -3.708   3.761   0.438  0.00  0.00    +0.109 C 
ATOM     20  C2  UNL     1      -4.443   2.483   0.182  0.00  0.00    +0.217 C 
ATOM     21  O1  UNL     1      -5.672   2.530  -0.097  0.00  0.00    -0.276 OA
ATOM     22  N1  UNL     1      -3.785   1.208   0.322  0.00  0.00    -0.271 N 
ATOM     23  C3  UNL     1      -2.857   1.008   1.443  0.00  0.00    +0.116 C 
ATOM     24  C4  UNL     1      -3.060  -0.379   2.052  0.00  0.00    +0.046 C 
ATOM     25  C5  UNL     1      -2.832  -1.473   0.999  0.00  0.00    +0.107 C 
ATOM     26  C19 UNL     1      -3.625  -1.200  -0.262  0.00  0.00    -0.006 A 
ATOM     27  C20 UNL     1      -3.870  -2.257  -1.154  0.00  0.00    +0.007 A 
ATOM     28  C21 UNL     1      -4.509  -2.023  -2.371  0.00  0.00    +0.000 A 
ATOM     29  C22 UNL     1      -4.889  -0.729  -2.722  0.00  0.00    +0.002 A 
ATOM     30  C23 UNL     1      -4.645   0.335  -1.851  0.00  0.00    +0.024 A 
ATOM     31  C24 UNL     1      -4.029   0.116  -0.602  0.00  0.00    +0.041 A 
ENDBRANCH   1  25
TORSDOF 2
