REMARK  Name = /home/qwerty/github/datacon2025hack/step_04_hit_selection/docking/ligands/lig_10.pdb
REMARK  5 active torsions:
REMARK  status: ('A' for Active; 'I' for Inactive)
REMARK    1  A    between atoms: C1_1  and  C2_2
REMARK    2  A    between atoms: N2_7  and  C5_8
REMARK    3  A    between atoms: N3_18  and  C14_19
REMARK    4  A    between atoms: C16_21  and  C17_22
REMARK    5  A    between atoms: C17_22  and  O4_24
REMARK                            x       y       z     vdW  Elec       q    Type
REMARK                         _______ _______ _______ _____ _____    ______ ____
ROOT
ATOM      1  C1  UNL     1       6.149  -0.820  -1.120  0.00  0.00    +0.010 C 
ATOM      2  C2  UNL     1       5.003  -0.825  -0.102  0.00  0.00    +0.019 C 
ATOM      3  C3  UNL     1       3.697  -1.360  -0.693  0.00  0.00    +0.113 C 
ATOM      4  N1  UNL     1       2.644  -0.571  -0.075  0.00  0.00    -0.284 N 
ATOM      5  C4  UNL     1       1.246  -0.841  -0.273  0.00  0.00    +0.306 C 
ATOM      6  O1  UNL     1       0.898  -1.781  -1.038  0.00  0.00    -0.252 OA
ATOM      7  N2  UNL     1       0.248  -0.074   0.423  0.00  0.00    -0.269 N 
ATOM      8  C15 UNL     1       3.156   0.544   0.705  0.00  0.00    +0.124 C 
ATOM      9  C16 UNL     1       4.657   0.585   0.408  0.00  0.00    +0.119 C 
ATOM     10  H7  UNL     1       0.531   0.431   1.293  0.00  0.00    +0.156 HD
ENDROOT
BRANCH   7  11
ATOM     11  C5  UNL     1      -1.146  -0.066   0.070  0.00  0.00    +0.035 A 
ATOM     12  C6  UNL     1      -1.561  -0.166  -1.268  0.00  0.00    +0.025 A 
ATOM     13  C7  UNL     1      -2.920  -0.142  -1.591  0.00  0.00    +0.025 A 
ATOM     14  C8  UNL     1      -3.894  -0.004  -0.584  0.00  0.00    +0.039 A 
ATOM     15  C9  UNL     1      -3.474   0.149   0.755  0.00  0.00    -0.024 A 
ATOM     16  C10 UNL     1      -2.109   0.106   1.073  0.00  0.00    +0.028 A 
ATOM     17  C11 UNL     1      -4.503   0.277   1.849  0.00  0.00    +0.046 C 
ATOM     18  C12 UNL     1      -5.703   1.103   1.381  0.00  0.00    +0.101 C 
ATOM     19  C13 UNL     1      -6.221   0.588   0.071  0.00  0.00    +0.220 C 
ATOM     20  O2  UNL     1      -7.447   0.708  -0.196  0.00  0.00    -0.275 OA
ATOM     21  N3  UNL     1      -5.309   0.022  -0.894  0.00  0.00    -0.274 N 
ATOM     22  C14 UNL     1      -5.811  -0.459  -2.187  0.00  0.00    +0.138 C 
ENDBRANCH   7  11
BRANCH   9  23
ATOM     23  C17 UNL     1       5.476   0.989   1.605  0.00  0.00    +0.310 C 
ATOM     24  O3  UNL     1       5.426   0.320   2.672  0.00  0.00    -0.251 OA
BRANCH  23  25
ATOM     25  O4  UNL     1       6.299   2.108   1.528  0.00  0.00    -0.480 OA
ATOM     26  H21 UNL     1       6.860   2.395   2.321  0.00  0.00    +0.295 HD
ENDBRANCH  23  25
ENDBRANCH   9  23
TORSDOF 3
