REMARK  Name = /home/qwerty/github/datacon2025hack/step_04_hit_selection/docking/ligands/lig_196.pdb
REMARK  9 active torsions:
REMARK  status: ('A' for Active; 'I' for Inactive)
REMARK    1  A    between atoms: C1_1  and  C2_2
REMARK    2  A    between atoms: C2_2  and  C3_3
REMARK    3  A    between atoms: C2_2  and  N1_4
REMARK    4  A    between atoms: C7_8  and  C8_9
REMARK    5  A    between atoms: C8_9  and  N2_10
REMARK    6  A    between atoms: C9_11  and  C10_12
REMARK    7  A    between atoms: C10_12  and  O1_13
REMARK    8  A    between atoms: O1_13  and  C11_14
REMARK    9  A    between atoms: C20_27  and  C21_28
REMARK                            x       y       z     vdW  Elec       q    Type
REMARK                         _______ _______ _______ _____ _____    ______ ____
ROOT
ATOM      1  N2  UNL     1       1.671   0.097  -1.311  0.00  0.00    -0.296 N 
ATOM      2  C9  UNL     1       2.713  -0.746  -1.498  0.00  0.00    +0.172 A 
ATOM      3  N3  UNL     1       3.863  -0.218  -1.032  0.00  0.00    -0.129 NA
ATOM      4  N4  UNL     1       3.575   0.977  -0.540  0.00  0.00    -0.113 NA
ATOM      5  C17 UNL     1       2.257   1.165  -0.726  0.00  0.00    +0.220 A 
ATOM      6  N5  UNL     1       1.586   2.383  -0.370  0.00  0.00    -0.296 N 
ATOM      7  C18 UNL     1       0.813   3.123  -1.381  0.00  0.00    +0.135 C 
ATOM      8  C19 UNL     1       0.931   4.606  -1.152  0.00  0.00    -0.000 C 
ATOM      9  C20 UNL     1       0.931   5.093   0.104  0.00  0.00    +0.031 C 
ATOM     10  C22 UNL     1       0.850   4.116   1.254  0.00  0.00    +0.058 C 
ATOM     11  C23 UNL     1       1.762   2.909   0.993  0.00  0.00    +0.113 C 
ENDROOT
BRANCH   9  12
ATOM     12  C21 UNL     1       1.135   6.563   0.387  0.00  0.00    +0.414 C 
ATOM     13  F2  UNL     1       0.223   6.980   1.341  0.00  0.00    -0.166 F 
ATOM     14  F3  UNL     1       2.415   6.760   0.871  0.00  0.00    -0.166 F 
ATOM     15  F4  UNL     1       0.963   7.334  -0.751  0.00  0.00    -0.166 F 
ENDBRANCH   9  12
BRANCH   1  16
ATOM     16  C8  UNL     1       0.255  -0.115  -1.641  0.00  0.00    +0.131 C 
BRANCH  16  21
ATOM     17  N1  UNL     1      -2.983  -0.495   0.329  0.00  0.00    -0.300 NA
ATOM     18  C4  UNL     1      -2.745  -1.944   0.579  0.00  0.00    +0.084 C 
ATOM     19  C5  UNL     1      -1.265  -2.358   0.433  0.00  0.00    +0.016 C 
ATOM     20  C6  UNL     1      -0.336  -1.163   0.631  0.00  0.00    +0.008 C 
ATOM     21  C7  UNL     1      -0.647  -0.042  -0.388  0.00  0.00    +0.023 C 
ATOM     22  C24 UNL     1      -2.138  -0.046  -0.802  0.00  0.00    +0.090 C 
BRANCH  17  24
ATOM     23  C1  UNL     1      -5.330  -0.820   1.187  0.00  0.00    +0.024 C 
ATOM     24  C2  UNL     1      -4.428  -0.191   0.101  0.00  0.00    +0.050 C 
ATOM     25  C3  UNL     1      -4.679   1.332   0.106  0.00  0.00    +0.024 C 
ENDBRANCH  17  24
ENDBRANCH  16  21
ENDBRANCH   1  16
BRANCH   2  26
ATOM     26  C10 UNL     1       2.654  -2.065  -2.215  0.00  0.00    +0.305 C 
BRANCH  26  27
ATOM     27  O1  UNL     1       1.885  -3.023  -1.489  0.00  0.00    -0.481 OA
BRANCH  27  28
ATOM     28  C11 UNL     1       2.311  -3.710  -0.340  0.00  0.00    +0.156 A 
ATOM     29  C12 UNL     1       3.539  -3.437   0.297  0.00  0.00    +0.048 A 
ATOM     30  C13 UNL     1       3.905  -4.138   1.450  0.00  0.00    +0.004 A 
ATOM     31  C14 UNL     1       3.058  -5.117   1.975  0.00  0.00    +0.003 A 
ATOM     32  C15 UNL     1       1.845  -5.402   1.343  0.00  0.00    +0.042 A 
ATOM     33  C16 UNL     1       1.475  -4.705   0.187  0.00  0.00    +0.165 A 
ATOM     34  F1  UNL     1       0.310  -5.014  -0.434  0.00  0.00    -0.202 F 
ENDBRANCH  27  28
ENDBRANCH  26  27
ENDBRANCH   2  26
TORSDOF 7
