MODEL 1
REMARK VINA RESULT:    -6.460      0.000      0.000
REMARK INTER + INTRA:          -9.705
REMARK INTER:                  -8.726
REMARK INTRA:                  -0.979
REMARK UNBOUND:                -0.979
REMARK  Name = /home/qwerty/github/datacon2025hack/step_04_hit_selection/docking/ligands/lig_298.pdb
REMARK  9 active torsions:
REMARK  status: ('A' for Active; 'I' for Inactive)
REMARK    1  A    between atoms: C1_1  and  O1_2
REMARK    2  A    between atoms: O1_2  and  C2_3
REMARK    3  A    between atoms: C2_3  and  C3_5
REMARK    4  A    between atoms: C5_7  and  N1_8
REMARK    5  A    between atoms: C6_9  and  C7_11
REMARK    6  A    between atoms: C15_21  and  N3_22
REMARK    7  A    between atoms: C16_23  and  C17_24
REMARK    8  A    between atoms: C19_27  and  O5_28
REMARK    9  A    between atoms: O5_28  and  C20_29
REMARK                            x       y       z     vdW  Elec       q    Type
REMARK                         _______ _______ _______ _____ _____    ______ ____
ROOT
ATOM      1  C3  UNL     1      10.336   4.046  20.987  0.00  0.00    +0.102 A 
ATOM      2  C4  UNL     1      11.096   2.893  21.261  0.00  0.00    +0.043 A 
ATOM      3  C5  UNL     1      12.438   2.798  20.874  0.00  0.00    +0.056 A 
ATOM      4  C15 UNL     1      13.025   3.853  20.144  0.00  0.00    +0.058 A 
ATOM      5  C18 UNL     1      12.288   5.015  19.895  0.00  0.00    +0.071 A 
ATOM      6  C19 UNL     1      10.946   5.127  20.307  0.00  0.00    +0.136 A 
ENDROOT
BRANCH   4   7
ATOM      7  N3  UNL     1      14.365   3.763  19.637  0.00  0.00    -0.284 N 
ATOM      8  C16 UNL     1      15.494   4.296  20.342  0.00  0.00    +0.214 C 
ATOM      9  C17 UNL     1      16.826   4.366  19.668  0.00  0.00    +0.109 C 
ATOM     10  O4  UNL     1      15.374   4.697  21.531  0.00  0.00    -0.276 OA
ATOM     11  H11 UNL     1      14.541   3.167  18.796  0.00  0.00    +0.155 HD
ENDBRANCH   4   7
BRANCH   3  12
ATOM     12  N1  UNL     1      13.185   1.629  21.249  0.00  0.00    -0.280 N 
ATOM     13  C6  UNL     1      13.961   1.559  22.456  0.00  0.00    +0.251 C 
ATOM     14  O3  UNL     1      13.768   2.409  23.369  0.00  0.00    -0.270 OA
ATOM     15  H5  UNL     1      12.984   0.738  20.742  0.00  0.00    +0.155 HD
BRANCH  13  16
ATOM     16  C7  UNL     1      14.959   0.482  22.666  0.00  0.00    +0.073 A 
ATOM     17  C8  UNL     1      15.994   0.293  21.710  0.00  0.00    +0.018 A 
ATOM     18  C9  UNL     1      16.948  -0.727  21.867  0.00  0.00    +0.027 A 
ATOM     19  C10 UNL     1      16.843  -1.552  22.982  0.00  0.00    +0.049 A 
ATOM     20  N2  UNL     1      17.637  -2.584  23.311  0.00  0.00    -0.361 N 
ATOM     21  C11 UNL     1      17.132  -3.085  24.462  0.00  0.00    +0.084 A 
ATOM     22  C12 UNL     1      16.012  -2.365  24.864  0.00  0.00    +0.030 A 
ATOM     23  C13 UNL     1      15.847  -1.389  23.905  0.00  0.00    +0.036 A 
ATOM     24  C14 UNL     1      14.883  -0.389  23.785  0.00  0.00    +0.145 A 
ATOM     25  F1  UNL     1      13.887  -0.303  24.702  0.00  0.00    -0.204 F 
ATOM     26  H8  UNL     1      18.468  -2.934  22.786  0.00  0.00    +0.165 HD
ENDBRANCH  13  16
ENDBRANCH   3  12
BRANCH   1  27
ATOM     27  C2  UNL     1       8.918   4.093  21.433  0.00  0.00    +0.343 C 
ATOM     28  O2  UNL     1       7.999   4.411  20.629  0.00  0.00    -0.245 OA
BRANCH  27  30
ATOM     29  C1  UNL     1       7.302   3.994  23.308  0.00  0.00    +0.280 C 
ATOM     30  O1  UNL     1       8.598   3.782  22.759  0.00  0.00    -0.464 OA
ENDBRANCH  27  30
ENDBRANCH   1  27
BRANCH   6  31
ATOM     31  O5  UNL     1      10.201   6.291  20.049  0.00  0.00    -0.494 OA
ATOM     32  C20 UNL     1      10.635   7.617  20.339  0.00  0.00    +0.277 C 
ENDBRANCH   6  31
TORSDOF 6
ENDMDL
MODEL 2
REMARK VINA RESULT:    -6.418      1.256      1.828
REMARK INTER + INTRA:          -9.648
REMARK INTER:                  -8.396
REMARK INTRA:                  -1.252
REMARK UNBOUND:                -0.979
REMARK  Name = /home/qwerty/github/datacon2025hack/step_04_hit_selection/docking/ligands/lig_298.pdb
REMARK  9 active torsions:
REMARK  status: ('A' for Active; 'I' for Inactive)
REMARK    1  A    between atoms: C1_1  and  O1_2
REMARK    2  A    between atoms: O1_2  and  C2_3
REMARK    3  A    between atoms: C2_3  and  C3_5
REMARK    4  A    between atoms: C5_7  and  N1_8
REMARK    5  A    between atoms: C6_9  and  C7_11
REMARK    6  A    between atoms: C15_21  and  N3_22
REMARK    7  A    between atoms: C16_23  and  C17_24
REMARK    8  A    between atoms: C19_27  and  O5_28
REMARK    9  A    between atoms: O5_28  and  C20_29
REMARK                            x       y       z     vdW  Elec       q    Type
REMARK                         _______ _______ _______ _____ _____    ______ ____
ROOT
ATOM      1  C3  UNL     1       9.955   4.149  21.215  0.00  0.00    +0.102 A 
ATOM      2  C4  UNL     1      10.519   2.949  21.687  0.00  0.00    +0.043 A 
ATOM      3  C5  UNL     1      11.814   2.562  21.324  0.00  0.00    +0.056 A 
ATOM      4  C15 UNL     1      12.548   3.359  20.419  0.00  0.00    +0.058 A 
ATOM      5  C18 UNL     1      12.008   4.569  19.971  0.00  0.00    +0.071 A 
ATOM      6  C19 UNL     1      10.716   4.977  20.356  0.00  0.00    +0.136 A 
ENDROOT
BRANCH   4   7
ATOM      7  N3  UNL     1      13.838   2.957  19.936  0.00  0.00    -0.284 N 
ATOM      8  C16 UNL     1      15.061   3.421  20.522  0.00  0.00    +0.214 C 
ATOM      9  C17 UNL     1      16.363   3.143  19.845  0.00  0.00    +0.109 C 
ATOM     10  O4  UNL     1      15.047   4.053  21.613  0.00  0.00    -0.276 OA
ATOM     11  H11 UNL     1      13.887   2.192  19.225  0.00  0.00    +0.155 HD
ENDBRANCH   4   7
BRANCH   3  12
ATOM     12  N1  UNL     1      12.366   1.365  21.897  0.00  0.00    -0.280 N 
ATOM     13  C6  UNL     1      13.047   1.355  23.163  0.00  0.00    +0.251 C 
ATOM     14  O3  UNL     1      12.916   2.336  23.946  0.00  0.00    -0.270 OA
ATOM     15  H5  UNL     1      12.076   0.449  21.489  0.00  0.00    +0.155 HD
BRANCH  13  16
ATOM     16  C7  UNL     1      13.870   0.195  23.583  0.00  0.00    +0.073 A 
ATOM     17  C8  UNL     1      13.479  -0.563  24.721  0.00  0.00    +0.018 A 
ATOM     18  C9  UNL     1      14.242  -1.659  25.159  0.00  0.00    +0.027 A 
ATOM     19  C10 UNL     1      15.396  -1.974  24.449  0.00  0.00    +0.049 A 
ATOM     20  N2  UNL     1      16.265  -2.966  24.705  0.00  0.00    -0.361 N 
ATOM     21  C11 UNL     1      17.228  -2.865  23.760  0.00  0.00    +0.084 A 
ATOM     22  C12 UNL     1      16.966  -1.803  22.901  0.00  0.00    +0.030 A 
ATOM     23  C13 UNL     1      15.790  -1.250  23.359  0.00  0.00    +0.036 A 
ATOM     24  C14 UNL     1      15.060  -0.157  22.894  0.00  0.00    +0.145 A 
ATOM     25  F1  UNL     1      15.521   0.559  21.838  0.00  0.00    -0.204 F 
ATOM     26  H8  UNL     1      16.215  -3.667  25.476  0.00  0.00    +0.165 HD
ENDBRANCH  13  16
ENDBRANCH   3  12
BRANCH   1  27
ATOM     27  C2  UNL     1       8.579   4.513  21.647  0.00  0.00    +0.343 C 
ATOM     28  O2  UNL     1       8.314   4.705  22.866  0.00  0.00    -0.245 OA
BRANCH  27  30
ATOM     29  C1  UNL     1       6.744   5.804  20.596  0.00  0.00    +0.280 C 
ATOM     30  O1  UNL     1       7.565   4.646  20.691  0.00  0.00    -0.464 OA
ENDBRANCH  27  30
ENDBRANCH   1  27
BRANCH   6  31
ATOM     31  O5  UNL     1      10.170   6.188  19.899  0.00  0.00    -0.494 OA
ATOM     32  C20 UNL     1      10.591   7.483  20.320  0.00  0.00    +0.277 C 
ENDBRANCH   6  31
TORSDOF 6
ENDMDL
MODEL 3
REMARK VINA RESULT:    -6.366     12.678     15.250
REMARK INTER + INTRA:          -9.578
REMARK INTER:                  -8.436
REMARK INTRA:                  -1.142
REMARK UNBOUND:                -0.979
REMARK  Name = /home/qwerty/github/datacon2025hack/step_04_hit_selection/docking/ligands/lig_298.pdb
REMARK  9 active torsions:
REMARK  status: ('A' for Active; 'I' for Inactive)
REMARK    1  A    between atoms: C1_1  and  O1_2
REMARK    2  A    between atoms: O1_2  and  C2_3
REMARK    3  A    between atoms: C2_3  and  C3_5
REMARK    4  A    between atoms: C5_7  and  N1_8
REMARK    5  A    between atoms: C6_9  and  C7_11
REMARK    6  A    between atoms: C15_21  and  N3_22
REMARK    7  A    between atoms: C16_23  and  C17_24
REMARK    8  A    between atoms: C19_27  and  O5_28
REMARK    9  A    between atoms: O5_28  and  C20_29
REMARK                            x       y       z     vdW  Elec       q    Type
REMARK                         _______ _______ _______ _____ _____    ______ ____
ROOT
ATOM      1  C3  UNL     1      11.911  13.102  34.144  0.00  0.00    +0.102 A 
ATOM      2  C4  UNL     1      11.302  12.417  33.076  0.00  0.00    +0.043 A 
ATOM      3  C5  UNL     1      11.428  12.868  31.757  0.00  0.00    +0.056 A 
ATOM      4  C15 UNL     1      12.127  14.066  31.497  0.00  0.00    +0.058 A 
ATOM      5  C18 UNL     1      12.762  14.735  32.548  0.00  0.00    +0.071 A 
ATOM      6  C19 UNL     1      12.662  14.270  33.873  0.00  0.00    +0.136 A 
ENDROOT
BRANCH   4   7
ATOM      7  N3  UNL     1      12.199  14.625  30.178  0.00  0.00    -0.284 N 
ATOM      8  C16 UNL     1      13.069  14.103  29.165  0.00  0.00    +0.214 C 
ATOM      9  C17 UNL     1      13.259  14.855  27.888  0.00  0.00    +0.109 C 
ATOM     10  O4  UNL     1      13.666  13.006  29.339  0.00  0.00    -0.276 OA
ATOM     11  H11 UNL     1      11.494  15.346  29.903  0.00  0.00    +0.155 HD
ENDBRANCH   4   7
BRANCH   3  12
ATOM     12  N1  UNL     1      10.849  12.085  30.699  0.00  0.00    -0.280 N 
ATOM     13  C6  UNL     1       9.640  12.469  30.023  0.00  0.00    +0.251 C 
ATOM     14  O3  UNL     1       9.216  13.653  30.132  0.00  0.00    -0.270 OA
ATOM     15  H5  UNL     1      11.437  11.338  30.267  0.00  0.00    +0.155 HD
BRANCH  13  16
ATOM     16  C7  UNL     1       8.901  11.509  29.168  0.00  0.00    +0.073 A 
ATOM     17  C8  UNL     1       7.988  10.599  29.767  0.00  0.00    +0.018 A 
ATOM     18  C9  UNL     1       7.281   9.664  28.991  0.00  0.00    +0.027 A 
ATOM     19  C10 UNL     1       7.510   9.651  27.619  0.00  0.00    +0.049 A 
ATOM     20  N2  UNL     1       6.953   8.837  26.707  0.00  0.00    -0.361 N 
ATOM     21  C11 UNL     1       7.495   9.190  25.518  0.00  0.00    +0.084 A 
ATOM     22  C12 UNL     1       8.401  10.233  25.680  0.00  0.00    +0.030 A 
ATOM     23  C13 UNL     1       8.393  10.513  27.029  0.00  0.00    +0.036 A 
ATOM     24  C14 UNL     1       9.111  11.454  27.765  0.00  0.00    +0.145 A 
ATOM     25  F1  UNL     1      10.011  12.252  27.137  0.00  0.00    -0.204 F 
ATOM     26  H8  UNL     1       6.251   8.084  26.877  0.00  0.00    +0.165 HD
ENDBRANCH  13  16
ENDBRANCH   3  12
BRANCH   1  27
ATOM     27  C2  UNL     1      11.752  12.567  35.523  0.00  0.00    +0.343 C 
ATOM     28  O2  UNL     1      12.632  11.817  36.029  0.00  0.00    -0.245 OA
BRANCH  27  30
ATOM     29  C1  UNL     1       9.910  14.123  36.093  0.00  0.00    +0.280 C 
ATOM     30  O1  UNL     1      10.615  12.899  36.269  0.00  0.00    -0.464 OA
ENDBRANCH  27  30
ENDBRANCH   1  27
BRANCH   6  31
ATOM     31  O5  UNL     1      13.293  14.948  34.931  0.00  0.00    -0.494 OA
ATOM     32  C20 UNL     1      14.628  14.712  35.369  0.00  0.00    +0.277 C 
ENDBRANCH   6  31
TORSDOF 6
ENDMDL
MODEL 4
REMARK VINA RESULT:    -6.361      3.445      9.118
REMARK INTER + INTRA:          -9.571
REMARK INTER:                  -8.386
REMARK INTRA:                  -1.185
REMARK UNBOUND:                -0.979
REMARK  Name = /home/qwerty/github/datacon2025hack/step_04_hit_selection/docking/ligands/lig_298.pdb
REMARK  9 active torsions:
REMARK  status: ('A' for Active; 'I' for Inactive)
REMARK    1  A    between atoms: C1_1  and  O1_2
REMARK    2  A    between atoms: O1_2  and  C2_3
REMARK    3  A    between atoms: C2_3  and  C3_5
REMARK    4  A    between atoms: C5_7  and  N1_8
REMARK    5  A    between atoms: C6_9  and  C7_11
REMARK    6  A    between atoms: C15_21  and  N3_22
REMARK    7  A    between atoms: C16_23  and  C17_24
REMARK    8  A    between atoms: C19_27  and  O5_28
REMARK    9  A    between atoms: O5_28  and  C20_29
REMARK                            x       y       z     vdW  Elec       q    Type
REMARK                         _______ _______ _______ _____ _____    ______ ____
ROOT
ATOM      1  C3  UNL     1      13.553   2.401  20.897  0.00  0.00    +0.102 A 
ATOM      2  C4  UNL     1      12.989   3.631  20.508  0.00  0.00    +0.043 A 
ATOM      3  C5  UNL     1      11.674   3.967  20.849  0.00  0.00    +0.056 A 
ATOM      4  C15 UNL     1      10.877   3.032  21.544  0.00  0.00    +0.058 A 
ATOM      5  C18 UNL     1      11.439   1.822  21.962  0.00  0.00    +0.071 A 
ATOM      6  C19 UNL     1      12.771   1.491  21.646  0.00  0.00    +0.136 A 
ENDROOT
BRANCH   4   7
ATOM      7  N3  UNL     1       9.494   3.287  21.829  0.00  0.00    -0.284 N 
ATOM      8  C16 UNL     1       9.054   3.872  23.061  0.00  0.00    +0.214 C 
ATOM      9  C17 UNL     1       7.597   3.912  23.388  0.00  0.00    +0.109 C 
ATOM     10  O4  UNL     1       9.889   4.365  23.867  0.00  0.00    -0.276 OA
ATOM     11  H11 UNL     1       8.797   3.171  21.058  0.00  0.00    +0.155 HD
ENDBRANCH   4   7
BRANCH   3  12
ATOM     12  N1  UNL     1      11.177   5.267  20.492  0.00  0.00    -0.280 N 
ATOM     13  C6  UNL     1      11.519   6.456  21.223  0.00  0.00    +0.251 C 
ATOM     14  O3  UNL     1      12.503   6.437  22.014  0.00  0.00    -0.270 OA
ATOM     15  H5  UNL     1      10.733   5.380  19.553  0.00  0.00    +0.155 HD
BRANCH  13  16
ATOM     16  C7  UNL     1      10.763   7.717  21.037  0.00  0.00    +0.073 A 
ATOM     17  C8  UNL     1      11.159   8.626  20.016  0.00  0.00    +0.018 A 
ATOM     18  C9  UNL     1      10.476   9.839  19.820  0.00  0.00    +0.027 A 
ATOM     19  C10 UNL     1       9.406  10.126  20.660  0.00  0.00    +0.049 A 
ATOM     20  N2  UNL     1       8.634  11.226  20.649  0.00  0.00    -0.361 N 
ATOM     21  C11 UNL     1       7.744  11.061  21.655  0.00  0.00    +0.084 A 
ATOM     22  C12 UNL     1       7.954   9.849  22.305  0.00  0.00    +0.030 A 
ATOM     23  C13 UNL     1       9.019   9.269  21.652  0.00  0.00    +0.036 A 
ATOM     24  C14 UNL     1       9.670   8.057  21.877  0.00  0.00    +0.145 A 
ATOM     25  F1  UNL     1       9.278   7.265  22.906  0.00  0.00    -0.204 F 
ATOM     26  H8  UNL     1       8.707  12.043  20.005  0.00  0.00    +0.165 HD
ENDBRANCH  13  16
ENDBRANCH   3  12
BRANCH   1  27
ATOM     27  C2  UNL     1      14.961   2.105  20.515  0.00  0.00    +0.343 C 
ATOM     28  O2  UNL     1      15.914   2.778  20.996  0.00  0.00    -0.245 OA
BRANCH  27  30
ATOM     29  C1  UNL     1      16.119  -0.001  19.916  0.00  0.00    +0.280 C 
ATOM     30  O1  UNL     1      15.231   1.070  19.614  0.00  0.00    -0.464 OA
ENDBRANCH  27  30
ENDBRANCH   1  27
BRANCH   6  31
ATOM     31  O5  UNL     1      13.334   0.270  22.058  0.00  0.00    -0.494 OA
ATOM     32  C20 UNL     1      13.775  -0.018  23.381  0.00  0.00    +0.277 C 
ENDBRANCH   6  31
TORSDOF 6
ENDMDL
MODEL 5
REMARK VINA RESULT:    -6.360     16.471     18.608
REMARK INTER + INTRA:          -9.569
REMARK INTER:                  -8.438
REMARK INTRA:                  -1.131
REMARK UNBOUND:                -0.979
REMARK  Name = /home/qwerty/github/datacon2025hack/step_04_hit_selection/docking/ligands/lig_298.pdb
REMARK  9 active torsions:
REMARK  status: ('A' for Active; 'I' for Inactive)
REMARK    1  A    between atoms: C1_1  and  O1_2
REMARK    2  A    between atoms: O1_2  and  C2_3
REMARK    3  A    between atoms: C2_3  and  C3_5
REMARK    4  A    between atoms: C5_7  and  N1_8
REMARK    5  A    between atoms: C6_9  and  C7_11
REMARK    6  A    between atoms: C15_21  and  N3_22
REMARK    7  A    between atoms: C16_23  and  C17_24
REMARK    8  A    between atoms: C19_27  and  O5_28
REMARK    9  A    between atoms: O5_28  and  C20_29
REMARK                            x       y       z     vdW  Elec       q    Type
REMARK                         _______ _______ _______ _____ _____    ______ ____
ROOT
ATOM      1  C3  UNL     1      22.764   8.854  33.408  0.00  0.00    +0.102 A 
ATOM      2  C4  UNL     1      21.507   9.446  33.633  0.00  0.00    +0.043 A 
ATOM      3  C5  UNL     1      20.758   9.149  34.777  0.00  0.00    +0.056 A 
ATOM      4  C15 UNL     1      21.242   8.193  35.695  0.00  0.00    +0.058 A 
ATOM      5  C18 UNL     1      22.504   7.623  35.496  0.00  0.00    +0.071 A 
ATOM      6  C19 UNL     1      23.274   7.940  34.360  0.00  0.00    +0.136 A 
ENDROOT
BRANCH   4   7
ATOM      7  N3  UNL     1      20.468   7.778  36.830  0.00  0.00    -0.284 N 
ATOM      8  C16 UNL     1      19.537   6.690  36.774  0.00  0.00    +0.214 C 
ATOM      9  C17 UNL     1      18.607   6.446  37.917  0.00  0.00    +0.109 C 
ATOM     10  O4  UNL     1      19.505   5.928  35.770  0.00  0.00    -0.276 OA
ATOM     11  H11 UNL     1      20.692   8.192  37.764  0.00  0.00    +0.155 HD
ENDBRANCH   4   7
BRANCH   3  12
ATOM     12  N1  UNL     1      19.517   9.842  34.992  0.00  0.00    -0.280 N 
ATOM     13  C6  UNL     1      19.427  11.049  35.767  0.00  0.00    +0.251 C 
ATOM     14  O3  UNL     1      20.477  11.699  36.029  0.00  0.00    -0.270 OA
ATOM     15  H5  UNL     1      18.702   9.583  34.392  0.00  0.00    +0.155 HD
BRANCH  13  16
ATOM     16  C7  UNL     1      18.118  11.567  36.232  0.00  0.00    +0.073 A 
ATOM     17  C8  UNL     1      17.320  10.772  37.100  0.00  0.00    +0.018 A 
ATOM     18  C9  UNL     1      16.066  11.222  37.549  0.00  0.00    +0.027 A 
ATOM     19  C10 UNL     1      15.627  12.467  37.111  0.00  0.00    +0.049 A 
ATOM     20  N2  UNL     1      14.466  13.073  37.409  0.00  0.00    -0.361 N 
ATOM     21  C11 UNL     1      14.482  14.249  36.741  0.00  0.00    +0.084 A 
ATOM     22  C12 UNL     1      15.661  14.389  36.016  0.00  0.00    +0.030 A 
ATOM     23  C13 UNL     1      16.378  13.239  36.269  0.00  0.00    +0.036 A 
ATOM     24  C14 UNL     1      17.625  12.828  35.802  0.00  0.00    +0.145 A 
ATOM     25  F1  UNL     1      18.308  13.610  34.929  0.00  0.00    -0.204 F 
ATOM     26  H8  UNL     1      13.704  12.711  38.023  0.00  0.00    +0.165 HD
ENDBRANCH  13  16
ENDBRANCH   3  12
BRANCH   1  27
ATOM     27  C2  UNL     1      23.519   9.218  32.180  0.00  0.00    +0.343 C 
ATOM     28  O2  UNL     1      24.483  10.031  32.233  0.00  0.00    -0.245 OA
BRANCH  27  30
ATOM     29  C1  UNL     1      22.907   7.262  30.788  0.00  0.00    +0.280 C 
ATOM     30  O1  UNL     1      23.158   8.654  30.951  0.00  0.00    -0.464 OA
ENDBRANCH  27  30
ENDBRANCH   1  27
BRANCH   6  31
ATOM     31  O5  UNL     1      24.539   7.361  34.155  0.00  0.00    -0.494 OA
ATOM     32  C20 UNL     1      24.762   6.019  33.733  0.00  0.00    +0.277 C 
ENDBRANCH   6  31
TORSDOF 6
ENDMDL
MODEL 6
REMARK VINA RESULT:    -6.283     11.038     13.839
REMARK INTER + INTRA:          -9.466
REMARK INTER:                  -8.166
REMARK INTRA:                  -1.299
REMARK UNBOUND:                -0.979
REMARK  Name = /home/qwerty/github/datacon2025hack/step_04_hit_selection/docking/ligands/lig_298.pdb
REMARK  9 active torsions:
REMARK  status: ('A' for Active; 'I' for Inactive)
REMARK    1  A    between atoms: C1_1  and  O1_2
REMARK    2  A    between atoms: O1_2  and  C2_3
REMARK    3  A    between atoms: C2_3  and  C3_5
REMARK    4  A    between atoms: C5_7  and  N1_8
REMARK    5  A    between atoms: C6_9  and  C7_11
REMARK    6  A    between atoms: C15_21  and  N3_22
REMARK    7  A    between atoms: C16_23  and  C17_24
REMARK    8  A    between atoms: C19_27  and  O5_28
REMARK    9  A    between atoms: O5_28  and  C20_29
REMARK                            x       y       z     vdW  Elec       q    Type
REMARK                         _______ _______ _______ _____ _____    ______ ____
ROOT
ATOM      1  C3  UNL     1      23.081   5.636  33.127  0.00  0.00    +0.102 A 
ATOM      2  C4  UNL     1      22.677   5.108  31.886  0.00  0.00    +0.043 A 
ATOM      3  C5  UNL     1      21.470   4.415  31.750  0.00  0.00    +0.056 A 
ATOM      4  C15 UNL     1      20.668   4.188  32.889  0.00  0.00    +0.058 A 
ATOM      5  C18 UNL     1      21.046   4.736  34.118  0.00  0.00    +0.071 A 
ATOM      6  C19 UNL     1      22.246   5.459  34.255  0.00  0.00    +0.136 A 
ENDROOT
BRANCH   4   7
ATOM      7  N3  UNL     1      19.472   3.397  32.822  0.00  0.00    -0.284 N 
ATOM      8  C16 UNL     1      19.484   1.968  32.934  0.00  0.00    +0.214 C 
ATOM      9  C17 UNL     1      18.244   1.188  32.641  0.00  0.00    +0.109 C 
ATOM     10  O4  UNL     1      20.532   1.364  33.290  0.00  0.00    -0.276 OA
ATOM     11  H11 UNL     1      18.549   3.888  32.833  0.00  0.00    +0.155 HD
ENDBRANCH   4   7
BRANCH   3  12
ATOM     12  N1  UNL     1      21.072   3.965  30.443  0.00  0.00    -0.280 N 
ATOM     13  C6  UNL     1      21.615   2.784  29.832  0.00  0.00    +0.251 C 
ATOM     14  O3  UNL     1      22.230   1.942  30.545  0.00  0.00    -0.270 OA
ATOM     15  H5  UNL     1      20.213   4.385  30.022  0.00  0.00    +0.155 HD
BRANCH  13  16
ATOM     16  C7  UNL     1      21.432   2.514  28.386  0.00  0.00    +0.073 A 
ATOM     17  C8  UNL     1      22.247   3.195  27.440  0.00  0.00    +0.018 A 
ATOM     18  C9  UNL     1      22.092   2.978  26.060  0.00  0.00    +0.027 A 
ATOM     19  C10 UNL     1      21.111   2.082  25.648  0.00  0.00    +0.049 A 
ATOM     20  N2  UNL     1      20.794   1.744  24.387  0.00  0.00    -0.361 N 
ATOM     21  C11 UNL     1      19.774   0.860  24.489  0.00  0.00    +0.084 A 
ATOM     22  C12 UNL     1      19.445   0.637  25.822  0.00  0.00    +0.030 A 
ATOM     23  C13 UNL     1      20.313   1.428  26.544  0.00  0.00    +0.036 A 
ATOM     24  C14 UNL     1      20.436   1.616  27.920  0.00  0.00    +0.145 A 
ATOM     25  F1  UNL     1      19.587   0.979  28.764  0.00  0.00    -0.204 F 
ATOM     26  H8  UNL     1      21.236   2.092  23.509  0.00  0.00    +0.165 HD
ENDBRANCH  13  16
ENDBRANCH   3  12
BRANCH   1  27
ATOM     27  C2  UNL     1      24.370   6.375  33.207  0.00  0.00    +0.343 C 
ATOM     28  O2  UNL     1      25.467   5.779  33.023  0.00  0.00    -0.245 OA
BRANCH  27  30
ATOM     29  C1  UNL     1      23.605   8.684  32.738  0.00  0.00    +0.280 C 
ATOM     30  O1  UNL     1      24.368   7.746  33.489  0.00  0.00    -0.464 OA
ENDBRANCH  27  30
ENDBRANCH   1  27
BRANCH   6  31
ATOM     31  O5  UNL     1      22.631   6.003  35.493  0.00  0.00    -0.494 OA
ATOM     32  C20 UNL     1      22.055   7.162  36.088  0.00  0.00    +0.277 C 
ENDBRANCH   6  31
TORSDOF 6
ENDMDL
MODEL 7
REMARK VINA RESULT:    -6.271     12.149     15.046
REMARK INTER + INTRA:          -9.449
REMARK INTER:                  -8.492
REMARK INTRA:                  -0.957
REMARK UNBOUND:                -0.979
REMARK  Name = /home/qwerty/github/datacon2025hack/step_04_hit_selection/docking/ligands/lig_298.pdb
REMARK  9 active torsions:
REMARK  status: ('A' for Active; 'I' for Inactive)
REMARK    1  A    between atoms: C1_1  and  O1_2
REMARK    2  A    between atoms: O1_2  and  C2_3
REMARK    3  A    between atoms: C2_3  and  C3_5
REMARK    4  A    between atoms: C5_7  and  N1_8
REMARK    5  A    between atoms: C6_9  and  C7_11
REMARK    6  A    between atoms: C15_21  and  N3_22
REMARK    7  A    between atoms: C16_23  and  C17_24
REMARK    8  A    between atoms: C19_27  and  O5_28
REMARK    9  A    between atoms: O5_28  and  C20_29
REMARK                            x       y       z     vdW  Elec       q    Type
REMARK                         _______ _______ _______ _____ _____    ______ ____
ROOT
ATOM      1  C3  UNL     1      21.548   1.991  29.370  0.00  0.00    +0.102 A 
ATOM      2  C4  UNL     1      21.403   3.170  30.126  0.00  0.00    +0.043 A 
ATOM      3  C5  UNL     1      21.108   3.125  31.493  0.00  0.00    +0.056 A 
ATOM      4  C15 UNL     1      20.892   1.876  32.115  0.00  0.00    +0.058 A 
ATOM      5  C18 UNL     1      21.065   0.700  31.380  0.00  0.00    +0.071 A 
ATOM      6  C19 UNL     1      21.390   0.739  30.010  0.00  0.00    +0.136 A 
ENDROOT
BRANCH   4   7
ATOM      7  N3  UNL     1      20.488   1.780  33.489  0.00  0.00    -0.284 N 
ATOM      8  C16 UNL     1      19.119   1.889  33.901  0.00  0.00    +0.214 C 
ATOM      9  C17 UNL     1      18.785   1.998  35.353  0.00  0.00    +0.109 C 
ATOM     10  O4  UNL     1      18.192   1.882  33.046  0.00  0.00    -0.276 OA
ATOM     11  H11 UNL     1      21.197   1.481  34.197  0.00  0.00    +0.155 HD
ENDBRANCH   4   7
BRANCH   3  12
ATOM     12  N1  UNL     1      21.048   4.357  32.230  0.00  0.00    -0.280 N 
ATOM     13  C6  UNL     1      22.181   4.900  32.927  0.00  0.00    +0.251 C 
ATOM     14  O3  UNL     1      23.338   4.466  32.665  0.00  0.00    -0.270 OA
ATOM     15  H5  UNL     1      20.224   4.980  32.074  0.00  0.00    +0.155 HD
BRANCH  13  16
ATOM     16  C7  UNL     1      22.022   5.987  33.923  0.00  0.00    +0.073 A 
ATOM     17  C8  UNL     1      22.950   7.064  33.935  0.00  0.00    +0.018 A 
ATOM     18  C9  UNL     1      22.841   8.105  34.874  0.00  0.00    +0.027 A 
ATOM     19  C10 UNL     1      21.802   8.043  35.796  0.00  0.00    +0.049 A 
ATOM     20  N2  UNL     1      21.529   8.920  36.777  0.00  0.00    -0.361 N 
ATOM     21  C11 UNL     1      20.443   8.429  37.417  0.00  0.00    +0.084 A 
ATOM     22  C12 UNL     1      20.026   7.235  36.839  0.00  0.00    +0.030 A 
ATOM     23  C13 UNL     1      20.908   7.009  35.804  0.00  0.00    +0.036 A 
ATOM     24  C14 UNL     1      20.983   5.959  34.890  0.00  0.00    +0.145 A 
ATOM     25  F1  UNL     1      20.100   4.932  34.972  0.00  0.00    -0.204 F 
ATOM     26  H8  UNL     1      22.048   9.796  37.004  0.00  0.00    +0.165 HD
ENDBRANCH  13  16
ENDBRANCH   3  12
BRANCH   1  27
ATOM     27  C2  UNL     1      21.875   2.102  27.923  0.00  0.00    +0.343 C 
ATOM     28  O2  UNL     1      23.020   2.477  27.547  0.00  0.00    -0.245 OA
BRANCH  27  30
ATOM     29  C1  UNL     1      20.999   2.198  25.607  0.00  0.00    +0.280 C 
ATOM     30  O1  UNL     1      20.903   1.788  26.967  0.00  0.00    -0.464 OA
ENDBRANCH  27  30
ENDBRANCH   1  27
BRANCH   6  31
ATOM     31  O5  UNL     1      21.556  -0.444  29.268  0.00  0.00    -0.494 OA
ATOM     32  C20 UNL     1      22.812  -1.030  28.940  0.00  0.00    +0.277 C 
ENDBRANCH   6  31
TORSDOF 6
ENDMDL
MODEL 8
REMARK VINA RESULT:    -6.207      6.007      9.683
REMARK INTER + INTRA:          -9.363
REMARK INTER:                  -8.258
REMARK INTRA:                  -1.105
REMARK UNBOUND:                -0.979
REMARK  Name = /home/qwerty/github/datacon2025hack/step_04_hit_selection/docking/ligands/lig_298.pdb
REMARK  9 active torsions:
REMARK  status: ('A' for Active; 'I' for Inactive)
REMARK    1  A    between atoms: C1_1  and  O1_2
REMARK    2  A    between atoms: O1_2  and  C2_3
REMARK    3  A    between atoms: C2_3  and  C3_5
REMARK    4  A    between atoms: C5_7  and  N1_8
REMARK    5  A    between atoms: C6_9  and  C7_11
REMARK    6  A    between atoms: C15_21  and  N3_22
REMARK    7  A    between atoms: C16_23  and  C17_24
REMARK    8  A    between atoms: C19_27  and  O5_28
REMARK    9  A    between atoms: O5_28  and  C20_29
REMARK                            x       y       z     vdW  Elec       q    Type
REMARK                         _______ _______ _______ _____ _____    ______ ____
ROOT
ATOM      1  C3  UNL     1      20.495   1.421  28.740  0.00  0.00    +0.102 A 
ATOM      2  C4  UNL     1      19.388   1.364  27.873  0.00  0.00    +0.043 A 
ATOM      3  C5  UNL     1      19.525   1.612  26.503  0.00  0.00    +0.056 A 
ATOM      4  C15 UNL     1      20.785   1.986  25.988  0.00  0.00    +0.058 A 
ATOM      5  C18 UNL     1      21.896   2.013  26.836  0.00  0.00    +0.071 A 
ATOM      6  C19 UNL     1      21.769   1.736  28.211  0.00  0.00    +0.136 A 
ENDROOT
BRANCH   4   7
ATOM      7  N3  UNL     1      20.957   2.349  24.611  0.00  0.00    -0.284 N 
ATOM      8  C16 UNL     1      20.743   3.683  24.131  0.00  0.00    +0.214 C 
ATOM      9  C17 UNL     1      20.726   3.951  22.662  0.00  0.00    +0.109 C 
ATOM     10  O4  UNL     1      20.581   4.634  24.942  0.00  0.00    -0.276 OA
ATOM     11  H11 UNL     1      21.388   1.651  23.961  0.00  0.00    +0.155 HD
ENDBRANCH   4   7
BRANCH   3  12
ATOM     12  N1  UNL     1      18.374   1.464  25.654  0.00  0.00    -0.280 N 
ATOM     13  C6  UNL     1      18.164   0.308  24.827  0.00  0.00    +0.251 C 
ATOM     14  O3  UNL     1      18.829  -0.743  25.048  0.00  0.00    -0.270 OA
ATOM     15  H5  UNL     1      17.568   2.111  25.806  0.00  0.00    +0.155 HD
BRANCH  13  16
ATOM     16  C7  UNL     1      17.153   0.312  23.743  0.00  0.00    +0.073 A 
ATOM     17  C8  UNL     1      16.253  -0.782  23.622  0.00  0.00    +0.018 A 
ATOM     18  C9  UNL     1      15.292  -0.822  22.597  0.00  0.00    +0.027 A 
ATOM     19  C10 UNL     1      15.254   0.241  21.700  0.00  0.00    +0.049 A 
ATOM     20  N2  UNL     1      14.428   0.392  20.651  0.00  0.00    -0.361 N 
ATOM     21  C11 UNL     1      14.779   1.564  20.073  0.00  0.00    +0.084 A 
ATOM     22  C12 UNL     1      15.833   2.157  20.760  0.00  0.00    +0.030 A 
ATOM     23  C13 UNL     1      16.118   1.295  21.797  0.00  0.00    +0.036 A 
ATOM     24  C14 UNL     1      17.085   1.370  22.799  0.00  0.00    +0.145 A 
ATOM     25  F1  UNL     1      17.950   2.415  22.820  0.00  0.00    -0.204 F 
ATOM     26  H8  UNL     1      13.675  -0.260  20.340  0.00  0.00    +0.165 HD
ENDBRANCH  13  16
ENDBRANCH   3  12
BRANCH   1  27
ATOM     27  C2  UNL     1      20.290   1.134  30.186  0.00  0.00    +0.343 C 
ATOM     28  O2  UNL     1      20.662   0.037  30.685  0.00  0.00    -0.245 OA
BRANCH  27  30
ATOM     29  C1  UNL     1      18.397   1.896  31.592  0.00  0.00    +0.280 C 
ATOM     30  O1  UNL     1      19.678   2.092  31.002  0.00  0.00    -0.464 OA
ENDBRANCH  27  30
ENDBRANCH   1  27
BRANCH   6  31
ATOM     31  O5  UNL     1      22.884   1.773  29.066  0.00  0.00    -0.494 OA
ATOM     32  C20 UNL     1      23.920   0.795  29.096  0.00  0.00    +0.277 C 
ENDBRANCH   6  31
TORSDOF 6
ENDMDL
MODEL 9
REMARK VINA RESULT:    -6.187      7.540     10.957
REMARK INTER + INTRA:          -9.337
REMARK INTER:                  -8.339
REMARK INTRA:                  -0.998
REMARK UNBOUND:                -0.979
REMARK  Name = /home/qwerty/github/datacon2025hack/step_04_hit_selection/docking/ligands/lig_298.pdb
REMARK  9 active torsions:
REMARK  status: ('A' for Active; 'I' for Inactive)
REMARK    1  A    between atoms: C1_1  and  O1_2
REMARK    2  A    between atoms: O1_2  and  C2_3
REMARK    3  A    between atoms: C2_3  and  C3_5
REMARK    4  A    between atoms: C5_7  and  N1_8
REMARK    5  A    between atoms: C6_9  and  C7_11
REMARK    6  A    between atoms: C15_21  and  N3_22
REMARK    7  A    between atoms: C16_23  and  C17_24
REMARK    8  A    between atoms: C19_27  and  O5_28
REMARK    9  A    between atoms: O5_28  and  C20_29
REMARK                            x       y       z     vdW  Elec       q    Type
REMARK                         _______ _______ _______ _____ _____    ______ ____
ROOT
ATOM      1  C3  UNL     1       9.639  11.211  27.861  0.00  0.00    +0.102 A 
ATOM      2  C4  UNL     1       9.247  10.157  27.015  0.00  0.00    +0.043 A 
ATOM      3  C5  UNL     1       8.305   9.207  27.425  0.00  0.00    +0.056 A 
ATOM      4  C15 UNL     1       7.781   9.271  28.734  0.00  0.00    +0.058 A 
ATOM      5  C18 UNL     1       8.140  10.332  29.570  0.00  0.00    +0.071 A 
ATOM      6  C19 UNL     1       9.067  11.307  29.152  0.00  0.00    +0.136 A 
ENDROOT
BRANCH   4   7
ATOM      7  N3  UNL     1       6.890   8.265  29.238  0.00  0.00    -0.284 N 
ATOM      8  C16 UNL     1       7.357   7.054  29.846  0.00  0.00    +0.214 C 
ATOM      9  C17 UNL     1       6.393   5.955  30.151  0.00  0.00    +0.109 C 
ATOM     10  O4  UNL     1       8.576   6.914  30.136  0.00  0.00    -0.276 OA
ATOM     11  H11 UNL     1       5.869   8.485  29.290  0.00  0.00    +0.155 HD
ENDBRANCH   4   7
BRANCH   3  12
ATOM     12  N1  UNL     1       7.886   8.198  26.491  0.00  0.00    -0.280 N 
ATOM     13  C6  UNL     1       8.689   7.048  26.181  0.00  0.00    +0.251 C 
ATOM     14  O3  UNL     1       9.647   6.735  26.942  0.00  0.00    -0.270 OA
ATOM     15  H5  UNL     1       6.884   8.191  26.197  0.00  0.00    +0.155 HD
BRANCH  13  16
ATOM     16  C7  UNL     1       8.390   6.197  25.004  0.00  0.00    +0.073 A 
ATOM     17  C8  UNL     1       8.018   4.838  25.201  0.00  0.00    +0.018 A 
ATOM     18  C9  UNL     1       7.742   3.996  24.109  0.00  0.00    +0.027 A 
ATOM     19  C10 UNL     1       7.853   4.532  22.830  0.00  0.00    +0.049 A 
ATOM     20  N2  UNL     1       7.647   3.901  21.662  0.00  0.00    -0.361 N 
ATOM     21  C11 UNL     1       7.890   4.820  20.700  0.00  0.00    +0.084 A 
ATOM     22  C12 UNL     1       8.251   6.040  21.262  0.00  0.00    +0.030 A 
ATOM     23  C13 UNL     1       8.219   5.833  22.624  0.00  0.00    +0.036 A 
ATOM     24  C14 UNL     1       8.500   6.698  23.681  0.00  0.00    +0.145 A 
ATOM     25  F1  UNL     1       8.906   7.966  23.420  0.00  0.00    -0.204 F 
ATOM     26  H8  UNL     1       7.365   2.906  21.522  0.00  0.00    +0.165 HD
ENDBRANCH  13  16
ENDBRANCH   3  12
BRANCH   1  27
ATOM     27  C2  UNL     1      10.636  12.197  27.365  0.00  0.00    +0.343 C 
ATOM     28  O2  UNL     1      11.742  11.814  26.892  0.00  0.00    -0.245 OA
BRANCH  27  30
ATOM     29  C1  UNL     1      11.302  14.539  27.824  0.00  0.00    +0.280 C 
ATOM     30  O1  UNL     1      10.345  13.565  27.422  0.00  0.00    -0.464 OA
ENDBRANCH  27  30
ENDBRANCH   1  27
BRANCH   6  31
ATOM     31  O5  UNL     1       9.435  12.370  29.995  0.00  0.00    -0.494 OA
ATOM     32  C20 UNL     1      10.612  12.402  30.798  0.00  0.00    +0.277 C 
ENDBRANCH   6  31
TORSDOF 6
ENDMDL
