MODEL 1
REMARK VINA RESULT:    -8.700      0.000      0.000
REMARK INTER + INTRA:         -11.003
REMARK INTER:                 -10.225
REMARK INTRA:                  -0.778
REMARK UNBOUND:                -0.778
REMARK  Name = /home/qwerty/github/datacon2025hack/step_04_hit_selection/docking/ligands/lig_397.pdb
REMARK  3 active torsions:
REMARK  status: ('A' for Active; 'I' for Inactive)
REMARK    1  A    between atoms: N1_3  and  C2_4
REMARK    2  A    between atoms: N2_15  and  C11_16
REMARK    3  A    between atoms: C17_24  and  C18_25
REMARK                            x       y       z     vdW  Elec       q    Type
REMARK                         _______ _______ _______ _____ _____    ______ ____
ROOT
ATOM      1  C11 UNL     1      21.590   1.491  30.668  0.00  0.00    +0.044 A 
ATOM      2  C12 UNL     1      20.794   0.342  30.805  0.00  0.00    +0.024 A 
ATOM      3  C13 UNL     1      19.975   0.172  31.921  0.00  0.00    +0.004 A 
ATOM      4  C14 UNL     1      19.930   1.149  32.915  0.00  0.00    +0.026 A 
ATOM      5  C15 UNL     1      20.711   2.309  32.803  0.00  0.00    +0.051 A 
ATOM      6  N3  UNL     1      20.663   3.261  33.778  0.00  0.00    -0.322 N 
ATOM      7  C16 UNL     1      21.414   4.395  33.715  0.00  0.00    +0.257 A 
ATOM      8  O4  UNL     1      21.308   5.257  34.630  0.00  0.00    -0.267 OA
ATOM      9  C17 UNL     1      22.285   4.609  32.630  0.00  0.00    +0.047 A 
ATOM     10  C24 UNL     1      22.343   3.645  31.613  0.00  0.00    +0.025 A 
ATOM     11  C25 UNL     1      21.550   2.487  31.676  0.00  0.00    +0.020 A 
ATOM     12  H15 UNL     1      20.030   3.126  34.601  0.00  0.00    +0.169 HD
ENDROOT
BRANCH   9  13
ATOM     13  C18 UNL     1      23.136   5.822  32.541  0.00  0.00    -0.013 A 
ATOM     14  C19 UNL     1      22.721   6.938  31.791  0.00  0.00    +0.011 A 
ATOM     15  C20 UNL     1      23.523   8.081  31.720  0.00  0.00    +0.039 A 
ATOM     16  C21 UNL     1      24.743   8.124  32.400  0.00  0.00    +0.123 A 
ATOM     17  F1  UNL     1      25.519   9.233  32.329  0.00  0.00    -0.205 F 
ATOM     18  C22 UNL     1      25.162   7.024  33.153  0.00  0.00    +0.039 A 
ATOM     19  C23 UNL     1      24.363   5.879  33.227  0.00  0.00    +0.011 A 
ENDBRANCH   9  13
BRANCH   1  23
ATOM     20  O1  UNL     1      20.651   2.560  28.186  0.00  0.00    -0.252 OA
ATOM     21  C1  UNL     1      21.881   2.298  28.292  0.00  0.00    +0.308 C 
ATOM     22  N1  UNL     1      22.775   2.563  27.199  0.00  0.00    -0.269 N 
ATOM     23  N2  UNL     1      22.382   1.669  29.480  0.00  0.00    -0.269 N 
ATOM     24  H1  UNL     1      23.697   2.073  27.199  0.00  0.00    +0.156 HD
ATOM     25  H11 UNL     1      23.367   1.323  29.477  0.00  0.00    +0.156 HD
BRANCH  22  26
ATOM     26  C2  UNL     1      22.437   3.369  26.058  0.00  0.00    +0.038 A 
ATOM     27  C3  UNL     1      23.042   4.620  25.899  0.00  0.00    +0.027 A 
ATOM     28  C4  UNL     1      22.722   5.425  24.805  0.00  0.00    +0.051 A 
ATOM     29  C5  UNL     1      21.767   5.014  23.867  0.00  0.00    +0.162 A 
ATOM     30  C6  UNL     1      21.130   3.761  24.033  0.00  0.00    +0.164 A 
ATOM     31  C7  UNL     1      21.474   2.952  25.123  0.00  0.00    +0.072 A 
ATOM     32  O2  UNL     1      20.204   3.244  23.118  0.00  0.00    -0.488 OA
ATOM     33  C8  UNL     1      19.121   3.978  22.561  0.00  0.00    +0.232 C 
ATOM     34  C9  UNL     1      19.607   5.013  21.556  0.00  0.00    +0.082 C 
ATOM     35  C10 UNL     1      20.260   6.193  22.260  0.00  0.00    +0.232 C 
ATOM     36  O3  UNL     1      21.543   5.851  22.769  0.00  0.00    -0.488 OA
ENDBRANCH  22  26
ENDBRANCH   1  23
TORSDOF 3
ENDMDL
MODEL 2
REMARK VINA RESULT:    -8.411     13.801     15.300
REMARK INTER + INTRA:         -10.664
REMARK INTER:                  -9.858
REMARK INTRA:                  -0.806
REMARK UNBOUND:                -0.778
REMARK  Name = /home/qwerty/github/datacon2025hack/step_04_hit_selection/docking/ligands/lig_397.pdb
REMARK  3 active torsions:
REMARK  status: ('A' for Active; 'I' for Inactive)
REMARK    1  A    between atoms: N1_3  and  C2_4
REMARK    2  A    between atoms: N2_15  and  C11_16
REMARK    3  A    between atoms: C17_24  and  C18_25
REMARK                            x       y       z     vdW  Elec       q    Type
REMARK                         _______ _______ _______ _____ _____    ______ ____
ROOT
ATOM      1  C11 UNL     1      10.202  13.642  29.085  0.00  0.00    +0.044 A 
ATOM      2  C12 UNL     1      10.550  14.113  27.808  0.00  0.00    +0.024 A 
ATOM      3  C13 UNL     1      11.788  14.715  27.584  0.00  0.00    +0.004 A 
ATOM      4  C14 UNL     1      12.703  14.848  28.627  0.00  0.00    +0.026 A 
ATOM      5  C15 UNL     1      12.385  14.384  29.912  0.00  0.00    +0.051 A 
ATOM      6  N3  UNL     1      13.284  14.518  30.929  0.00  0.00    -0.322 N 
ATOM      7  C16 UNL     1      13.011  14.092  32.193  0.00  0.00    +0.257 A 
ATOM      8  O4  UNL     1      13.890  14.213  33.088  0.00  0.00    -0.267 OA
ATOM      9  C17 UNL     1      11.765  13.506  32.490  0.00  0.00    +0.047 A 
ATOM     10  C24 UNL     1      10.830  13.353  31.456  0.00  0.00    +0.025 A 
ATOM     11  C25 UNL     1      11.128  13.777  30.150  0.00  0.00    +0.020 A 
ATOM     12  H15 UNL     1      14.216  14.956  30.740  0.00  0.00    +0.169 HD
ENDROOT
BRANCH   9  13
ATOM     13  C18 UNL     1      11.424  13.054  33.862  0.00  0.00    -0.013 A 
ATOM     14  C19 UNL     1      11.648  11.721  34.255  0.00  0.00    +0.011 A 
ATOM     15  C20 UNL     1      11.334  11.304  35.552  0.00  0.00    +0.039 A 
ATOM     16  C21 UNL     1      10.799  12.212  36.470  0.00  0.00    +0.123 A 
ATOM     17  F1  UNL     1      10.495  11.805  37.727  0.00  0.00    -0.205 F 
ATOM     18  C22 UNL     1      10.579  13.539  36.092  0.00  0.00    +0.039 A 
ATOM     19  C23 UNL     1      10.892  13.961  34.797  0.00  0.00    +0.011 A 
ENDBRANCH   9  13
BRANCH   1  23
ATOM     20  O1  UNL     1       9.701  10.866  28.608  0.00  0.00    -0.252 OA
ATOM     21  C1  UNL     1       8.774  11.558  29.111  0.00  0.00    +0.308 C 
ATOM     22  N1  UNL     1       7.520  10.949  29.456  0.00  0.00    -0.269 N 
ATOM     23  N2  UNL     1       8.942  12.973  29.277  0.00  0.00    -0.269 N 
ATOM     24  H1  UNL     1       6.695  11.577  29.582  0.00  0.00    +0.156 HD
ATOM     25  H11 UNL     1       8.109  13.541  29.547  0.00  0.00    +0.156 HD
BRANCH  22  26
ATOM     26  C2  UNL     1       7.306   9.529  29.532  0.00  0.00    +0.038 A 
ATOM     27  C3  UNL     1       7.135   8.927  30.783  0.00  0.00    +0.027 A 
ATOM     28  C4  UNL     1       6.937   7.549  30.881  0.00  0.00    +0.051 A 
ATOM     29  C5  UNL     1       6.942   6.740  29.738  0.00  0.00    +0.162 A 
ATOM     30  C6  UNL     1       7.141   7.336  28.469  0.00  0.00    +0.164 A 
ATOM     31  C7  UNL     1       7.317   8.723  28.380  0.00  0.00    +0.072 A 
ATOM     32  O2  UNL     1       7.108   6.615  27.270  0.00  0.00    -0.488 OA
ATOM     33  C8  UNL     1       7.778   5.381  27.048  0.00  0.00    +0.232 C 
ATOM     34  C9  UNL     1       7.111   4.241  27.806  0.00  0.00    +0.082 C 
ATOM     35  C10 UNL     1       7.412   4.326  29.295  0.00  0.00    +0.232 C 
ATOM     36  O3  UNL     1       6.681   5.376  29.914  0.00  0.00    -0.488 OA
ENDBRANCH  22  26
ENDBRANCH   1  23
TORSDOF 3
ENDMDL
MODEL 3
REMARK VINA RESULT:    -8.351      4.944     10.551
REMARK INTER + INTRA:         -10.593
REMARK INTER:                  -9.936
REMARK INTRA:                  -0.657
REMARK UNBOUND:                -0.778
REMARK  Name = /home/qwerty/github/datacon2025hack/step_04_hit_selection/docking/ligands/lig_397.pdb
REMARK  3 active torsions:
REMARK  status: ('A' for Active; 'I' for Inactive)
REMARK    1  A    between atoms: N1_3  and  C2_4
REMARK    2  A    between atoms: N2_15  and  C11_16
REMARK    3  A    between atoms: C17_24  and  C18_25
REMARK                            x       y       z     vdW  Elec       q    Type
REMARK                         _______ _______ _______ _____ _____    ______ ____
ROOT
ATOM      1  C11 UNL     1      21.468   1.508  27.413  0.00  0.00    +0.044 A 
ATOM      2  C12 UNL     1      22.542   2.406  27.298  0.00  0.00    +0.024 A 
ATOM      3  C13 UNL     1      22.651   3.248  26.191  0.00  0.00    +0.004 A 
ATOM      4  C14 UNL     1      21.687   3.214  25.185  0.00  0.00    +0.026 A 
ATOM      5  C15 UNL     1      20.600   2.330  25.275  0.00  0.00    +0.051 A 
ATOM      6  N3  UNL     1      19.660   2.302  24.287  0.00  0.00    -0.322 N 
ATOM      7  C16 UNL     1      18.598   1.451  24.329  0.00  0.00    +0.257 A 
ATOM      8  O4  UNL     1      17.742   1.488  23.404  0.00  0.00    -0.267 OA
ATOM      9  C17 UNL     1      18.450   0.554  25.404  0.00  0.00    +0.047 A 
ATOM     10  C24 UNL     1      19.403   0.574  26.433  0.00  0.00    +0.025 A 
ATOM     11  C25 UNL     1      20.485   1.468  26.392  0.00  0.00    +0.020 A 
ATOM     12  H15 UNL     1      19.748   2.952  23.471  0.00  0.00    +0.169 HD
ENDROOT
BRANCH   9  13
ATOM     13  C18 UNL     1      17.317  -0.404  25.469  0.00  0.00    -0.013 A 
ATOM     14  C19 UNL     1      16.187  -0.127  26.261  0.00  0.00    +0.011 A 
ATOM     15  C20 UNL     1      15.120  -1.029  26.309  0.00  0.00    +0.039 A 
ATOM     16  C21 UNL     1      15.168  -2.212  25.567  0.00  0.00    +0.123 A 
ATOM     17  F1  UNL     1      14.132  -3.085  25.616  0.00  0.00    -0.205 F 
ATOM     18  C22 UNL     1      16.282  -2.493  24.773  0.00  0.00    +0.039 A 
ATOM     19  C23 UNL     1      17.351  -1.594  24.720  0.00  0.00    +0.011 A 
ENDBRANCH   9  13
BRANCH   1  23
ATOM     20  O1  UNL     1      20.342   2.342  29.907  0.00  0.00    -0.252 OA
ATOM     21  C1  UNL     1      20.688   1.135  29.786  0.00  0.00    +0.308 C 
ATOM     22  N1  UNL     1      20.487   0.212  30.869  0.00  0.00    -0.269 N 
ATOM     23  N2  UNL     1      21.347   0.692  28.591  0.00  0.00    -0.269 N 
ATOM     24  H1  UNL     1      21.040  -0.675  30.857  0.00  0.00    +0.156 HD
ATOM     25  H11 UNL     1      21.760  -0.267  28.583  0.00  0.00    +0.156 HD
BRANCH  22  26
ATOM     26  C2  UNL     1      19.662   0.480  32.015  0.00  0.00    +0.038 A 
ATOM     27  C3  UNL     1      18.546  -0.327  32.260  0.00  0.00    +0.027 A 
ATOM     28  C4  UNL     1      17.725  -0.080  33.360  0.00  0.00    +0.051 A 
ATOM     29  C5  UNL     1      17.978   0.998  34.217  0.00  0.00    +0.162 A 
ATOM     30  C6  UNL     1      19.090   1.837  33.963  0.00  0.00    +0.164 A 
ATOM     31  C7  UNL     1      19.921   1.567  32.868  0.00  0.00    +0.072 A 
ATOM     32  O2  UNL     1      19.452   2.903  34.795  0.00  0.00    -0.488 OA
ATOM     33  C8  UNL     1      18.548   3.875  35.307  0.00  0.00    +0.232 C 
ATOM     34  C9  UNL     1      17.644   3.283  36.380  0.00  0.00    +0.082 C 
ATOM     35  C10 UNL     1      16.585   2.380  35.765  0.00  0.00    +0.232 C 
ATOM     36  O3  UNL     1      17.142   1.147  35.329  0.00  0.00    -0.488 OA
ENDBRANCH  22  26
ENDBRANCH   1  23
TORSDOF 3
ENDMDL
MODEL 4
REMARK VINA RESULT:    -8.336     13.011     15.811
REMARK INTER + INTRA:         -10.575
REMARK INTER:                  -9.837
REMARK INTRA:                  -0.739
REMARK UNBOUND:                -0.778
REMARK  Name = /home/qwerty/github/datacon2025hack/step_04_hit_selection/docking/ligands/lig_397.pdb
REMARK  3 active torsions:
REMARK  status: ('A' for Active; 'I' for Inactive)
REMARK    1  A    between atoms: N1_3  and  C2_4
REMARK    2  A    between atoms: N2_15  and  C11_16
REMARK    3  A    between atoms: C17_24  and  C18_25
REMARK                            x       y       z     vdW  Elec       q    Type
REMARK                         _______ _______ _______ _____ _____    ______ ____
ROOT
ATOM      1  C11 UNL     1       8.170  11.292  28.138  0.00  0.00    +0.044 A 
ATOM      2  C12 UNL     1       7.626  10.979  29.395  0.00  0.00    +0.024 A 
ATOM      3  C13 UNL     1       7.143   9.698  29.663  0.00  0.00    +0.004 A 
ATOM      4  C14 UNL     1       7.202   8.707  28.685  0.00  0.00    +0.026 A 
ATOM      5  C15 UNL     1       7.743   8.989  27.421  0.00  0.00    +0.051 A 
ATOM      6  N3  UNL     1       7.797   8.015  26.468  0.00  0.00    -0.322 N 
ATOM      7  C16 UNL     1       8.303   8.250  25.226  0.00  0.00    +0.257 A 
ATOM      8  O4  UNL     1       8.357   7.305  24.393  0.00  0.00    -0.267 OA
ATOM      9  C17 UNL     1       8.776   9.532  24.884  0.00  0.00    +0.047 A 
ATOM     10  C24 UNL     1       8.735  10.545  25.854  0.00  0.00    +0.025 A 
ATOM     11  C25 UNL     1       8.230  10.288  27.139  0.00  0.00    +0.020 A 
ATOM     12  H15 UNL     1       7.446   7.054  26.691  0.00  0.00    +0.169 HD
ENDROOT
BRANCH   9  13
ATOM     13  C18 UNL     1       9.310   9.830  23.531  0.00  0.00    -0.013 A 
ATOM     14  C19 UNL     1      10.697   9.820  23.289  0.00  0.00    +0.011 A 
ATOM     15  C20 UNL     1      11.192  10.091  22.011  0.00  0.00    +0.039 A 
ATOM     16  C21 UNL     1      10.312  10.371  20.962  0.00  0.00    +0.123 A 
ATOM     17  F1  UNL     1      10.795  10.634  19.723  0.00  0.00    -0.205 F 
ATOM     18  C22 UNL     1       8.934  10.376  21.191  0.00  0.00    +0.039 A 
ATOM     19  C23 UNL     1       8.433  10.105  22.467  0.00  0.00    +0.011 A 
ENDBRANCH   9  13
BRANCH   1  23
ATOM     20  O1  UNL     1      10.859  12.100  28.686  0.00  0.00    -0.252 OA
ATOM     21  C1  UNL     1      10.096  12.926  28.113  0.00  0.00    +0.308 C 
ATOM     22  N1  UNL     1      10.589  14.218  27.726  0.00  0.00    -0.269 N 
ATOM     23  N2  UNL     1       8.713  12.604  27.906  0.00  0.00    -0.269 N 
ATOM     24  H1  UNL     1       9.885  14.967  27.537  0.00  0.00    +0.156 HD
ATOM     25  H11 UNL     1       8.075  13.361  27.575  0.00  0.00    +0.156 HD
BRANCH  22  26
ATOM     26  C2  UNL     1      11.981  14.574  27.689  0.00  0.00    +0.038 A 
ATOM     27  C3  UNL     1      12.584  14.860  26.460  0.00  0.00    +0.027 A 
ATOM     28  C4  UNL     1      13.936  15.197  26.398  0.00  0.00    +0.051 A 
ATOM     29  C5  UNL     1      14.723  15.221  27.556  0.00  0.00    +0.162 A 
ATOM     30  C6  UNL     1      14.129  14.907  28.803  0.00  0.00    +0.164 A 
ATOM     31  C7  UNL     1      12.765  14.592  28.856  0.00  0.00    +0.072 A 
ATOM     32  O2  UNL     1      14.823  14.959  30.017  0.00  0.00    -0.488 OA
ATOM     33  C8  UNL     1      16.114  14.404  30.236  0.00  0.00    +0.232 C 
ATOM     34  C9  UNL     1      17.195  15.213  29.531  0.00  0.00    +0.082 C 
ATOM     35  C10 UNL     1      17.164  14.972  28.030  0.00  0.00    +0.232 C 
ATOM     36  O3  UNL     1      16.057  15.622  27.420  0.00  0.00    -0.488 OA
ENDBRANCH  22  26
ENDBRANCH   1  23
TORSDOF 3
ENDMDL
MODEL 5
REMARK VINA RESULT:    -7.828      5.130     10.355
REMARK INTER + INTRA:          -9.979
REMARK INTER:                  -9.204
REMARK INTRA:                  -0.775
REMARK UNBOUND:                -0.778
REMARK  Name = /home/qwerty/github/datacon2025hack/step_04_hit_selection/docking/ligands/lig_397.pdb
REMARK  3 active torsions:
REMARK  status: ('A' for Active; 'I' for Inactive)
REMARK    1  A    between atoms: N1_3  and  C2_4
REMARK    2  A    between atoms: N2_15  and  C11_16
REMARK    3  A    between atoms: C17_24  and  C18_25
REMARK                            x       y       z     vdW  Elec       q    Type
REMARK                         _______ _______ _______ _____ _____    ______ ____
ROOT
ATOM      1  C11 UNL     1      17.809  -0.864  24.369  0.00  0.00    +0.044 A 
ATOM      2  C12 UNL     1      17.614  -2.133  24.940  0.00  0.00    +0.024 A 
ATOM      3  C13 UNL     1      16.453  -2.860  24.681  0.00  0.00    +0.004 A 
ATOM      4  C14 UNL     1      15.471  -2.339  23.840  0.00  0.00    +0.026 A 
ATOM      5  C15 UNL     1      15.640  -1.076  23.252  0.00  0.00    +0.051 A 
ATOM      6  N3  UNL     1      14.675  -0.572  22.430  0.00  0.00    -0.322 N 
ATOM      7  C16 UNL     1      14.793   0.654  21.849  0.00  0.00    +0.257 A 
ATOM      8  O4  UNL     1      13.885   1.059  21.074  0.00  0.00    -0.267 OA
ATOM      9  C17 UNL     1      15.927   1.450  22.098  0.00  0.00    +0.047 A 
ATOM     10  C24 UNL     1      16.934   0.945  22.935  0.00  0.00    +0.025 A 
ATOM     11  C25 UNL     1      16.813  -0.329  23.514  0.00  0.00    +0.020 A 
ATOM     12  H15 UNL     1      13.817  -1.138  22.232  0.00  0.00    +0.169 HD
ENDROOT
BRANCH   9  13
ATOM     13  C18 UNL     1      16.077   2.802  21.501  0.00  0.00    -0.013 A 
ATOM     14  C19 UNL     1      16.479   2.954  20.161  0.00  0.00    +0.011 A 
ATOM     15  C20 UNL     1      16.608   4.228  19.603  0.00  0.00    +0.039 A 
ATOM     16  C21 UNL     1      16.335   5.363  20.372  0.00  0.00    +0.123 A 
ATOM     17  F1  UNL     1      16.461   6.597  19.828  0.00  0.00    -0.205 F 
ATOM     18  C22 UNL     1      15.929   5.222  21.702  0.00  0.00    +0.039 A 
ATOM     19  C23 UNL     1      15.797   3.949  22.265  0.00  0.00    +0.011 A 
ENDBRANCH   9  13
BRANCH   1  23
ATOM     20  O1  UNL     1      18.516   0.481  26.793  0.00  0.00    -0.252 OA
ATOM     21  C1  UNL     1      19.380   0.417  25.876  0.00  0.00    +0.308 C 
ATOM     22  N1  UNL     1      20.686   0.981  26.071  0.00  0.00    -0.269 N 
ATOM     23  N2  UNL     1      19.041  -0.159  24.606  0.00  0.00    -0.269 N 
ATOM     24  H1  UNL     1      21.260   1.179  25.221  0.00  0.00    +0.156 HD
ATOM     25  H11 UNL     1      19.721  -0.058  23.821  0.00  0.00    +0.156 HD
BRANCH  22  26
ATOM     26  C2  UNL     1      21.206   1.390  27.348  0.00  0.00    +0.038 A 
ATOM     27  C3  UNL     1      21.807   0.440  28.180  0.00  0.00    +0.027 A 
ATOM     28  C4  UNL     1      22.309   0.812  29.428  0.00  0.00    +0.051 A 
ATOM     29  C5  UNL     1      22.190   2.130  29.886  0.00  0.00    +0.162 A 
ATOM     30  C6  UNL     1      21.560   3.094  29.062  0.00  0.00    +0.164 A 
ATOM     31  C7  UNL     1      21.079   2.714  27.802  0.00  0.00    +0.072 A 
ATOM     32  O2  UNL     1      21.445   4.444  29.412  0.00  0.00    -0.488 OA
ATOM     33  C8  UNL     1      21.016   4.917  30.683  0.00  0.00    +0.232 C 
ATOM     34  C9  UNL     1      22.075   4.682  31.751  0.00  0.00    +0.082 C 
ATOM     35  C10 UNL     1      22.144   3.212  32.137  0.00  0.00    +0.232 C 
ATOM     36  O3  UNL     1      22.767   2.436  31.123  0.00  0.00    -0.488 OA
ENDBRANCH  22  26
ENDBRANCH   1  23
TORSDOF 3
ENDMDL
MODEL 6
REMARK VINA RESULT:    -7.639      4.049      6.209
REMARK INTER + INTRA:          -9.757
REMARK INTER:                  -9.151
REMARK INTRA:                  -0.606
REMARK UNBOUND:                -0.778
REMARK  Name = /home/qwerty/github/datacon2025hack/step_04_hit_selection/docking/ligands/lig_397.pdb
REMARK  3 active torsions:
REMARK  status: ('A' for Active; 'I' for Inactive)
REMARK    1  A    between atoms: N1_3  and  C2_4
REMARK    2  A    between atoms: N2_15  and  C11_16
REMARK    3  A    between atoms: C17_24  and  C18_25
REMARK                            x       y       z     vdW  Elec       q    Type
REMARK                         _______ _______ _______ _____ _____    ______ ____
ROOT
ATOM      1  C11 UNL     1      20.211   5.059  27.384  0.00  0.00    +0.044 A 
ATOM      2  C12 UNL     1      19.522   6.265  27.600  0.00  0.00    +0.024 A 
ATOM      3  C13 UNL     1      19.363   6.774  28.888  0.00  0.00    +0.004 A 
ATOM      4  C14 UNL     1      19.895   6.094  29.983  0.00  0.00    +0.026 A 
ATOM      5  C15 UNL     1      20.591   4.890  29.798  0.00  0.00    +0.051 A 
ATOM      6  N3  UNL     1      21.109   4.229  30.872  0.00  0.00    -0.322 N 
ATOM      7  C16 UNL     1      21.781   3.051  30.739  0.00  0.00    +0.257 A 
ATOM      8  O4  UNL     1      22.265   2.498  31.763  0.00  0.00    -0.267 OA
ATOM      9  C17 UNL     1      21.945   2.470  29.467  0.00  0.00    +0.047 A 
ATOM     10  C24 UNL     1      21.426   3.139  28.349  0.00  0.00    +0.025 A 
ATOM     11  C25 UNL     1      20.752   4.363  28.494  0.00  0.00    +0.020 A 
ATOM     12  H15 UNL     1      20.996   4.633  31.832  0.00  0.00    +0.169 HD
ENDROOT
BRANCH   9  13
ATOM     13  C18 UNL     1      22.650   1.175  29.288  0.00  0.00    -0.013 A 
ATOM     14  C19 UNL     1      21.925  -0.016  29.098  0.00  0.00    +0.011 A 
ATOM     15  C20 UNL     1      22.595  -1.230  28.919  0.00  0.00    +0.039 A 
ATOM     16  C21 UNL     1      23.992  -1.267  28.924  0.00  0.00    +0.123 A 
ATOM     17  F1  UNL     1      24.639  -2.445  28.751  0.00  0.00    -0.205 F 
ATOM     18  C22 UNL     1      24.721  -0.089  29.105  0.00  0.00    +0.039 A 
ATOM     19  C23 UNL     1      24.056   1.127  29.283  0.00  0.00    +0.011 A 
ENDBRANCH   9  13
BRANCH   1  23
ATOM     20  O1  UNL     1      18.184   3.967  25.686  0.00  0.00    -0.252 OA
ATOM     21  C1  UNL     1      19.337   4.135  25.202  0.00  0.00    +0.308 C 
ATOM     22  N1  UNL     1      19.599   3.810  23.828  0.00  0.00    -0.269 N 
ATOM     23  N2  UNL     1      20.410   4.586  26.040  0.00  0.00    -0.269 N 
ATOM     24  H1  UNL     1      20.596   3.674  23.545  0.00  0.00    +0.156 HD
ATOM     25  H11 UNL     1      21.380   4.565  25.654  0.00  0.00    +0.156 HD
BRANCH  22  26
ATOM     26  C2  UNL     1      18.578   3.554  22.849  0.00  0.00    +0.038 A 
ATOM     27  C3  UNL     1      18.355   4.486  21.830  0.00  0.00    +0.027 A 
ATOM     28  C4  UNL     1      17.362   4.264  20.876  0.00  0.00    +0.051 A 
ATOM     29  C5  UNL     1      16.547   3.127  20.939  0.00  0.00    +0.162 A 
ATOM     30  C6  UNL     1      16.746   2.191  21.982  0.00  0.00    +0.164 A 
ATOM     31  C7  UNL     1      17.761   2.412  22.922  0.00  0.00    +0.072 A 
ATOM     32  O2  UNL     1      16.018   1.001  22.094  0.00  0.00    -0.488 OA
ATOM     33  C8  UNL     1      14.604   0.902  21.968  0.00  0.00    +0.232 C 
ATOM     34  C9  UNL     1      14.159   1.094  20.524  0.00  0.00    +0.082 C 
ATOM     35  C10 UNL     1      14.260   2.554  20.112  0.00  0.00    +0.232 C 
ATOM     36  O3  UNL     1      15.611   2.948  19.914  0.00  0.00    -0.488 OA
ENDBRANCH  22  26
ENDBRANCH   1  23
TORSDOF 3
ENDMDL
MODEL 7
REMARK VINA RESULT:    -7.574      3.920      6.254
REMARK INTER + INTRA:          -9.681
REMARK INTER:                  -8.871
REMARK INTRA:                  -0.810
REMARK UNBOUND:                -0.778
REMARK  Name = /home/qwerty/github/datacon2025hack/step_04_hit_selection/docking/ligands/lig_397.pdb
REMARK  3 active torsions:
REMARK  status: ('A' for Active; 'I' for Inactive)
REMARK    1  A    between atoms: N1_3  and  C2_4
REMARK    2  A    between atoms: N2_15  and  C11_16
REMARK    3  A    between atoms: C17_24  and  C18_25
REMARK                            x       y       z     vdW  Elec       q    Type
REMARK                         _______ _______ _______ _____ _____    ______ ____
ROOT
ATOM      1  C11 UNL     1      23.361   5.534  33.347  0.00  0.00    +0.044 A 
ATOM      2  C12 UNL     1      24.590   5.931  32.793  0.00  0.00    +0.024 A 
ATOM      3  C13 UNL     1      25.121   7.191  33.067  0.00  0.00    +0.004 A 
ATOM      4  C14 UNL     1      24.440   8.073  33.905  0.00  0.00    +0.026 A 
ATOM      5  C15 UNL     1      23.213   7.702  34.476  0.00  0.00    +0.051 A 
ATOM      6  N3  UNL     1      22.552   8.570  35.295  0.00  0.00    -0.322 N 
ATOM      7  C16 UNL     1      21.353   8.255  35.859  0.00  0.00    +0.257 A 
ATOM      8  O4  UNL     1      20.800   9.083  36.633  0.00  0.00    -0.267 OA
ATOM      9  C17 UNL     1      20.750   7.011  35.594  0.00  0.00    +0.047 A 
ATOM     10  C24 UNL     1      21.418   6.103  34.760  0.00  0.00    +0.025 A 
ATOM     11  C25 UNL     1      22.664   6.427  34.198  0.00  0.00    +0.020 A 
ATOM     12  H15 UNL     1      22.973   9.505  35.504  0.00  0.00    +0.169 HD
ENDROOT
BRANCH   9  13
ATOM     13  C18 UNL     1      19.432   6.645  36.173  0.00  0.00    -0.013 A 
ATOM     14  C19 UNL     1      18.268   6.673  35.382  0.00  0.00    +0.011 A 
ATOM     15  C20 UNL     1      17.033   6.318  35.931  0.00  0.00    +0.039 A 
ATOM     16  C21 UNL     1      16.946   5.927  37.270  0.00  0.00    +0.123 A 
ATOM     17  F1  UNL     1      15.747   5.583  37.799  0.00  0.00    -0.205 F 
ATOM     18  C22 UNL     1      18.097   5.890  38.061  0.00  0.00    +0.039 A 
ATOM     19  C23 UNL     1      19.335   6.244  37.517  0.00  0.00    +0.011 A 
ENDBRANCH   9  13
BRANCH   1  23
ATOM     20  O1  UNL     1      21.993   4.693  30.979  0.00  0.00    -0.252 OA
ATOM     21  C1  UNL     1      22.268   3.820  31.848  0.00  0.00    +0.308 C 
ATOM     22  N1  UNL     1      21.923   2.443  31.625  0.00  0.00    -0.269 N 
ATOM     23  N2  UNL     1      22.863   4.208  33.094  0.00  0.00    -0.269 N 
ATOM     24  H1  UNL     1      21.886   1.813  32.458  0.00  0.00    +0.156 HD
ATOM     25  H11 UNL     1      22.934   3.493  33.851  0.00  0.00    +0.156 HD
BRANCH  22  26
ATOM     26  C2  UNL     1      21.523   1.907  30.353  0.00  0.00    +0.038 A 
ATOM     27  C3  UNL     1      22.502   1.531  29.428  0.00  0.00    +0.027 A 
ATOM     28  C4  UNL     1      22.137   1.018  28.183  0.00  0.00    +0.051 A 
ATOM     29  C5  UNL     1      20.789   0.903  27.821  0.00  0.00    +0.162 A 
ATOM     30  C6  UNL     1      19.790   1.306  28.740  0.00  0.00    +0.164 A 
ATOM     31  C7  UNL     1      20.167   1.798  29.996  0.00  0.00    +0.072 A 
ATOM     32  O2  UNL     1      18.419   1.176  28.488  0.00  0.00    -0.488 OA
ATOM     33  C8  UNL     1      17.779   1.558  27.277  0.00  0.00    +0.232 C 
ATOM     34  C9  UNL     1      18.126   0.607  26.140  0.00  0.00    +0.082 C 
ATOM     35  C10 UNL     1      19.549   0.834  25.653  0.00  0.00    +0.232 C 
ATOM     36  O3  UNL     1      20.503   0.329  26.578  0.00  0.00    -0.488 OA
ENDBRANCH  22  26
ENDBRANCH   1  23
TORSDOF 3
ENDMDL
MODEL 8
REMARK VINA RESULT:    -7.453     11.284     13.205
REMARK INTER + INTRA:          -9.538
REMARK INTER:                  -8.758
REMARK INTRA:                  -0.780
REMARK UNBOUND:                -0.778
REMARK  Name = /home/qwerty/github/datacon2025hack/step_04_hit_selection/docking/ligands/lig_397.pdb
REMARK  3 active torsions:
REMARK  status: ('A' for Active; 'I' for Inactive)
REMARK    1  A    between atoms: N1_3  and  C2_4
REMARK    2  A    between atoms: N2_15  and  C11_16
REMARK    3  A    between atoms: C17_24  and  C18_25
REMARK                            x       y       z     vdW  Elec       q    Type
REMARK                         _______ _______ _______ _____ _____    ______ ____
ROOT
ATOM      1  C11 UNL     1      15.606   4.685  19.870  0.00  0.00    +0.044 A 
ATOM      2  C12 UNL     1      16.591   3.684  19.883  0.00  0.00    +0.024 A 
ATOM      3  C13 UNL     1      16.369   2.474  20.541  0.00  0.00    +0.004 A 
ATOM      4  C14 UNL     1      15.157   2.240  21.188  0.00  0.00    +0.026 A 
ATOM      5  C15 UNL     1      14.152   3.220  21.188  0.00  0.00    +0.051 A 
ATOM      6  N3  UNL     1      12.969   2.984  21.824  0.00  0.00    -0.322 N 
ATOM      7  C16 UNL     1      11.973   3.913  21.859  0.00  0.00    +0.257 A 
ATOM      8  O4  UNL     1      10.888   3.631  22.435  0.00  0.00    -0.267 OA
ATOM      9  C17 UNL     1      12.151   5.166  21.242  0.00  0.00    +0.047 A 
ATOM     10  C24 UNL     1      13.359   5.424  20.577  0.00  0.00    +0.025 A 
ATOM     11  C25 UNL     1      14.372   4.453  20.529  0.00  0.00    +0.020 A 
ATOM     12  H15 UNL     1      12.811   2.065  22.298  0.00  0.00    +0.169 HD
ENDROOT
BRANCH   9  13
ATOM     13  C18 UNL     1      11.096   6.210  21.282  0.00  0.00    -0.013 A 
ATOM     14  C19 UNL     1      10.050   6.211  20.341  0.00  0.00    +0.011 A 
ATOM     15  C20 UNL     1       9.055   7.192  20.391  0.00  0.00    +0.039 A 
ATOM     16  C21 UNL     1       9.091   8.177  21.381  0.00  0.00    +0.123 A 
ATOM     17  F1  UNL     1       8.125   9.127  21.427  0.00  0.00    -0.205 F 
ATOM     18  C22 UNL     1      10.121   8.181  22.324  0.00  0.00    +0.039 A 
ATOM     19  C23 UNL     1      11.118   7.202  22.279  0.00  0.00    +0.011 A 
ENDBRANCH   9  13
BRANCH   1  23
ATOM     20  O1  UNL     1      17.372   6.793  20.659  0.00  0.00    -0.252 OA
ATOM     21  C1  UNL     1      16.808   6.882  19.534  0.00  0.00    +0.308 C 
ATOM     22  N1  UNL     1      17.079   8.000  18.674  0.00  0.00    -0.269 N 
ATOM     23  N2  UNL     1      15.839   5.901  19.136  0.00  0.00    -0.269 N 
ATOM     24  H1  UNL     1      16.394   8.199  17.910  0.00  0.00    +0.156 HD
ATOM     25  H11 UNL     1      15.277   6.083  18.276  0.00  0.00    +0.156 HD
BRANCH  22  26
ATOM     26  C2  UNL     1      18.166   8.920  18.864  0.00  0.00    +0.038 A 
ATOM     27  C3  UNL     1      19.458   8.544  18.481  0.00  0.00    +0.027 A 
ATOM     28  C4  UNL     1      20.531   9.416  18.666  0.00  0.00    +0.051 A 
ATOM     29  C5  UNL     1      20.344  10.666  19.270  0.00  0.00    +0.162 A 
ATOM     30  C6  UNL     1      19.045  11.046  19.686  0.00  0.00    +0.164 A 
ATOM     31  C7  UNL     1      17.971  10.171  19.475  0.00  0.00    +0.072 A 
ATOM     32  O2  UNL     1      18.753  12.294  20.247  0.00  0.00    -0.488 OA
ATOM     33  C8  UNL     1      19.512  12.915  21.278  0.00  0.00    +0.232 C 
ATOM     34  C9  UNL     1      20.856  13.409  20.761  0.00  0.00    +0.082 C 
ATOM     35  C10 UNL     1      21.811  12.248  20.530  0.00  0.00    +0.232 C 
ATOM     36  O3  UNL     1      21.459  11.506  19.370  0.00  0.00    -0.488 OA
ENDBRANCH  22  26
ENDBRANCH   1  23
TORSDOF 3
ENDMDL
MODEL 9
REMARK VINA RESULT:    -7.339     12.995     16.667
REMARK INTER + INTRA:          -9.404
REMARK INTER:                  -8.651
REMARK INTRA:                  -0.753
REMARK UNBOUND:                -0.778
REMARK  Name = /home/qwerty/github/datacon2025hack/step_04_hit_selection/docking/ligands/lig_397.pdb
REMARK  3 active torsions:
REMARK  status: ('A' for Active; 'I' for Inactive)
REMARK    1  A    between atoms: N1_3  and  C2_4
REMARK    2  A    between atoms: N2_15  and  C11_16
REMARK    3  A    between atoms: C17_24  and  C18_25
REMARK                            x       y       z     vdW  Elec       q    Type
REMARK                         _______ _______ _______ _____ _____    ______ ____
ROOT
ATOM      1  C11 UNL     1       8.657   9.386  22.860  0.00  0.00    +0.044 A 
ATOM      2  C12 UNL     1       8.884  10.481  22.009  0.00  0.00    +0.024 A 
ATOM      3  C13 UNL     1       9.459  10.299  20.751  0.00  0.00    +0.004 A 
ATOM      4  C14 UNL     1       9.809   9.021  20.318  0.00  0.00    +0.026 A 
ATOM      5  C15 UNL     1       9.591   7.908  21.145  0.00  0.00    +0.051 A 
ATOM      6  N3  UNL     1       9.936   6.660  20.715  0.00  0.00    -0.322 N 
ATOM      7  C16 UNL     1       9.753   5.556  21.490  0.00  0.00    +0.257 A 
ATOM      8  O4  UNL     1      10.062   4.423  21.031  0.00  0.00    -0.267 OA
ATOM      9  C17 UNL     1       9.207   5.679  22.782  0.00  0.00    +0.047 A 
ATOM     10  C24 UNL     1       8.839   6.954  23.239  0.00  0.00    +0.025 A 
ATOM     11  C25 UNL     1       9.013   8.085  22.425  0.00  0.00    +0.020 A 
ATOM     12  H15 UNL     1      10.351   6.539  19.762  0.00  0.00    +0.169 HD
ENDROOT
BRANCH   9  13
ATOM     13  C18 UNL     1       9.017   4.499  23.663  0.00  0.00    -0.013 A 
ATOM     14  C19 UNL     1      10.125   3.827  24.213  0.00  0.00    +0.011 A 
ATOM     15  C20 UNL     1       9.938   2.723  25.050  0.00  0.00    +0.039 A 
ATOM     16  C21 UNL     1       8.646   2.282  25.350  0.00  0.00    +0.123 A 
ATOM     17  F1  UNL     1       8.468   1.212  26.162  0.00  0.00    -0.205 F 
ATOM     18  C22 UNL     1       7.540   2.947  24.815  0.00  0.00    +0.039 A 
ATOM     19  C23 UNL     1       7.721   4.051  23.979  0.00  0.00    +0.011 A 
ENDBRANCH   9  13
BRANCH   1  23
ATOM     20  O1  UNL     1       9.923  10.359  25.234  0.00  0.00    -0.252 OA
ATOM     21  C1  UNL     1       8.675  10.174  25.260  0.00  0.00    +0.308 C 
ATOM     22  N1  UNL     1       7.923  10.477  26.445  0.00  0.00    -0.269 N 
ATOM     23  N2  UNL     1       8.011   9.595  24.128  0.00  0.00    -0.269 N 
ATOM     24  H1  UNL     1       6.977  10.045  26.541  0.00  0.00    +0.156 HD
ATOM     25  H11 UNL     1       7.012   9.310  24.236  0.00  0.00    +0.156 HD
BRANCH  22  26
ATOM     26  C2  UNL     1       8.431  11.245  27.550  0.00  0.00    +0.038 A 
ATOM     27  C3  UNL     1       8.313  12.639  27.529  0.00  0.00    +0.027 A 
ATOM     28  C4  UNL     1       8.808  13.404  28.584  0.00  0.00    +0.051 A 
ATOM     29  C5  UNL     1       9.463  12.800  29.664  0.00  0.00    +0.162 A 
ATOM     30  C6  UNL     1       9.612  11.392  29.683  0.00  0.00    +0.164 A 
ATOM     31  C7  UNL     1       9.091  10.631  28.628  0.00  0.00    +0.072 A 
ATOM     32  O2  UNL     1      10.202  10.697  30.744  0.00  0.00    -0.488 OA
ATOM     33  C8  UNL     1      11.426  11.062  31.370  0.00  0.00    +0.232 C 
ATOM     34  C9  UNL     1      11.266  12.316  32.218  0.00  0.00    +0.082 C 
ATOM     35  C10 UNL     1      11.152  13.555  31.344  0.00  0.00    +0.232 C 
ATOM     36  O3  UNL     1       9.882  13.630  30.710  0.00  0.00    -0.488 OA
ENDBRANCH  22  26
ENDBRANCH   1  23
TORSDOF 3
ENDMDL
