MODEL 1
REMARK VINA RESULT:    -5.441      0.000      0.000
REMARK INTER + INTRA:          -9.178
REMARK INTER:                  -7.349
REMARK INTRA:                  -1.829
REMARK UNBOUND:                -1.829
REMARK  Name = /home/qwerty/github/datacon2025hack/step_04_hit_selection/docking/ligands/lig_722.pdb
REMARK  10 active torsions:
REMARK  status: ('A' for Active; 'I' for Inactive)
REMARK    1  A    between atoms: C1_1  and  C2_2
REMARK    2  A    between atoms: C5_5  and  C6_6
REMARK    3  A    between atoms: C6_6  and  N1_7
REMARK    4  A    between atoms: N1_7  and  C7_8
REMARK    5  A    between atoms: C9_12  and  C10_13
REMARK    6  A    between atoms: N5_16  and  C12_17
REMARK    7  A    between atoms: N6_19  and  C14_20
REMARK    8  A    between atoms: C14_20  and  C15_21
REMARK    9  A    between atoms: N7_24  and  S1_25
REMARK   10  A    between atoms: S1_25  and  C18_26
REMARK                            x       y       z     vdW  Elec       q    Type
REMARK                         _______ _______ _______ _____ _____    ______ ____
ROOT
ATOM      1  N1  UNL     1      19.904   7.991  35.460  0.00  0.00    -0.298 N 
ATOM      2  C7  UNL     1      19.181   8.663  34.379  0.00  0.00    +0.132 C 
ATOM      3  C8  UNL     1      19.254   6.961  36.228  0.00  0.00    +0.220 A 
ATOM      4  N2  UNL     1      19.151   7.005  37.569  0.00  0.00    -0.113 NA
ATOM      5  N3  UNL     1      18.469   5.932  37.935  0.00  0.00    -0.127 NA
ATOM      6  C9  UNL     1      18.158   5.251  36.813  0.00  0.00    +0.168 A 
ATOM      7  N6  UNL     1      18.652   5.864  35.708  0.00  0.00    -0.295 N 
ENDROOT
BRANCH   6   8
ATOM      8  C10 UNL     1      17.399   3.986  36.851  0.00  0.00    +0.057 A 
ATOM      9  C11 UNL     1      16.030   3.863  36.998  0.00  0.00    +0.146 A 
ATOM     10  N4  UNL     1      15.689   2.563  36.917  0.00  0.00    -0.179 NA
ATOM     11  N5  UNL     1      16.800   1.869  36.725  0.00  0.00    -0.274 N 
ATOM     12  C12 UNL     1      16.829   0.432  36.496  0.00  0.00    +0.172 C 
ATOM     13  C13 UNL     1      17.857   2.698  36.655  0.00  0.00    +0.119 A 
ENDBRANCH   6   8
BRANCH   1  14
ATOM     14  C6  UNL     1      21.137   8.603  35.968  0.00  0.00    +0.150 C 
BRANCH  14  19
ATOM     15  C1  UNL     1      25.242   6.536  33.122  0.00  0.00    +0.051 C 
ATOM     16  C2  UNL     1      24.186   6.871  34.120  0.00  0.00    -0.013 A 
ATOM     17  C3  UNL     1      23.994   6.235  35.341  0.00  0.00    +0.011 A 
ATOM     18  C4  UNL     1      22.945   6.782  36.087  0.00  0.00    +0.013 A 
ATOM     19  C5  UNL     1      22.333   7.863  35.460  0.00  0.00    +0.007 A 
ATOM     20  S2  UNL     1      23.081   8.132  33.977  0.00  0.00    -0.097 S 
ENDBRANCH  14  19
ENDBRANCH   1  14
BRANCH   7  21
ATOM     21  C14 UNL     1      18.757   5.345  34.336  0.00  0.00    +0.131 C 
BRANCH  21  22
ATOM     22  C15 UNL     1      20.089   4.597  34.115  0.00  0.00    +0.026 C 
ATOM     23  C16 UNL     1      20.935   5.205  33.015  0.00  0.00    +0.023 C 
ATOM     24  C17 UNL     1      21.704   4.034  32.416  0.00  0.00    +0.109 C 
ATOM     25  N7  UNL     1      21.116   2.791  32.937  0.00  0.00    -0.181 NA
ATOM     26  C19 UNL     1      19.890   3.164  33.649  0.00  0.00    +0.114 C 
BRANCH  25  27
ATOM     27  S1  UNL     1      20.774   1.652  31.658  0.00  0.00    +0.029 S 
ATOM     28  C18 UNL     1      22.137   1.611  30.513  0.00  0.00    +0.215 C 
ATOM     29  O1  UNL     1      20.593   0.280  32.244  0.00  0.00    -0.158 OA
ATOM     30  O2  UNL     1      19.522   2.048  30.925  0.00  0.00    -0.158 OA
ENDBRANCH  25  27
ENDBRANCH  21  22
ENDBRANCH   7  21
TORSDOF 6
ENDMDL
MODEL 2
REMARK VINA RESULT:    -5.342      3.990      6.058
REMARK INTER + INTRA:          -9.044
REMARK INTER:                  -7.551
REMARK INTRA:                  -1.493
REMARK UNBOUND:                -1.829
REMARK  Name = /home/qwerty/github/datacon2025hack/step_04_hit_selection/docking/ligands/lig_722.pdb
REMARK  10 active torsions:
REMARK  status: ('A' for Active; 'I' for Inactive)
REMARK    1  A    between atoms: C1_1  and  C2_2
REMARK    2  A    between atoms: C5_5  and  C6_6
REMARK    3  A    between atoms: C6_6  and  N1_7
REMARK    4  A    between atoms: N1_7  and  C7_8
REMARK    5  A    between atoms: C9_12  and  C10_13
REMARK    6  A    between atoms: N5_16  and  C12_17
REMARK    7  A    between atoms: N6_19  and  C14_20
REMARK    8  A    between atoms: C14_20  and  C15_21
REMARK    9  A    between atoms: N7_24  and  S1_25
REMARK   10  A    between atoms: S1_25  and  C18_26
REMARK                            x       y       z     vdW  Elec       q    Type
REMARK                         _______ _______ _______ _____ _____    ______ ____
ROOT
ATOM      1  N1  UNL     1      22.916   6.072  34.404  0.00  0.00    -0.298 N 
ATOM      2  C7  UNL     1      23.691   6.282  35.628  0.00  0.00    +0.132 C 
ATOM      3  C8  UNL     1      21.569   5.570  34.484  0.00  0.00    +0.220 A 
ATOM      4  N2  UNL     1      21.162   4.466  33.831  0.00  0.00    -0.113 NA
ATOM      5  N3  UNL     1      19.894   4.275  34.158  0.00  0.00    -0.127 NA
ATOM      6  C9  UNL     1      19.546   5.260  35.010  0.00  0.00    +0.168 A 
ATOM      7  N6  UNL     1      20.578   6.113  35.231  0.00  0.00    -0.295 N 
ENDROOT
BRANCH   6   8
ATOM      8  C10 UNL     1      18.186   5.363  35.574  0.00  0.00    +0.057 A 
ATOM      9  C11 UNL     1      17.068   5.843  34.918  0.00  0.00    +0.146 A 
ATOM     10  N4  UNL     1      15.994   5.722  35.721  0.00  0.00    -0.179 NA
ATOM     11  N5  UNL     1      16.404   5.182  36.858  0.00  0.00    -0.274 N 
ATOM     12  C12 UNL     1      15.513   4.810  37.947  0.00  0.00    +0.172 C 
ATOM     13  C13 UNL     1      17.724   4.927  36.800  0.00  0.00    +0.119 A 
ENDBRANCH   6   8
BRANCH   1  14
ATOM     14  C6  UNL     1      23.625   6.044  33.120  0.00  0.00    +0.150 C 
BRANCH  14  19
ATOM     15  C1  UNL     1      23.592  10.737  30.438  0.00  0.00    +0.051 C 
ATOM     16  C2  UNL     1      23.858   9.573  31.331  0.00  0.00    -0.013 A 
ATOM     17  C3  UNL     1      24.847   9.508  32.305  0.00  0.00    +0.011 A 
ATOM     18  C4  UNL     1      24.844   8.302  33.013  0.00  0.00    +0.013 A 
ATOM     19  C5  UNL     1      23.835   7.434  32.610  0.00  0.00    +0.007 A 
ATOM     20  S2  UNL     1      22.957   8.152  31.368  0.00  0.00    -0.097 S 
ENDBRANCH  14  19
ENDBRANCH   1  14
BRANCH   7  21
ATOM     21  C14 UNL     1      20.560   7.433  35.880  0.00  0.00    +0.131 C 
BRANCH  21  22
ATOM     22  C15 UNL     1      20.169   8.547  34.887  0.00  0.00    +0.026 C 
ATOM     23  C16 UNL     1      21.325   9.461  34.535  0.00  0.00    +0.023 C 
ATOM     24  C17 UNL     1      20.687  10.816  34.262  0.00  0.00    +0.109 C 
ATOM     25  N7  UNL     1      19.290  10.761  34.718  0.00  0.00    -0.181 NA
ATOM     26  C19 UNL     1      19.130   9.501  35.451  0.00  0.00    +0.114 C 
BRANCH  25  27
ATOM     27  S1  UNL     1      18.884  12.128  35.727  0.00  0.00    +0.029 S 
ATOM     28  C18 UNL     1      18.146  13.407  34.733  0.00  0.00    +0.215 C 
ATOM     29  O1  UNL     1      17.898  11.700  36.777  0.00  0.00    -0.158 OA
ATOM     30  O2  UNL     1      20.118  12.668  36.396  0.00  0.00    -0.158 OA
ENDBRANCH  25  27
ENDBRANCH  21  22
ENDBRANCH   7  21
TORSDOF 6
ENDMDL
MODEL 3
REMARK VINA RESULT:    -5.316      1.897      2.262
REMARK INTER + INTRA:          -9.009
REMARK INTER:                  -7.245
REMARK INTRA:                  -1.765
REMARK UNBOUND:                -1.829
REMARK  Name = /home/qwerty/github/datacon2025hack/step_04_hit_selection/docking/ligands/lig_722.pdb
REMARK  10 active torsions:
REMARK  status: ('A' for Active; 'I' for Inactive)
REMARK    1  A    between atoms: C1_1  and  C2_2
REMARK    2  A    between atoms: C5_5  and  C6_6
REMARK    3  A    between atoms: C6_6  and  N1_7
REMARK    4  A    between atoms: N1_7  and  C7_8
REMARK    5  A    between atoms: C9_12  and  C10_13
REMARK    6  A    between atoms: N5_16  and  C12_17
REMARK    7  A    between atoms: N6_19  and  C14_20
REMARK    8  A    between atoms: C14_20  and  C15_21
REMARK    9  A    between atoms: N7_24  and  S1_25
REMARK   10  A    between atoms: S1_25  and  C18_26
REMARK                            x       y       z     vdW  Elec       q    Type
REMARK                         _______ _______ _______ _____ _____    ______ ____
ROOT
ATOM      1  N1  UNL     1      20.190   8.946  35.268  0.00  0.00    -0.298 N 
ATOM      2  C7  UNL     1      19.634   9.435  34.006  0.00  0.00    +0.132 C 
ATOM      3  C8  UNL     1      19.318   8.385  36.268  0.00  0.00    +0.220 A 
ATOM      4  N2  UNL     1      19.268   8.842  37.532  0.00  0.00    -0.113 NA
ATOM      5  N3  UNL     1      18.343   8.134  38.158  0.00  0.00    -0.127 NA
ATOM      6  C9  UNL     1      17.836   7.258  37.267  0.00  0.00    +0.168 A 
ATOM      7  N6  UNL     1      18.439   7.376  36.058  0.00  0.00    -0.295 N 
ENDROOT
BRANCH   6   8
ATOM      8  C10 UNL     1      16.778   6.296  37.631  0.00  0.00    +0.057 A 
ATOM      9  C11 UNL     1      16.946   5.151  38.387  0.00  0.00    +0.146 A 
ATOM     10  N4  UNL     1      15.750   4.559  38.571  0.00  0.00    -0.179 NA
ATOM     11  N5  UNL     1      14.840   5.297  37.954  0.00  0.00    -0.274 N 
ATOM     12  C12 UNL     1      13.410   5.029  38.002  0.00  0.00    +0.172 C 
ATOM     13  C13 UNL     1      15.420   6.373  37.390  0.00  0.00    +0.119 A 
ENDBRANCH   6   8
BRANCH   1  14
ATOM     14  C6  UNL     1      21.553   9.344  35.638  0.00  0.00    +0.150 C 
BRANCH  14  19
ATOM     15  C1  UNL     1      24.936   5.892  33.217  0.00  0.00    +0.051 C 
ATOM     16  C2  UNL     1      24.037   6.644  34.140  0.00  0.00    -0.013 A 
ATOM     17  C3  UNL     1      23.778   6.315  35.465  0.00  0.00    +0.011 A 
ATOM     18  C4  UNL     1      22.918   7.218  36.098  0.00  0.00    +0.013 A 
ATOM     19  C5  UNL     1      22.526   8.268  35.275  0.00  0.00    +0.007 A 
ATOM     20  S2  UNL     1      23.231   8.070  33.760  0.00  0.00    -0.097 S 
ENDBRANCH  14  19
ENDBRANCH   1  14
BRANCH   7  21
ATOM     21  C14 UNL     1      18.369   6.470  34.901  0.00  0.00    +0.131 C 
BRANCH  21  22
ATOM     22  C15 UNL     1      19.319   5.265  35.066  0.00  0.00    +0.026 C 
ATOM     23  C16 UNL     1      20.447   5.257  34.055  0.00  0.00    +0.023 C 
ATOM     24  C17 UNL     1      20.757   3.784  33.824  0.00  0.00    +0.109 C 
ATOM     25  N7  UNL     1      19.679   2.991  34.434  0.00  0.00    -0.181 NA
ATOM     26  C19 UNL     1      18.628   3.933  34.828  0.00  0.00    +0.114 C 
BRANCH  25  27
ATOM     27  S1  UNL     1      19.059   1.786  33.332  0.00  0.00    +0.029 S 
ATOM     28  C18 UNL     1      20.408   0.839  32.660  0.00  0.00    +0.215 C 
ATOM     29  O1  UNL     1      18.136   0.858  34.071  0.00  0.00    -0.158 OA
ATOM     30  O2  UNL     1      18.305   2.444  32.209  0.00  0.00    -0.158 OA
ENDBRANCH  25  27
ENDBRANCH  21  22
ENDBRANCH   7  21
TORSDOF 6
ENDMDL
MODEL 4
REMARK VINA RESULT:    -5.293     10.348     14.371
REMARK INTER + INTRA:          -8.978
REMARK INTER:                  -7.162
REMARK INTRA:                  -1.816
REMARK UNBOUND:                -1.829
REMARK  Name = /home/qwerty/github/datacon2025hack/step_04_hit_selection/docking/ligands/lig_722.pdb
REMARK  10 active torsions:
REMARK  status: ('A' for Active; 'I' for Inactive)
REMARK    1  A    between atoms: C1_1  and  C2_2
REMARK    2  A    between atoms: C5_5  and  C6_6
REMARK    3  A    between atoms: C6_6  and  N1_7
REMARK    4  A    between atoms: N1_7  and  C7_8
REMARK    5  A    between atoms: C9_12  and  C10_13
REMARK    6  A    between atoms: N5_16  and  C12_17
REMARK    7  A    between atoms: N6_19  and  C14_20
REMARK    8  A    between atoms: C14_20  and  C15_21
REMARK    9  A    between atoms: N7_24  and  S1_25
REMARK   10  A    between atoms: S1_25  and  C18_26
REMARK                            x       y       z     vdW  Elec       q    Type
REMARK                         _______ _______ _______ _____ _____    ______ ____
ROOT
ATOM      1  N1  UNL     1      14.837   2.340  21.914  0.00  0.00    -0.298 N 
ATOM      2  C7  UNL     1      14.045   2.824  23.046  0.00  0.00    +0.132 C 
ATOM      3  C8  UNL     1      15.697   3.247  21.199  0.00  0.00    +0.220 A 
ATOM      4  N2  UNL     1      15.613   3.437  19.870  0.00  0.00    -0.113 NA
ATOM      5  N3  UNL     1      16.514   4.355  19.558  0.00  0.00    -0.127 NA
ATOM      6  C9  UNL     1      17.131   4.717  20.700  0.00  0.00    +0.168 A 
ATOM      7  N6  UNL     1      16.652   4.025  21.764  0.00  0.00    -0.295 N 
ENDROOT
BRANCH   6   8
ATOM      8  C10 UNL     1      18.209   5.724  20.722  0.00  0.00    +0.057 A 
ATOM      9  C11 UNL     1      18.040   7.095  20.784  0.00  0.00    +0.146 A 
ATOM     10  N4  UNL     1      19.247   7.690  20.855  0.00  0.00    -0.179 NA
ATOM     11  N5  UNL     1      20.164   6.736  20.839  0.00  0.00    -0.274 N 
ATOM     12  C12 UNL     1      21.591   6.981  20.991  0.00  0.00    +0.172 C 
ATOM     13  C13 UNL     1      19.575   5.527  20.782  0.00  0.00    +0.119 A 
ENDBRANCH   6   8
BRANCH   1  14
ATOM     14  C6  UNL     1      14.489   1.047  21.314  0.00  0.00    +0.150 C 
BRANCH  14  19
ATOM     15  C1  UNL     1      16.915  -2.762  24.284  0.00  0.00    +0.051 C 
ATOM     16  C2  UNL     1      16.505  -1.748  23.271  0.00  0.00    -0.013 A 
ATOM     17  C3  UNL     1      17.200  -1.439  22.107  0.00  0.00    +0.011 A 
ATOM     18  C4  UNL     1      16.563  -0.467  21.328  0.00  0.00    +0.013 A 
ATOM     19  C5  UNL     1      15.357  -0.036  21.870  0.00  0.00    +0.007 A 
ATOM     20  S2  UNL     1      15.087  -0.845  23.320  0.00  0.00    -0.097 S 
ENDBRANCH  14  19
ENDBRANCH   1  14
BRANCH   7  21
ATOM     21  C14 UNL     1      17.202   3.929  23.125  0.00  0.00    +0.131 C 
BRANCH  21  22
ATOM     22  C15 UNL     1      18.291   2.840  23.219  0.00  0.00    +0.026 C 
ATOM     23  C16 UNL     1      17.889   1.674  24.098  0.00  0.00    +0.023 C 
ATOM     24  C17 UNL     1      19.193   1.165  24.699  0.00  0.00    +0.109 C 
ATOM     25  N7  UNL     1      20.240   2.159  24.420  0.00  0.00    -0.181 NA
ATOM     26  C19 UNL     1      19.570   3.341  23.870  0.00  0.00    +0.114 C 
BRANCH  25  27
ATOM     27  S1  UNL     1      21.145   2.565  25.858  0.00  0.00    +0.029 S 
ATOM     28  C18 UNL     1      21.129   1.186  26.984  0.00  0.00    +0.215 C 
ATOM     29  O1  UNL     1      22.569   2.869  25.484  0.00  0.00    -0.158 OA
ATOM     30  O2  UNL     1      20.542   3.766  26.534  0.00  0.00    -0.158 OA
ENDBRANCH  25  27
ENDBRANCH  21  22
ENDBRANCH   7  21
TORSDOF 6
ENDMDL
MODEL 5
REMARK VINA RESULT:    -5.088      3.325      7.558
REMARK INTER + INTRA:          -8.702
REMARK INTER:                  -7.336
REMARK INTRA:                  -1.366
REMARK UNBOUND:                -1.829
REMARK  Name = /home/qwerty/github/datacon2025hack/step_04_hit_selection/docking/ligands/lig_722.pdb
REMARK  10 active torsions:
REMARK  status: ('A' for Active; 'I' for Inactive)
REMARK    1  A    between atoms: C1_1  and  C2_2
REMARK    2  A    between atoms: C5_5  and  C6_6
REMARK    3  A    between atoms: C6_6  and  N1_7
REMARK    4  A    between atoms: N1_7  and  C7_8
REMARK    5  A    between atoms: C9_12  and  C10_13
REMARK    6  A    between atoms: N5_16  and  C12_17
REMARK    7  A    between atoms: N6_19  and  C14_20
REMARK    8  A    between atoms: C14_20  and  C15_21
REMARK    9  A    between atoms: N7_24  and  S1_25
REMARK   10  A    between atoms: S1_25  and  C18_26
REMARK                            x       y       z     vdW  Elec       q    Type
REMARK                         _______ _______ _______ _____ _____    ______ ____
ROOT
ATOM      1  N1  UNL     1      17.869   1.802  33.192  0.00  0.00    -0.298 N 
ATOM      2  C7  UNL     1      16.737   2.580  32.688  0.00  0.00    +0.132 C 
ATOM      3  C8  UNL     1      18.904   1.370  32.288  0.00  0.00    +0.220 A 
ATOM      4  N2  UNL     1      19.265   0.081  32.154  0.00  0.00    -0.113 NA
ATOM      5  N3  UNL     1      20.203   0.041  31.222  0.00  0.00    -0.127 NA
ATOM      6  C9  UNL     1      20.398   1.305  30.794  0.00  0.00    +0.168 A 
ATOM      7  N6  UNL     1      19.602   2.181  31.458  0.00  0.00    -0.295 N 
ENDROOT
BRANCH   6   8
ATOM      8  C10 UNL     1      21.390   1.635  29.754  0.00  0.00    +0.057 A 
ATOM      9  C11 UNL     1      22.689   1.165  29.690  0.00  0.00    +0.146 A 
ATOM     10  N4  UNL     1      23.274   1.624  28.567  0.00  0.00    -0.179 NA
ATOM     11  N5  UNL     1      22.383   2.364  27.926  0.00  0.00    -0.274 N 
ATOM     12  C12 UNL     1      22.615   2.961  26.619  0.00  0.00    +0.172 C 
ATOM     13  C13 UNL     1      21.219   2.377  28.602  0.00  0.00    +0.119 A 
ENDBRANCH   6   8
BRANCH   1  14
ATOM     14  C6  UNL     1      17.763   1.183  34.518  0.00  0.00    +0.150 C 
BRANCH  14  19
ATOM     15  C1  UNL     1      15.855   4.437  38.391  0.00  0.00    +0.051 C 
ATOM     16  C2  UNL     1      16.621   3.760  37.305  0.00  0.00    -0.013 A 
ATOM     17  C3  UNL     1      17.831   4.193  36.776  0.00  0.00    +0.011 A 
ATOM     18  C4  UNL     1      18.335   3.342  35.788  0.00  0.00    +0.013 A 
ATOM     19  C5  UNL     1      17.532   2.228  35.563  0.00  0.00    +0.007 A 
ATOM     20  S2  UNL     1      16.191   2.306  36.576  0.00  0.00    -0.097 S 
ENDBRANCH  14  19
ENDBRANCH   1  14
BRANCH   7  21
ATOM     21  C14 UNL     1      19.668   3.651  31.481  0.00  0.00    +0.131 C 
BRANCH  21  22
ATOM     22  C15 UNL     1      20.408   4.164  32.735  0.00  0.00    +0.026 C 
ATOM     23  C16 UNL     1      19.860   5.480  33.249  0.00  0.00    +0.023 C 
ATOM     24  C17 UNL     1      21.055   6.186  33.875  0.00  0.00    +0.109 C 
ATOM     25  N7  UNL     1      22.271   5.458  33.482  0.00  0.00    -0.181 NA
ATOM     26  C19 UNL     1      21.871   4.476  32.469  0.00  0.00    +0.114 C 
BRANCH  25  27
ATOM     27  S1  UNL     1      23.497   6.534  32.860  0.00  0.00    +0.029 S 
ATOM     28  C18 UNL     1      25.097   5.766  33.005  0.00  0.00    +0.215 C 
ATOM     29  O1  UNL     1      23.226   6.818  31.409  0.00  0.00    -0.158 OA
ATOM     30  O2  UNL     1      23.495   7.828  33.627  0.00  0.00    -0.158 OA
ENDBRANCH  25  27
ENDBRANCH  21  22
ENDBRANCH   7  21
TORSDOF 6
ENDMDL
MODEL 6
REMARK VINA RESULT:    -5.084      5.176      7.714
REMARK INTER + INTRA:          -8.696
REMARK INTER:                  -7.751
REMARK INTRA:                  -0.945
REMARK UNBOUND:                -1.829
REMARK  Name = /home/qwerty/github/datacon2025hack/step_04_hit_selection/docking/ligands/lig_722.pdb
REMARK  10 active torsions:
REMARK  status: ('A' for Active; 'I' for Inactive)
REMARK    1  A    between atoms: C1_1  and  C2_2
REMARK    2  A    between atoms: C5_5  and  C6_6
REMARK    3  A    between atoms: C6_6  and  N1_7
REMARK    4  A    between atoms: N1_7  and  C7_8
REMARK    5  A    between atoms: C9_12  and  C10_13
REMARK    6  A    between atoms: N5_16  and  C12_17
REMARK    7  A    between atoms: N6_19  and  C14_20
REMARK    8  A    between atoms: C14_20  and  C15_21
REMARK    9  A    between atoms: N7_24  and  S1_25
REMARK   10  A    between atoms: S1_25  and  C18_26
REMARK                            x       y       z     vdW  Elec       q    Type
REMARK                         _______ _______ _______ _____ _____    ______ ____
ROOT
ATOM      1  N1  UNL     1      20.046   8.927  36.509  0.00  0.00    -0.298 N 
ATOM      2  C7  UNL     1      21.062   9.802  35.922  0.00  0.00    +0.132 C 
ATOM      3  C8  UNL     1      18.841   9.493  37.058  0.00  0.00    +0.220 A 
ATOM      4  N2  UNL     1      18.440   9.269  38.323  0.00  0.00    -0.113 NA
ATOM      5  N3  UNL     1      17.330   9.967  38.501  0.00  0.00    -0.127 NA
ATOM      6  C9  UNL     1      17.071  10.612  37.346  0.00  0.00    +0.168 A 
ATOM      7  N6  UNL     1      17.999  10.326  36.399  0.00  0.00    -0.295 N 
ENDROOT
BRANCH   6   8
ATOM      8  C10 UNL     1      15.892  11.483  37.184  0.00  0.00    +0.057 A 
ATOM      9  C11 UNL     1      15.880  12.862  37.278  0.00  0.00    +0.146 A 
ATOM     10  N4  UNL     1      14.642  13.317  37.004  0.00  0.00    -0.179 NA
ATOM     11  N5  UNL     1      13.880  12.267  36.742  0.00  0.00    -0.274 N 
ATOM     12  C12 UNL     1      12.492  12.360  36.311  0.00  0.00    +0.172 C 
ATOM     13  C13 UNL     1      14.606  11.137  36.817  0.00  0.00    +0.119 A 
ENDBRANCH   6   8
BRANCH   1  14
ATOM     14  C6  UNL     1      20.413   7.546  36.840  0.00  0.00    +0.150 C 
BRANCH  14  19
ATOM     15  C1  UNL     1      23.694   5.677  32.971  0.00  0.00    +0.051 C 
ATOM     16  C2  UNL     1      23.056   6.175  34.224  0.00  0.00    -0.013 A 
ATOM     17  C3  UNL     1      23.704   6.380  35.436  0.00  0.00    +0.011 A 
ATOM     18  C4  UNL     1      22.861   6.882  36.433  0.00  0.00    +0.013 A 
ATOM     19  C5  UNL     1      21.559   7.094  35.992  0.00  0.00    +0.007 A 
ATOM     20  S2  UNL     1      21.448   6.645  34.374  0.00  0.00    -0.097 S 
ENDBRANCH  14  19
ENDBRANCH   1  14
BRANCH   7  21
ATOM     21  C14 UNL     1      17.963  10.610  34.956  0.00  0.00    +0.131 C 
BRANCH  21  22
ATOM     22  C15 UNL     1      18.470  12.035  34.647  0.00  0.00    +0.026 C 
ATOM     23  C16 UNL     1      17.392  12.939  34.087  0.00  0.00    +0.023 C 
ATOM     24  C17 UNL     1      18.126  13.904  33.165  0.00  0.00    +0.109 C 
ATOM     25  N7  UNL     1      19.494  13.398  32.975  0.00  0.00    -0.181 NA
ATOM     26  C19 UNL     1      19.540  12.057  33.568  0.00  0.00    +0.114 C 
BRANCH  25  27
ATOM     27  S1  UNL     1      19.938  13.351  31.287  0.00  0.00    +0.029 S 
ATOM     28  C18 UNL     1      18.481  13.537  30.280  0.00  0.00    +0.215 C 
ATOM     29  O1  UNL     1      20.882  14.480  30.985  0.00  0.00    -0.158 OA
ATOM     30  O2  UNL     1      20.606  12.044  30.957  0.00  0.00    -0.158 OA
ENDBRANCH  25  27
ENDBRANCH  21  22
ENDBRANCH   7  21
TORSDOF 6
ENDMDL
MODEL 7
REMARK VINA RESULT:    -5.053     13.772     15.890
REMARK INTER + INTRA:          -8.655
REMARK INTER:                  -7.128
REMARK INTRA:                  -1.527
REMARK UNBOUND:                -1.829
REMARK  Name = /home/qwerty/github/datacon2025hack/step_04_hit_selection/docking/ligands/lig_722.pdb
REMARK  10 active torsions:
REMARK  status: ('A' for Active; 'I' for Inactive)
REMARK    1  A    between atoms: C1_1  and  C2_2
REMARK    2  A    between atoms: C5_5  and  C6_6
REMARK    3  A    between atoms: C6_6  and  N1_7
REMARK    4  A    between atoms: N1_7  and  C7_8
REMARK    5  A    between atoms: C9_12  and  C10_13
REMARK    6  A    between atoms: N5_16  and  C12_17
REMARK    7  A    between atoms: N6_19  and  C14_20
REMARK    8  A    between atoms: C14_20  and  C15_21
REMARK    9  A    between atoms: N7_24  and  S1_25
REMARK   10  A    between atoms: S1_25  and  C18_26
REMARK                            x       y       z     vdW  Elec       q    Type
REMARK                         _______ _______ _______ _____ _____    ______ ____
ROOT
ATOM      1  N1  UNL     1      14.203   1.945  21.778  0.00  0.00    -0.298 N 
ATOM      2  C7  UNL     1      13.981   1.026  20.660  0.00  0.00    +0.132 C 
ATOM      3  C8  UNL     1      13.629   3.265  21.748  0.00  0.00    +0.220 A 
ATOM      4  N2  UNL     1      14.364   4.384  21.887  0.00  0.00    -0.113 NA
ATOM      5  N3  UNL     1      13.530   5.405  21.770  0.00  0.00    -0.127 NA
ATOM      6  C9  UNL     1      12.300   4.897  21.556  0.00  0.00    +0.168 A 
ATOM      7  N6  UNL     1      12.317   3.541  21.550  0.00  0.00    -0.295 N 
ENDROOT
BRANCH   6   8
ATOM      8  C10 UNL     1      11.115   5.760  21.388  0.00  0.00    +0.057 A 
ATOM      9  C11 UNL     1      10.434   5.986  20.206  0.00  0.00    +0.146 A 
ATOM     10  N4  UNL     1       9.368   6.772  20.449  0.00  0.00    -0.179 NA
ATOM     11  N5  UNL     1       9.360   7.045  21.743  0.00  0.00    -0.274 N 
ATOM     12  C12 UNL     1       8.306   7.798  22.407  0.00  0.00    +0.172 C 
ATOM     13  C13 UNL     1      10.391   6.432  22.353  0.00  0.00    +0.119 A 
ENDBRANCH   6   8
BRANCH   1  14
ATOM     14  C6  UNL     1      15.274   1.643  22.734  0.00  0.00    +0.150 C 
BRANCH  14  19
ATOM     15  C1  UNL     1      14.401  -2.961  25.429  0.00  0.00    +0.051 C 
ATOM     16  C2  UNL     1      14.400  -1.578  24.873  0.00  0.00    -0.013 A 
ATOM     17  C3  UNL     1      13.587  -0.534  25.298  0.00  0.00    +0.011 A 
ATOM     18  C4  UNL     1      13.825   0.662  24.615  0.00  0.00    +0.013 A 
ATOM     19  C5  UNL     1      14.844   0.562  23.673  0.00  0.00    +0.007 A 
ATOM     20  S2  UNL     1      15.438  -1.013  23.676  0.00  0.00    -0.097 S 
ENDBRANCH  14  19
ENDBRANCH   1  14
BRANCH   7  21
ATOM     21  C14 UNL     1      11.184   2.604  21.598  0.00  0.00    +0.131 C 
BRANCH  21  22
ATOM     22  C15 UNL     1      10.954   2.067  23.027  0.00  0.00    +0.026 C 
ATOM     23  C16 UNL     1       9.971   0.915  23.076  0.00  0.00    +0.023 C 
ATOM     24  C17 UNL     1       9.292   1.035  24.434  0.00  0.00    +0.109 C 
ATOM     25  N7  UNL     1       9.645   2.343  25.005  0.00  0.00    -0.181 NA
ATOM     26  C19 UNL     1      10.328   3.098  23.950  0.00  0.00    +0.114 C 
BRANCH  25  27
ATOM     27  S1  UNL     1       8.236   3.201  25.577  0.00  0.00    +0.029 S 
ATOM     28  C18 UNL     1       8.636   4.081  27.071  0.00  0.00    +0.215 C 
ATOM     29  O1  UNL     1       7.795   4.191  24.535  0.00  0.00    -0.158 OA
ATOM     30  O2  UNL     1       7.113   2.238  25.852  0.00  0.00    -0.158 OA
ENDBRANCH  25  27
ENDBRANCH  21  22
ENDBRANCH   7  21
TORSDOF 6
ENDMDL
MODEL 8
REMARK VINA RESULT:    -5.046      4.815      7.587
REMARK INTER + INTRA:          -8.644
REMARK INTER:                  -7.401
REMARK INTRA:                  -1.243
REMARK UNBOUND:                -1.829
REMARK  Name = /home/qwerty/github/datacon2025hack/step_04_hit_selection/docking/ligands/lig_722.pdb
REMARK  10 active torsions:
REMARK  status: ('A' for Active; 'I' for Inactive)
REMARK    1  A    between atoms: C1_1  and  C2_2
REMARK    2  A    between atoms: C5_5  and  C6_6
REMARK    3  A    between atoms: C6_6  and  N1_7
REMARK    4  A    between atoms: N1_7  and  C7_8
REMARK    5  A    between atoms: C9_12  and  C10_13
REMARK    6  A    between atoms: N5_16  and  C12_17
REMARK    7  A    between atoms: N6_19  and  C14_20
REMARK    8  A    between atoms: C14_20  and  C15_21
REMARK    9  A    between atoms: N7_24  and  S1_25
REMARK   10  A    between atoms: S1_25  and  C18_26
REMARK                            x       y       z     vdW  Elec       q    Type
REMARK                         _______ _______ _______ _____ _____    ______ ____
ROOT
ATOM      1  N1  UNL     1      17.030  11.991  36.211  0.00  0.00    -0.298 N 
ATOM      2  C7  UNL     1      16.967  12.394  34.806  0.00  0.00    +0.132 C 
ATOM      3  C8  UNL     1      17.573  10.706  36.567  0.00  0.00    +0.220 A 
ATOM      4  N2  UNL     1      16.893   9.803  37.296  0.00  0.00    -0.113 NA
ATOM      5  N3  UNL     1      17.666   8.734  37.399  0.00  0.00    -0.127 NA
ATOM      6  C9  UNL     1      18.805   8.996  36.727  0.00  0.00    +0.168 A 
ATOM      7  N6  UNL     1      18.792  10.245  36.196  0.00  0.00    -0.295 N 
ENDROOT
BRANCH   6   8
ATOM      8  C10 UNL     1      19.906   8.018  36.641  0.00  0.00    +0.057 A 
ATOM      9  C11 UNL     1      19.947   6.910  35.814  0.00  0.00    +0.146 A 
ATOM     10  N4  UNL     1      21.134   6.291  35.958  0.00  0.00    -0.179 NA
ATOM     11  N5  UNL     1      21.836   6.974  36.848  0.00  0.00    -0.274 N 
ATOM     12  C12 UNL     1      23.213   6.665  37.205  0.00  0.00    +0.172 C 
ATOM     13  C13 UNL     1      21.135   8.043  37.270  0.00  0.00    +0.119 A 
ENDBRANCH   6   8
BRANCH   1  14
ATOM     14  C6  UNL     1      16.235  12.738  37.193  0.00  0.00    +0.150 C 
BRANCH  14  19
ATOM     15  C1  UNL     1      11.135  13.824  35.768  0.00  0.00    +0.051 C 
ATOM     16  C2  UNL     1      12.423  13.226  36.222  0.00  0.00    -0.013 A 
ATOM     17  C3  UNL     1      12.613  11.903  36.603  0.00  0.00    +0.011 A 
ATOM     18  C4  UNL     1      13.936  11.616  36.953  0.00  0.00    +0.013 A 
ATOM     19  C5  UNL     1      14.787  12.709  36.821  0.00  0.00    +0.007 A 
ATOM     20  S2  UNL     1      13.898  14.034  36.286  0.00  0.00    -0.097 S 
ENDBRANCH  14  19
ENDBRANCH   1  14
BRANCH   7  21
ATOM     21  C14 UNL     1      19.904  11.011  35.613  0.00  0.00    +0.131 C 
BRANCH  21  22
ATOM     22  C15 UNL     1      20.081  10.698  34.112  0.00  0.00    +0.026 C 
ATOM     23  C16 UNL     1      19.039   9.736  33.581  0.00  0.00    +0.023 C 
ATOM     24  C17 UNL     1      19.742   8.966  32.471  0.00  0.00    +0.109 C 
ATOM     25  N7  UNL     1      21.182   9.256  32.559  0.00  0.00    -0.181 NA
ATOM     26  C19 UNL     1      21.393   9.993  33.809  0.00  0.00    +0.114 C 
BRANCH  25  27
ATOM     27  S1  UNL     1      22.139   7.796  32.524  0.00  0.00    +0.029 S 
ATOM     28  C18 UNL     1      23.116   7.756  31.036  0.00  0.00    +0.215 C 
ATOM     29  O1  UNL     1      23.061   7.772  33.710  0.00  0.00    -0.158 OA
ATOM     30  O2  UNL     1      21.247   6.585  32.565  0.00  0.00    -0.158 OA
ENDBRANCH  25  27
ENDBRANCH  21  22
ENDBRANCH   7  21
TORSDOF 6
ENDMDL
MODEL 9
REMARK VINA RESULT:    -5.003     11.549     13.486
REMARK INTER + INTRA:          -8.587
REMARK INTER:                  -7.385
REMARK INTRA:                  -1.202
REMARK UNBOUND:                -1.829
REMARK  Name = /home/qwerty/github/datacon2025hack/step_04_hit_selection/docking/ligands/lig_722.pdb
REMARK  10 active torsions:
REMARK  status: ('A' for Active; 'I' for Inactive)
REMARK    1  A    between atoms: C1_1  and  C2_2
REMARK    2  A    between atoms: C5_5  and  C6_6
REMARK    3  A    between atoms: C6_6  and  N1_7
REMARK    4  A    between atoms: N1_7  and  C7_8
REMARK    5  A    between atoms: C9_12  and  C10_13
REMARK    6  A    between atoms: N5_16  and  C12_17
REMARK    7  A    between atoms: N6_19  and  C14_20
REMARK    8  A    between atoms: C14_20  and  C15_21
REMARK    9  A    between atoms: N7_24  and  S1_25
REMARK   10  A    between atoms: S1_25  and  C18_26
REMARK                            x       y       z     vdW  Elec       q    Type
REMARK                         _______ _______ _______ _____ _____    ______ ____
ROOT
ATOM      1  N1  UNL     1      15.201  14.717  29.228  0.00  0.00    -0.298 N 
ATOM      2  C7  UNL     1      16.122  13.579  29.241  0.00  0.00    +0.132 C 
ATOM      3  C8  UNL     1      13.831  14.528  28.827  0.00  0.00    +0.220 A 
ATOM      4  N2  UNL     1      13.256  15.234  27.837  0.00  0.00    -0.113 NA
ATOM      5  N3  UNL     1      12.020  14.780  27.711  0.00  0.00    -0.127 NA
ATOM      6  C9  UNL     1      11.858  13.798  28.621  0.00  0.00    +0.168 A 
ATOM      7  N6  UNL     1      12.981  13.618  29.361  0.00  0.00    -0.295 N 
ENDROOT
BRANCH   6   8
ATOM      8  C10 UNL     1      10.584  13.069  28.767  0.00  0.00    +0.057 A 
ATOM      9  C11 UNL     1       9.562  13.385  29.644  0.00  0.00    +0.146 A 
ATOM     10  N4  UNL     1       8.531  12.541  29.448  0.00  0.00    -0.179 NA
ATOM     11  N5  UNL     1       8.874  11.709  28.478  0.00  0.00    -0.274 N 
ATOM     12  C12 UNL     1       7.982  10.704  27.918  0.00  0.00    +0.172 C 
ATOM     13  C13 UNL     1      10.104  12.010  28.022  0.00  0.00    +0.119 A 
ENDBRANCH   6   8
BRANCH   1  14
ATOM     14  C6  UNL     1      15.758  16.073  29.285  0.00  0.00    +0.150 C 
BRANCH  14  19
ATOM     15  C1  UNL     1      20.061  16.901  26.119  0.00  0.00    +0.051 C 
ATOM     16  C2  UNL     1      18.706  16.729  26.719  0.00  0.00    -0.013 A 
ATOM     17  C3  UNL     1      17.501  16.803  26.031  0.00  0.00    +0.011 A 
ATOM     18  C4  UNL     1      16.388  16.570  26.845  0.00  0.00    +0.013 A 
ATOM     19  C5  UNL     1      16.725  16.287  28.165  0.00  0.00    +0.007 A 
ATOM     20  S2  UNL     1      18.399  16.341  28.327  0.00  0.00    -0.097 S 
ENDBRANCH  14  19
ENDBRANCH   1  14
BRANCH   7  21
ATOM     21  C14 UNL     1      13.154  12.842  30.599  0.00  0.00    +0.131 C 
BRANCH  21  22
ATOM     22  C15 UNL     1      13.205  13.760  31.839  0.00  0.00    +0.026 C 
ATOM     23  C16 UNL     1      14.338  13.416  32.784  0.00  0.00    +0.023 C 
ATOM     24  C17 UNL     1      13.823  13.789  34.168  0.00  0.00    +0.109 C 
ATOM     25  N7  UNL     1      12.379  14.049  34.061  0.00  0.00    -0.181 NA
ATOM     26  C19 UNL     1      11.970  13.634  32.715  0.00  0.00    +0.114 C 
BRANCH  25  27
ATOM     27  S1  UNL     1      11.475  13.189  35.282  0.00  0.00    +0.029 S 
ATOM     28  C18 UNL     1      10.095  14.180  35.814  0.00  0.00    +0.215 C 
ATOM     29  O1  UNL     1      10.954  11.902  34.707  0.00  0.00    -0.158 OA
ATOM     30  O2  UNL     1      12.353  12.883  36.465  0.00  0.00    -0.158 OA
ENDBRANCH  25  27
ENDBRANCH  21  22
ENDBRANCH   7  21
TORSDOF 6
ENDMDL
