MODEL 1
REMARK VINA RESULT:    -8.035      0.000      0.000
REMARK INTER + INTRA:         -11.854
REMARK INTER:                 -10.853
REMARK INTRA:                  -1.000
REMARK UNBOUND:                -1.000
REMARK  Name = /home/qwerty/github/datacon2025hack/step_04_hit_selection/docking/ligands/lig_728.pdb
REMARK  8 active torsions:
REMARK  status: ('A' for Active; 'I' for Inactive)
REMARK    1  A    between atoms: C1_1  and  O1_2
REMARK    2  A    between atoms: O1_2  and  C2_3
REMARK    3  A    between atoms: C4_5  and  N1_6
REMARK    4  A    between atoms: N2_9  and  C6_10
REMARK    5  A    between atoms: C8_12  and  C9_13
REMARK    6  A    between atoms: C17_24  and  N4_25
REMARK    7  A    between atoms: N5_28  and  C19_29
REMARK    8  A    between atoms: C24_35  and  C25_36
REMARK                            x       y       z     vdW  Elec       q    Type
REMARK                         _______ _______ _______ _____ _____    ______ ____
ROOT
ATOM      1  C2  UNL     1      19.868   7.129  19.994  0.00  0.00    +0.143 A 
ATOM      2  C3  UNL     1      19.855   5.955  20.774  0.00  0.00    +0.071 A 
ATOM      3  C4  UNL     1      21.048   5.286  21.083  0.00  0.00    +0.038 A 
ATOM      4  C15 UNL     1      22.261   5.780  20.581  0.00  0.00    +0.025 A 
ATOM      5  C16 UNL     1      22.283   6.941  19.806  0.00  0.00    +0.029 A 
ATOM      6  C17 UNL     1      21.091   7.618  19.499  0.00  0.00    +0.077 A 
ENDROOT
BRANCH   3   7
ATOM      7  N1  UNL     1      20.998   4.080  21.864  0.00  0.00    -0.269 N 
ATOM      8  C5  UNL     1      21.304   4.016  23.265  0.00  0.00    +0.310 C 
ATOM      9  O2  UNL     1      21.433   5.077  23.934  0.00  0.00    -0.252 OA
ATOM     10  N2  UNL     1      21.455   2.736  23.895  0.00  0.00    -0.238 N 
ATOM     11  H5  UNL     1      20.629   3.213  21.410  0.00  0.00    +0.156 HD
ATOM     12  H6  UNL     1      21.551   1.896  23.282  0.00  0.00    +0.159 HD
BRANCH  10  13
ATOM     13  C6  UNL     1      21.529   2.527  25.313  0.00  0.00    +0.226 A 
ATOM     14  C7  UNL     1      20.548   2.012  26.138  0.00  0.00    +0.097 A 
ATOM     15  C8  UNL     1      21.152   2.003  27.386  0.00  0.00    +0.115 A 
ATOM     16  N3  UNL     1      22.409   2.486  27.275  0.00  0.00    -0.076 NA
ATOM     17  O3  UNL     1      22.599   2.784  26.024  0.00  0.00    -0.339 OA
BRANCH  15  18
ATOM     18  C9  UNL     1      20.560   1.535  28.662  0.00  0.00    +0.004 A 
ATOM     19  C10 UNL     1      21.368   1.047  29.709  0.00  0.00    +0.011 A 
ATOM     20  C11 UNL     1      20.790   0.614  30.907  0.00  0.00    +0.016 A 
ATOM     21  C12 UNL     1      19.403   0.664  31.077  0.00  0.00    +0.018 A 
ATOM     22 BR1  UNL     1      18.619   0.077  32.716  0.00  0.00    -0.050 Br
ATOM     23  C13 UNL     1      18.593   1.143  30.045  0.00  0.00    +0.016 A 
ATOM     24  C14 UNL     1      19.165   1.576  28.845  0.00  0.00    +0.011 A 
ENDBRANCH  15  18
ENDBRANCH  10  13
ENDBRANCH   3   7
BRANCH   6  25
ATOM     25  N4  UNL     1      21.115   8.832  18.726  0.00  0.00    -0.266 N 
ATOM     26  C18 UNL     1      21.252  10.140  19.300  0.00  0.00    +0.308 C 
ATOM     27  O4  UNL     1      21.585  10.272  20.510  0.00  0.00    -0.252 OA
ATOM     28  N5  UNL     1      21.081  11.300  18.469  0.00  0.00    -0.269 N 
ATOM     29  H14 UNL     1      21.099   8.757  17.684  0.00  0.00    +0.156 HD
ATOM     30  H15 UNL     1      21.029  11.152  17.437  0.00  0.00    +0.156 HD
BRANCH  28  31
ATOM     31  C19 UNL     1      21.043  12.645  18.978  0.00  0.00    +0.040 A 
ATOM     32  C20 UNL     1      22.211  13.430  18.993  0.00  0.00    +0.062 A 
ATOM     33  C21 UNL     1      22.191  14.724  19.519  0.00  0.00    +0.125 A 
ATOM     34  F1  UNL     1      23.324  15.468  19.528  0.00  0.00    -0.205 F 
ATOM     35  C22 UNL     1      21.010  15.245  20.048  0.00  0.00    +0.039 A 
ATOM     36  C23 UNL     1      19.845  14.475  20.054  0.00  0.00    +0.008 A 
ATOM     37  C24 UNL     1      19.847  13.175  19.520  0.00  0.00    -0.029 A 
ATOM     38  C25 UNL     1      18.579  12.365  19.542  0.00  0.00    +0.045 C 
ENDBRANCH  28  31
ENDBRANCH   6  25
BRANCH   1  40
ATOM     39  C1  UNL     1      17.666   7.337  18.818  0.00  0.00    +0.277 C 
ATOM     40  O1  UNL     1      18.688   7.823  19.682  0.00  0.00    -0.493 OA
ENDBRANCH   1  40
TORSDOF 6
ENDMDL
MODEL 2
REMARK VINA RESULT:    -7.874     11.226     14.598
REMARK INTER + INTRA:         -11.636
REMARK INTER:                 -10.701
REMARK INTRA:                  -0.935
REMARK UNBOUND:                -1.000
REMARK  Name = /home/qwerty/github/datacon2025hack/step_04_hit_selection/docking/ligands/lig_728.pdb
REMARK  8 active torsions:
REMARK  status: ('A' for Active; 'I' for Inactive)
REMARK    1  A    between atoms: C1_1  and  O1_2
REMARK    2  A    between atoms: O1_2  and  C2_3
REMARK    3  A    between atoms: C4_5  and  N1_6
REMARK    4  A    between atoms: N2_9  and  C6_10
REMARK    5  A    between atoms: C8_12  and  C9_13
REMARK    6  A    between atoms: C17_24  and  N4_25
REMARK    7  A    between atoms: N5_28  and  C19_29
REMARK    8  A    between atoms: C24_35  and  C25_36
REMARK                            x       y       z     vdW  Elec       q    Type
REMARK                         _______ _______ _______ _____ _____    ______ ____
ROOT
ATOM      1  C2  UNL     1      18.491  11.151  36.851  0.00  0.00    +0.143 A 
ATOM      2  C3  UNL     1      19.552  10.259  36.599  0.00  0.00    +0.071 A 
ATOM      3  C4  UNL     1      19.500   8.934  37.055  0.00  0.00    +0.038 A 
ATOM      4  C15 UNL     1      18.388   8.508  37.796  0.00  0.00    +0.025 A 
ATOM      5  C16 UNL     1      17.333   9.385  38.053  0.00  0.00    +0.029 A 
ATOM      6  C17 UNL     1      17.378  10.711  37.592  0.00  0.00    +0.077 A 
ENDROOT
BRANCH   3   7
ATOM      7  N1  UNL     1      20.608   8.055  36.798  0.00  0.00    -0.269 N 
ATOM      8  C5  UNL     1      20.774   7.301  35.588  0.00  0.00    +0.310 C 
ATOM      9  O2  UNL     1      20.042   7.539  34.589  0.00  0.00    -0.252 OA
ATOM     10  N2  UNL     1      21.780   6.280  35.526  0.00  0.00    -0.238 N 
ATOM     11  H5  UNL     1      21.390   8.031  37.493  0.00  0.00    +0.156 HD
ATOM     12  H6  UNL     1      22.217   5.967  36.422  0.00  0.00    +0.159 HD
BRANCH  10  13
ATOM     13  C6  UNL     1      22.201   5.621  34.323  0.00  0.00    +0.226 A 
ATOM     14  C7  UNL     1      21.424   4.876  33.458  0.00  0.00    +0.097 A 
ATOM     15  C8  UNL     1      22.318   4.505  32.465  0.00  0.00    +0.115 A 
ATOM     16  N3  UNL     1      23.536   5.012  32.750  0.00  0.00    -0.076 NA
ATOM     17  O3  UNL     1      23.427   5.676  33.864  0.00  0.00    -0.339 OA
BRANCH  15  18
ATOM     18  C9  UNL     1      22.026   3.695  31.258  0.00  0.00    +0.004 A 
ATOM     19  C10 UNL     1      21.508   4.284  30.087  0.00  0.00    +0.011 A 
ATOM     20  C11 UNL     1      21.244   3.503  28.958  0.00  0.00    +0.016 A 
ATOM     21  C12 UNL     1      21.495   2.128  28.979  0.00  0.00    +0.018 A 
ATOM     22 BR1  UNL     1      21.138   1.067  27.433  0.00  0.00    -0.050 Br
ATOM     23  C13 UNL     1      22.006   1.533  30.135  0.00  0.00    +0.016 A 
ATOM     24  C14 UNL     1      22.271   2.308  31.268  0.00  0.00    +0.011 A 
ENDBRANCH  15  18
ENDBRANCH  10  13
ENDBRANCH   3   7
BRANCH   6  25
ATOM     25  N4  UNL     1      16.278  11.609  37.828  0.00  0.00    -0.266 N 
ATOM     26  C18 UNL     1      15.150  11.736  36.950  0.00  0.00    +0.308 C 
ATOM     27  O4  UNL     1      14.963  10.893  36.029  0.00  0.00    -0.252 OA
ATOM     28  N5  UNL     1      14.194  12.785  37.172  0.00  0.00    -0.269 N 
ATOM     29  H14 UNL     1      16.263  12.150  38.721  0.00  0.00    +0.156 HD
ATOM     30  H15 UNL     1      14.260  13.319  38.067  0.00  0.00    +0.156 HD
BRANCH  28  31
ATOM     31  C19 UNL     1      13.123  13.092  36.262  0.00  0.00    +0.040 A 
ATOM     32  C20 UNL     1      13.324  14.013  35.217  0.00  0.00    +0.062 A 
ATOM     33  C21 UNL     1      12.279  14.345  34.352  0.00  0.00    +0.125 A 
ATOM     34  F1  UNL     1      12.486  15.234  33.349  0.00  0.00    -0.205 F 
ATOM     35  C22 UNL     1      11.019  13.774  34.526  0.00  0.00    +0.039 A 
ATOM     36  C23 UNL     1      10.797  12.870  35.567  0.00  0.00    +0.008 A 
ATOM     37  C24 UNL     1      11.841  12.519  36.440  0.00  0.00    -0.029 A 
ATOM     38  C25 UNL     1      11.575  11.544  37.556  0.00  0.00    +0.045 C 
ENDBRANCH  28  31
ENDBRANCH   6  25
BRANCH   1  40
ATOM     39  C1  UNL     1      18.376  12.867  35.030  0.00  0.00    +0.277 C 
ATOM     40  O1  UNL     1      18.515  12.478  36.392  0.00  0.00    -0.493 OA
ENDBRANCH   1  40
TORSDOF 6
ENDMDL
MODEL 3
REMARK VINA RESULT:    -7.805      7.753      8.944
REMARK INTER + INTRA:         -11.544
REMARK INTER:                 -10.732
REMARK INTRA:                  -0.812
REMARK UNBOUND:                -1.000
REMARK  Name = /home/qwerty/github/datacon2025hack/step_04_hit_selection/docking/ligands/lig_728.pdb
REMARK  8 active torsions:
REMARK  status: ('A' for Active; 'I' for Inactive)
REMARK    1  A    between atoms: C1_1  and  O1_2
REMARK    2  A    between atoms: O1_2  and  C2_3
REMARK    3  A    between atoms: C4_5  and  N1_6
REMARK    4  A    between atoms: N2_9  and  C6_10
REMARK    5  A    between atoms: C8_12  and  C9_13
REMARK    6  A    between atoms: C17_24  and  N4_25
REMARK    7  A    between atoms: N5_28  and  C19_29
REMARK    8  A    between atoms: C24_35  and  C25_36
REMARK                            x       y       z     vdW  Elec       q    Type
REMARK                         _______ _______ _______ _____ _____    ______ ____
ROOT
ATOM      1  C2  UNL     1      11.739   3.083  20.733  0.00  0.00    +0.143 A 
ATOM      2  C3  UNL     1      12.725   2.144  21.098  0.00  0.00    +0.071 A 
ATOM      3  C4  UNL     1      14.053   2.300  20.678  0.00  0.00    +0.038 A 
ATOM      4  C15 UNL     1      14.391   3.388  19.860  0.00  0.00    +0.025 A 
ATOM      5  C16 UNL     1      13.421   4.322  19.492  0.00  0.00    +0.029 A 
ATOM      6  C17 UNL     1      12.090   4.174  19.916  0.00  0.00    +0.077 A 
ENDROOT
BRANCH   3   7
ATOM      7  N1  UNL     1      15.031   1.313  21.050  0.00  0.00    -0.269 N 
ATOM      8  C5  UNL     1      15.766   1.335  22.284  0.00  0.00    +0.310 C 
ATOM      9  O2  UNL     1      15.430   2.125  23.207  0.00  0.00    -0.252 OA
ATOM     10  N2  UNL     1      16.879   0.446  22.456  0.00  0.00    -0.238 N 
ATOM     11  H5  UNL     1      15.150   0.479  20.432  0.00  0.00    +0.156 HD
ATOM     12  H6  UNL     1      17.257  -0.035  21.609  0.00  0.00    +0.159 HD
BRANCH  10  13
ATOM     13  C6  UNL     1      17.545   0.204  23.703  0.00  0.00    +0.226 A 
ATOM     14  C7  UNL     1      18.213   1.121  24.490  0.00  0.00    +0.097 A 
ATOM     15  C8  UNL     1      18.631   0.367  25.576  0.00  0.00    +0.115 A 
ATOM     16  N3  UNL     1      18.221  -0.910  25.415  0.00  0.00    -0.076 NA
ATOM     17  O3  UNL     1      17.573  -0.968  24.289  0.00  0.00    -0.339 OA
BRANCH  15  18
ATOM     18  C9  UNL     1      19.394   0.843  26.755  0.00  0.00    +0.004 A 
ATOM     19  C10 UNL     1      20.803   0.853  26.761  0.00  0.00    +0.011 A 
ATOM     20  C11 UNL     1      21.503   1.311  27.882  0.00  0.00    +0.016 A 
ATOM     21  C12 UNL     1      20.810   1.766  29.007  0.00  0.00    +0.018 A 
ATOM     22 BR1  UNL     1      21.770   2.395  30.533  0.00  0.00    -0.050 Br
ATOM     23  C13 UNL     1      19.413   1.759  29.013  0.00  0.00    +0.016 A 
ATOM     24  C14 UNL     1      18.707   1.301  27.896  0.00  0.00    +0.011 A 
ENDBRANCH  15  18
ENDBRANCH  10  13
ENDBRANCH   3   7
BRANCH   6  25
ATOM     25  N4  UNL     1      11.094   5.152  19.563  0.00  0.00    -0.266 N 
ATOM     26  C18 UNL     1      10.898   6.382  20.276  0.00  0.00    +0.308 C 
ATOM     27  O4  UNL     1      11.749   6.769  21.123  0.00  0.00    -0.252 OA
ATOM     28  N5  UNL     1       9.764   7.207  19.964  0.00  0.00    -0.269 N 
ATOM     29  H14 UNL     1      10.526   4.992  18.701  0.00  0.00    +0.156 HD
ATOM     30  H15 UNL     1       9.210   6.968  19.112  0.00  0.00    +0.156 HD
BRANCH  28  31
ATOM     31  C19 UNL     1       9.393   8.372  20.724  0.00  0.00    +0.040 A 
ATOM     32  C20 UNL     1       8.413   8.279  21.730  0.00  0.00    +0.062 A 
ATOM     33  C21 UNL     1       8.021   9.412  22.446  0.00  0.00    +0.125 A 
ATOM     34  F1  UNL     1       7.074   9.308  23.412  0.00  0.00    -0.205 F 
ATOM     35  C22 UNL     1       8.592  10.652  22.161  0.00  0.00    +0.039 A 
ATOM     36  C23 UNL     1       9.555  10.765  21.156  0.00  0.00    +0.008 A 
ATOM     37  C24 UNL     1       9.967   9.632  20.433  0.00  0.00    -0.029 A 
ATOM     38  C25 UNL     1      11.006   9.782  19.354  0.00  0.00    +0.045 C 
ENDBRANCH  28  31
ENDBRANCH   6  25
BRANCH   1  40
ATOM     39  C1  UNL     1      10.001   2.553  22.457  0.00  0.00    +0.277 C 
ATOM     40  O1  UNL     1      10.405   2.956  21.153  0.00  0.00    -0.493 OA
ENDBRANCH   1  40
TORSDOF 6
ENDMDL
MODEL 4
REMARK VINA RESULT:    -7.703      8.501     13.301
REMARK INTER + INTRA:         -11.405
REMARK INTER:                 -10.518
REMARK INTRA:                  -0.887
REMARK UNBOUND:                -1.000
REMARK  Name = /home/qwerty/github/datacon2025hack/step_04_hit_selection/docking/ligands/lig_728.pdb
REMARK  8 active torsions:
REMARK  status: ('A' for Active; 'I' for Inactive)
REMARK    1  A    between atoms: C1_1  and  O1_2
REMARK    2  A    between atoms: O1_2  and  C2_3
REMARK    3  A    between atoms: C4_5  and  N1_6
REMARK    4  A    between atoms: N2_9  and  C6_10
REMARK    5  A    between atoms: C8_12  and  C9_13
REMARK    6  A    between atoms: C17_24  and  N4_25
REMARK    7  A    between atoms: N5_28  and  C19_29
REMARK    8  A    between atoms: C24_35  and  C25_36
REMARK                            x       y       z     vdW  Elec       q    Type
REMARK                         _______ _______ _______ _____ _____    ______ ____
ROOT
ATOM      1  C2  UNL     1      13.759   2.280  20.521  0.00  0.00    +0.143 A 
ATOM      2  C3  UNL     1      15.040   2.731  20.144  0.00  0.00    +0.071 A 
ATOM      3  C4  UNL     1      15.213   3.990  19.555  0.00  0.00    +0.038 A 
ATOM      4  C15 UNL     1      14.089   4.794  19.312  0.00  0.00    +0.025 A 
ATOM      5  C16 UNL     1      12.816   4.356  19.679  0.00  0.00    +0.029 A 
ATOM      6  C17 UNL     1      12.639   3.096  20.276  0.00  0.00    +0.077 A 
ENDROOT
BRANCH   3   7
ATOM      7  N1  UNL     1      16.531   4.412  19.164  0.00  0.00    -0.269 N 
ATOM      8  C5  UNL     1      17.080   5.707  19.452  0.00  0.00    +0.310 C 
ATOM      9  O2  UNL     1      16.493   6.478  20.259  0.00  0.00    -0.252 OA
ATOM     10  N2  UNL     1      18.302   6.110  18.818  0.00  0.00    -0.238 N 
ATOM     11  H5  UNL     1      17.165   3.705  18.725  0.00  0.00    +0.156 HD
ATOM     12  H6  UNL     1      18.644   5.546  18.009  0.00  0.00    +0.159 HD
BRANCH  10  13
ATOM     13  C6  UNL     1      19.071   7.264  19.188  0.00  0.00    +0.226 A 
ATOM     14  C7  UNL     1      19.130   8.478  18.533  0.00  0.00    +0.097 A 
ATOM     15  C8  UNL     1      19.986   9.228  19.324  0.00  0.00    +0.115 A 
ATOM     16  N3  UNL     1      20.391   8.480  20.373  0.00  0.00    -0.076 NA
ATOM     17  O3  UNL     1      19.822   7.316  20.261  0.00  0.00    -0.339 OA
BRANCH  15  18
ATOM     18  C9  UNL     1      20.407  10.633  19.104  0.00  0.00    +0.004 A 
ATOM     19  C10 UNL     1      19.489  11.697  19.205  0.00  0.00    +0.011 A 
ATOM     20  C11 UNL     1      19.908  13.016  18.999  0.00  0.00    +0.016 A 
ATOM     21  C12 UNL     1      21.244  13.290  18.691  0.00  0.00    +0.018 A 
ATOM     22 BR1  UNL     1      21.811  15.091  18.415  0.00  0.00    -0.050 Br
ATOM     23  C13 UNL     1      22.162  12.242  18.586  0.00  0.00    +0.016 A 
ATOM     24  C14 UNL     1      21.749  10.921  18.790  0.00  0.00    +0.011 A 
ENDBRANCH  15  18
ENDBRANCH  10  13
ENDBRANCH   3   7
BRANCH   6  25
ATOM     25  N4  UNL     1      11.331   2.655  20.684  0.00  0.00    -0.266 N 
ATOM     26  C18 UNL     1      10.784   2.882  21.992  0.00  0.00    +0.308 C 
ATOM     27  O4  UNL     1      11.348   3.685  22.786  0.00  0.00    -0.252 OA
ATOM     28  N5  UNL     1       9.550   2.247  22.364  0.00  0.00    -0.269 N 
ATOM     29  H14 UNL     1      10.715   2.203  19.971  0.00  0.00    +0.156 HD
ATOM     30  H15 UNL     1       9.003   1.775  21.611  0.00  0.00    +0.156 HD
BRANCH  28  31
ATOM     31  C19 UNL     1       9.005   2.284  23.695  0.00  0.00    +0.040 A 
ATOM     32  C20 UNL     1       9.366   1.301  24.635  0.00  0.00    +0.062 A 
ATOM     33  C21 UNL     1       8.813   1.308  25.918  0.00  0.00    +0.125 A 
ATOM     34  F1  UNL     1       9.168   0.354  26.814  0.00  0.00    -0.205 F 
ATOM     35  C22 UNL     1       7.886   2.287  26.274  0.00  0.00    +0.039 A 
ATOM     36  C23 UNL     1       7.505   3.261  25.349  0.00  0.00    +0.008 A 
ATOM     37  C24 UNL     1       8.060   3.273  24.057  0.00  0.00    -0.029 A 
ATOM     38  C25 UNL     1       7.631   4.333  23.079  0.00  0.00    +0.045 C 
ENDBRANCH  28  31
ENDBRANCH   6  25
BRANCH   1  40
ATOM     39  C1  UNL     1      13.812   0.743  22.498  0.00  0.00    +0.277 C 
ATOM     40  O1  UNL     1      13.563   1.028  21.125  0.00  0.00    -0.493 OA
ENDBRANCH   1  40
TORSDOF 6
ENDMDL
MODEL 5
REMARK VINA RESULT:    -7.634      7.558      8.627
REMARK INTER + INTRA:         -11.312
REMARK INTER:                 -10.464
REMARK INTRA:                  -0.848
REMARK UNBOUND:                -1.000
REMARK  Name = /home/qwerty/github/datacon2025hack/step_04_hit_selection/docking/ligands/lig_728.pdb
REMARK  8 active torsions:
REMARK  status: ('A' for Active; 'I' for Inactive)
REMARK    1  A    between atoms: C1_1  and  O1_2
REMARK    2  A    between atoms: O1_2  and  C2_3
REMARK    3  A    between atoms: C4_5  and  N1_6
REMARK    4  A    between atoms: N2_9  and  C6_10
REMARK    5  A    between atoms: C8_12  and  C9_13
REMARK    6  A    between atoms: C17_24  and  N4_25
REMARK    7  A    between atoms: N5_28  and  C19_29
REMARK    8  A    between atoms: C24_35  and  C25_36
REMARK                            x       y       z     vdW  Elec       q    Type
REMARK                         _______ _______ _______ _____ _____    ______ ____
ROOT
ATOM      1  C2  UNL     1      12.106   2.541  21.476  0.00  0.00    +0.143 A 
ATOM      2  C3  UNL     1      13.137   1.736  22.002  0.00  0.00    +0.071 A 
ATOM      3  C4  UNL     1      14.449   1.846  21.520  0.00  0.00    +0.038 A 
ATOM      4  C15 UNL     1      14.725   2.749  20.483  0.00  0.00    +0.025 A 
ATOM      5  C16 UNL     1      13.711   3.549  19.955  0.00  0.00    +0.029 A 
ATOM      6  C17 UNL     1      12.396   3.447  20.439  0.00  0.00    +0.077 A 
ENDROOT
BRANCH   3   7
ATOM      7  N1  UNL     1      15.474   0.996  22.063  0.00  0.00    -0.269 N 
ATOM      8  C5  UNL     1      16.440   1.421  23.036  0.00  0.00    +0.310 C 
ATOM      9  O2  UNL     1      16.302   2.528  23.624  0.00  0.00    -0.252 OA
ATOM     10  N2  UNL     1      17.558   0.573  23.335  0.00  0.00    -0.238 N 
ATOM     11  H5  UNL     1      15.460  -0.018  21.807  0.00  0.00    +0.156 HD
ATOM     12  H6  UNL     1      17.756  -0.224  22.689  0.00  0.00    +0.159 HD
BRANCH  10  13
ATOM     13  C6  UNL     1      18.458   0.766  24.436  0.00  0.00    +0.226 A 
ATOM     14  C7  UNL     1      18.142   0.817  25.779  0.00  0.00    +0.097 A 
ATOM     15  C8  UNL     1      19.374   0.990  26.391  0.00  0.00    +0.115 A 
ATOM     16  N3  UNL     1      20.338   1.034  25.446  0.00  0.00    -0.076 NA
ATOM     17  O3  UNL     1      19.754   0.893  24.292  0.00  0.00    -0.339 OA
BRANCH  15  18
ATOM     18  C9  UNL     1      19.642   1.099  27.846  0.00  0.00    +0.004 A 
ATOM     19  C10 UNL     1      18.599   1.312  28.769  0.00  0.00    +0.011 A 
ATOM     20  C11 UNL     1      18.873   1.406  30.137  0.00  0.00    +0.016 A 
ATOM     21  C12 UNL     1      20.186   1.288  30.602  0.00  0.00    +0.018 A 
ATOM     22 BR1  UNL     1      20.554   1.413  32.471  0.00  0.00    -0.050 Br
ATOM     23  C13 UNL     1      21.228   1.079  29.695  0.00  0.00    +0.016 A 
ATOM     24  C14 UNL     1      20.961   0.985  28.326  0.00  0.00    +0.011 A 
ENDBRANCH  15  18
ENDBRANCH  10  13
ENDBRANCH   3   7
BRANCH   6  25
ATOM     25  N4  UNL     1      11.354   4.293  19.918  0.00  0.00    -0.266 N 
ATOM     26  C18 UNL     1      11.153   5.653  20.327  0.00  0.00    +0.308 C 
ATOM     27  O4  UNL     1      12.031   6.248  21.011  0.00  0.00    -0.252 OA
ATOM     28  N5  UNL     1       9.979   6.358  19.889  0.00  0.00    -0.269 N 
ATOM     29  H14 UNL     1      10.751   3.921  19.150  0.00  0.00    +0.156 HD
ATOM     30  H15 UNL     1       9.394   5.911  19.149  0.00  0.00    +0.156 HD
BRANCH  28  31
ATOM     31  C19 UNL     1       9.609   7.663  20.369  0.00  0.00    +0.040 A 
ATOM     32  C20 UNL     1      10.281   8.807  19.898  0.00  0.00    +0.062 A 
ATOM     33  C21 UNL     1       9.953  10.074  20.386  0.00  0.00    +0.125 A 
ATOM     34  F1  UNL     1      10.608  11.168  19.924  0.00  0.00    -0.205 F 
ATOM     35  C22 UNL     1       8.963  10.215  21.358  0.00  0.00    +0.039 A 
ATOM     36  C23 UNL     1       8.297   9.089  21.847  0.00  0.00    +0.008 A 
ATOM     37  C24 UNL     1       8.609   7.808  21.359  0.00  0.00    -0.029 A 
ATOM     38  C25 UNL     1       7.878   6.611  21.906  0.00  0.00    +0.045 C 
ENDBRANCH  28  31
ENDBRANCH   6  25
BRANCH   1  40
ATOM     39  C1  UNL     1      10.222   1.310  22.576  0.00  0.00    +0.277 C 
ATOM     40  O1  UNL     1      10.787   2.458  21.952  0.00  0.00    -0.493 OA
ENDBRANCH   1  40
TORSDOF 6
ENDMDL
MODEL 6
REMARK VINA RESULT:    -7.599     11.021     14.421
REMARK INTER + INTRA:         -11.265
REMARK INTER:                 -10.423
REMARK INTRA:                  -0.842
REMARK UNBOUND:                -1.000
REMARK  Name = /home/qwerty/github/datacon2025hack/step_04_hit_selection/docking/ligands/lig_728.pdb
REMARK  8 active torsions:
REMARK  status: ('A' for Active; 'I' for Inactive)
REMARK    1  A    between atoms: C1_1  and  O1_2
REMARK    2  A    between atoms: O1_2  and  C2_3
REMARK    3  A    between atoms: C4_5  and  N1_6
REMARK    4  A    between atoms: N2_9  and  C6_10
REMARK    5  A    between atoms: C8_12  and  C9_13
REMARK    6  A    between atoms: C17_24  and  N4_25
REMARK    7  A    between atoms: N5_28  and  C19_29
REMARK    8  A    between atoms: C24_35  and  C25_36
REMARK                            x       y       z     vdW  Elec       q    Type
REMARK                         _______ _______ _______ _____ _____    ______ ____
ROOT
ATOM      1  C2  UNL     1      19.274  10.426  36.636  0.00  0.00    +0.143 A 
ATOM      2  C3  UNL     1      20.198   9.476  36.154  0.00  0.00    +0.071 A 
ATOM      3  C4  UNL     1      20.023   8.110  36.414  0.00  0.00    +0.038 A 
ATOM      4  C15 UNL     1      18.930   7.694  37.189  0.00  0.00    +0.025 A 
ATOM      5  C16 UNL     1      18.011   8.627  37.671  0.00  0.00    +0.029 A 
ATOM      6  C17 UNL     1      18.179   9.997  37.408  0.00  0.00    +0.077 A 
ENDROOT
BRANCH   3   7
ATOM      7  N1  UNL     1      20.994   7.168  35.927  0.00  0.00    -0.269 N 
ATOM      8  C5  UNL     1      20.751   6.245  34.855  0.00  0.00    +0.310 C 
ATOM      9  O2  UNL     1      19.718   6.361  34.141  0.00  0.00    -0.252 OA
ATOM     10  N2  UNL     1      21.696   5.194  34.603  0.00  0.00    -0.238 N 
ATOM     11  H5  UNL     1      21.966   7.220  36.310  0.00  0.00    +0.156 HD
ATOM     12  H6  UNL     1      22.417   4.999  35.332  0.00  0.00    +0.159 HD
BRANCH  10  13
ATOM     13  C6  UNL     1      21.694   4.357  33.438  0.00  0.00    +0.226 A 
ATOM     14  C7  UNL     1      21.673   4.758  32.116  0.00  0.00    +0.097 A 
ATOM     15  C8  UNL     1      21.712   3.561  31.418  0.00  0.00    +0.115 A 
ATOM     16  N3  UNL     1      21.755   2.536  32.295  0.00  0.00    -0.076 NA
ATOM     17  O3  UNL     1      21.747   3.049  33.490  0.00  0.00    -0.339 OA
BRANCH  15  18
ATOM     18  C9  UNL     1      21.723   3.385  29.945  0.00  0.00    +0.004 A 
ATOM     19  C10 UNL     1      22.097   2.161  29.356  0.00  0.00    +0.011 A 
ATOM     20  C11 UNL     1      22.096   2.014  27.966  0.00  0.00    +0.016 A 
ATOM     21  C12 UNL     1      21.721   3.083  27.146  0.00  0.00    +0.018 A 
ATOM     22 BR1  UNL     1      21.717   2.877  25.248  0.00  0.00    -0.050 Br
ATOM     23  C13 UNL     1      21.351   4.302  27.719  0.00  0.00    +0.016 A 
ATOM     24  C14 UNL     1      21.351   4.455  29.109  0.00  0.00    +0.011 A 
ENDBRANCH  15  18
ENDBRANCH  10  13
ENDBRANCH   3   7
BRANCH   6  25
ATOM     25  N4  UNL     1      17.216  10.958  37.878  0.00  0.00    -0.266 N 
ATOM     26  C18 UNL     1      16.065  11.368  37.125  0.00  0.00    +0.308 C 
ATOM     27  O4  UNL     1      15.721  10.729  36.092  0.00  0.00    -0.252 OA
ATOM     28  N5  UNL     1      15.264  12.464  37.595  0.00  0.00    -0.269 N 
ATOM     29  H14 UNL     1      17.320  11.330  38.848  0.00  0.00    +0.156 HD
ATOM     30  H15 UNL     1      15.448  12.818  38.560  0.00  0.00    +0.156 HD
BRANCH  28  31
ATOM     31  C19 UNL     1      14.190  13.049  36.837  0.00  0.00    +0.040 A 
ATOM     32  C20 UNL     1      12.924  12.435  36.814  0.00  0.00    +0.062 A 
ATOM     33  C21 UNL     1      11.887  12.975  36.050  0.00  0.00    +0.125 A 
ATOM     34  F1  UNL     1      10.672  12.373  36.036  0.00  0.00    -0.205 F 
ATOM     35  C22 UNL     1      12.103  14.125  35.291  0.00  0.00    +0.039 A 
ATOM     36  C23 UNL     1      13.358  14.738  35.291  0.00  0.00    +0.008 A 
ATOM     37  C24 UNL     1      14.409  14.212  36.061  0.00  0.00    -0.029 A 
ATOM     38  C25 UNL     1      15.751  14.891  36.041  0.00  0.00    +0.045 C 
ENDBRANCH  28  31
ENDBRANCH   6  25
BRANCH   1  40
ATOM     39  C1  UNL     1      20.413  12.360  35.524  0.00  0.00    +0.277 C 
ATOM     40  O1  UNL     1      19.421  11.798  36.376  0.00  0.00    -0.493 OA
ENDBRANCH   1  40
TORSDOF 6
ENDMDL
MODEL 7
REMARK VINA RESULT:    -7.590     10.542     12.084
REMARK INTER + INTRA:         -11.253
REMARK INTER:                 -10.251
REMARK INTRA:                  -1.003
REMARK UNBOUND:                -1.000
REMARK  Name = /home/qwerty/github/datacon2025hack/step_04_hit_selection/docking/ligands/lig_728.pdb
REMARK  8 active torsions:
REMARK  status: ('A' for Active; 'I' for Inactive)
REMARK    1  A    between atoms: C1_1  and  O1_2
REMARK    2  A    between atoms: O1_2  and  C2_3
REMARK    3  A    between atoms: C4_5  and  N1_6
REMARK    4  A    between atoms: N2_9  and  C6_10
REMARK    5  A    between atoms: C8_12  and  C9_13
REMARK    6  A    between atoms: C17_24  and  N4_25
REMARK    7  A    between atoms: N5_28  and  C19_29
REMARK    8  A    between atoms: C24_35  and  C25_36
REMARK                            x       y       z     vdW  Elec       q    Type
REMARK                         _______ _______ _______ _____ _____    ______ ____
ROOT
ATOM      1  C2  UNL     1       8.779   8.914  23.263  0.00  0.00    +0.143 A 
ATOM      2  C3  UNL     1       9.077   7.741  22.538  0.00  0.00    +0.071 A 
ATOM      3  C4  UNL     1       8.974   6.480  23.142  0.00  0.00    +0.038 A 
ATOM      4  C15 UNL     1       8.599   6.394  24.491  0.00  0.00    +0.025 A 
ATOM      5  C16 UNL     1       8.304   7.549  25.217  0.00  0.00    +0.029 A 
ATOM      6  C17 UNL     1       8.400   8.815  24.615  0.00  0.00    +0.077 A 
ENDROOT
BRANCH   3   7
ATOM      7  N1  UNL     1       9.304   5.305  22.382  0.00  0.00    -0.269 N 
ATOM      8  C5  UNL     1      10.614   4.719  22.336  0.00  0.00    +0.310 C 
ATOM      9  O2  UNL     1      11.506   5.099  23.142  0.00  0.00    -0.252 OA
ATOM     10  N2  UNL     1      10.894   3.696  21.369  0.00  0.00    -0.238 N 
ATOM     11  H5  UNL     1       8.527   4.790  21.907  0.00  0.00    +0.156 HD
ATOM     12  H6  UNL     1      10.212   3.557  20.591  0.00  0.00    +0.159 HD
BRANCH  10  13
ATOM     13  C6  UNL     1      12.071   2.875  21.367  0.00  0.00    +0.226 A 
ATOM     14  C7  UNL     1      12.443   1.939  22.312  0.00  0.00    +0.097 A 
ATOM     15  C8  UNL     1      13.629   1.429  21.807  0.00  0.00    +0.115 A 
ATOM     16  N3  UNL     1      13.915   2.042  20.638  0.00  0.00    -0.076 NA
ATOM     17  O3  UNL     1      12.961   2.895  20.405  0.00  0.00    -0.339 OA
BRANCH  15  18
ATOM     18  C9  UNL     1      14.475   0.370  22.409  0.00  0.00    +0.004 A 
ATOM     19  C10 UNL     1      15.595  -0.148  21.728  0.00  0.00    +0.011 A 
ATOM     20  C11 UNL     1      16.383  -1.143  22.316  0.00  0.00    +0.016 A 
ATOM     21  C12 UNL     1      16.066  -1.631  23.587  0.00  0.00    +0.018 A 
ATOM     22 BR1  UNL     1      17.147  -2.986  24.388  0.00  0.00    -0.050 Br
ATOM     23  C13 UNL     1      14.957  -1.126  24.270  0.00  0.00    +0.016 A 
ATOM     24  C14 UNL     1      14.165  -0.132  23.687  0.00  0.00    +0.011 A 
ENDBRANCH  15  18
ENDBRANCH  10  13
ENDBRANCH   3   7
BRANCH   6  25
ATOM     25  N4  UNL     1       8.067  10.005  25.351  0.00  0.00    -0.266 N 
ATOM     26  C18 UNL     1       8.992  10.706  26.196  0.00  0.00    +0.308 C 
ATOM     27  O4  UNL     1      10.222  10.429  26.158  0.00  0.00    -0.252 OA
ATOM     28  N5  UNL     1       8.518  11.774  27.032  0.00  0.00    -0.269 N 
ATOM     29  H14 UNL     1       7.120  10.425  25.214  0.00  0.00    +0.156 HD
ATOM     30  H15 UNL     1       7.546  12.119  26.872  0.00  0.00    +0.156 HD
BRANCH  28  31
ATOM     31  C19 UNL     1       9.330  12.429  28.024  0.00  0.00    +0.040 A 
ATOM     32  C20 UNL     1      10.119  13.539  27.672  0.00  0.00    +0.062 A 
ATOM     33  C21 UNL     1      10.938  14.157  28.620  0.00  0.00    +0.125 A 
ATOM     34  F1  UNL     1      11.695  15.226  28.267  0.00  0.00    -0.205 F 
ATOM     35  C22 UNL     1      10.989  13.668  29.925  0.00  0.00    +0.039 A 
ATOM     36  C23 UNL     1      10.224  12.558  30.287  0.00  0.00    +0.008 A 
ATOM     37  C24 UNL     1       9.388  11.931  29.347  0.00  0.00    -0.029 A 
ATOM     38  C25 UNL     1       8.575  10.735  29.764  0.00  0.00    +0.045 C 
ENDBRANCH  28  31
ENDBRANCH   6  25
BRANCH   1  40
ATOM     39  C1  UNL     1       7.895  10.733  21.786  0.00  0.00    +0.277 C 
ATOM     40  O1  UNL     1       8.862  10.187  22.676  0.00  0.00    -0.493 OA
ENDBRANCH   1  40
TORSDOF 6
ENDMDL
MODEL 8
REMARK VINA RESULT:    -7.463      8.507     12.290
REMARK INTER + INTRA:         -11.081
REMARK INTER:                 -10.633
REMARK INTRA:                  -0.448
REMARK UNBOUND:                -1.000
REMARK  Name = /home/qwerty/github/datacon2025hack/step_04_hit_selection/docking/ligands/lig_728.pdb
REMARK  8 active torsions:
REMARK  status: ('A' for Active; 'I' for Inactive)
REMARK    1  A    between atoms: C1_1  and  O1_2
REMARK    2  A    between atoms: O1_2  and  C2_3
REMARK    3  A    between atoms: C4_5  and  N1_6
REMARK    4  A    between atoms: N2_9  and  C6_10
REMARK    5  A    between atoms: C8_12  and  C9_13
REMARK    6  A    between atoms: C17_24  and  N4_25
REMARK    7  A    between atoms: N5_28  and  C19_29
REMARK    8  A    between atoms: C24_35  and  C25_36
REMARK                            x       y       z     vdW  Elec       q    Type
REMARK                         _______ _______ _______ _____ _____    ______ ____
ROOT
ATOM      1  C2  UNL     1      20.656   1.318  30.511  0.00  0.00    +0.143 A 
ATOM      2  C3  UNL     1      20.410   0.824  29.214  0.00  0.00    +0.071 A 
ATOM      3  C4  UNL     1      21.417   0.837  28.239  0.00  0.00    +0.038 A 
ATOM      4  C15 UNL     1      22.672   1.378  28.556  0.00  0.00    +0.025 A 
ATOM      5  C16 UNL     1      22.924   1.872  29.837  0.00  0.00    +0.029 A 
ATOM      6  C17 UNL     1      21.920   1.855  30.820  0.00  0.00    +0.077 A 
ENDROOT
BRANCH   3   7
ATOM      7  N1  UNL     1      21.129   0.344  26.919  0.00  0.00    -0.269 N 
ATOM      8  C5  UNL     1      19.860   0.494  26.265  0.00  0.00    +0.310 C 
ATOM      9  O2  UNL     1      18.984   1.261  26.749  0.00  0.00    -0.252 OA
ATOM     10  N2  UNL     1      19.601  -0.234  25.056  0.00  0.00    -0.238 N 
ATOM     11  H5  UNL     1      21.914  -0.065  26.363  0.00  0.00    +0.156 HD
ATOM     12  H6  UNL     1      20.253  -1.010  24.801  0.00  0.00    +0.159 HD
BRANCH  10  13
ATOM     13  C6  UNL     1      18.482  -0.004  24.188  0.00  0.00    +0.226 A 
ATOM     14  C7  UNL     1      18.098   1.191  23.612  0.00  0.00    +0.097 A 
ATOM     15  C8  UNL     1      16.989   0.841  22.858  0.00  0.00    +0.115 A 
ATOM     16  N3  UNL     1      16.756  -0.481  22.996  0.00  0.00    -0.076 NA
ATOM     17  O3  UNL     1      17.669  -0.953  23.793  0.00  0.00    -0.339 OA
BRANCH  15  18
ATOM     18  C9  UNL     1      16.167   1.737  22.008  0.00  0.00    +0.004 A 
ATOM     19  C10 UNL     1      16.496   1.970  20.657  0.00  0.00    +0.011 A 
ATOM     20  C11 UNL     1      15.705   2.814  19.871  0.00  0.00    +0.016 A 
ATOM     21  C12 UNL     1      14.578   3.434  20.419  0.00  0.00    +0.018 A 
ATOM     22 BR1  UNL     1      13.499   4.582  19.341  0.00  0.00    -0.050 Br
ATOM     23  C13 UNL     1      14.245   3.212  21.757  0.00  0.00    +0.016 A 
ATOM     24  C14 UNL     1      15.032   2.370  22.549  0.00  0.00    +0.011 A 
ENDBRANCH  15  18
ENDBRANCH  10  13
ENDBRANCH   3   7
BRANCH   6  25
ATOM     25  N4  UNL     1      22.186   2.335  32.150  0.00  0.00    -0.266 N 
ATOM     26  C18 UNL     1      22.023   3.703  32.553  0.00  0.00    +0.308 C 
ATOM     27  O4  UNL     1      21.418   4.518  31.803  0.00  0.00    -0.252 OA
ATOM     28  N5  UNL     1      22.487   4.120  33.847  0.00  0.00    -0.269 N 
ATOM     29  H14 UNL     1      22.448   1.639  32.885  0.00  0.00    +0.156 HD
ATOM     30  H15 UNL     1      22.776   3.377  34.521  0.00  0.00    +0.156 HD
BRANCH  28  31
ATOM     31  C19 UNL     1      22.513   5.493  34.278  0.00  0.00    +0.040 A 
ATOM     32  C20 UNL     1      21.430   6.028  35.000  0.00  0.00    +0.062 A 
ATOM     33  C21 UNL     1      21.431   7.369  35.391  0.00  0.00    +0.125 A 
ATOM     34  F1  UNL     1      20.380   7.872  36.085  0.00  0.00    -0.205 F 
ATOM     35  C22 UNL     1      22.503   8.195  35.056  0.00  0.00    +0.039 A 
ATOM     36  C23 UNL     1      23.579   7.683  34.327  0.00  0.00    +0.008 A 
ATOM     37  C24 UNL     1      23.598   6.334  33.934  0.00  0.00    -0.029 A 
ATOM     38  C25 UNL     1      24.769   5.809  33.148  0.00  0.00    +0.045 C 
ENDBRANCH  28  31
ENDBRANCH   6  25
BRANCH   1  40
ATOM     39  C1  UNL     1      19.317   0.163  32.284  0.00  0.00    +0.277 C 
ATOM     40  O1  UNL     1      19.667   1.303  31.508  0.00  0.00    -0.493 OA
ENDBRANCH   1  40
TORSDOF 6
ENDMDL
MODEL 9
REMARK VINA RESULT:    -7.453      8.234      9.297
REMARK INTER + INTRA:         -11.068
REMARK INTER:                 -10.071
REMARK INTRA:                  -0.996
REMARK UNBOUND:                -1.000
REMARK  Name = /home/qwerty/github/datacon2025hack/step_04_hit_selection/docking/ligands/lig_728.pdb
REMARK  8 active torsions:
REMARK  status: ('A' for Active; 'I' for Inactive)
REMARK    1  A    between atoms: C1_1  and  O1_2
REMARK    2  A    between atoms: O1_2  and  C2_3
REMARK    3  A    between atoms: C4_5  and  N1_6
REMARK    4  A    between atoms: N2_9  and  C6_10
REMARK    5  A    between atoms: C8_12  and  C9_13
REMARK    6  A    between atoms: C17_24  and  N4_25
REMARK    7  A    between atoms: N5_28  and  C19_29
REMARK    8  A    between atoms: C24_35  and  C25_36
REMARK                            x       y       z     vdW  Elec       q    Type
REMARK                         _______ _______ _______ _____ _____    ______ ____
ROOT
ATOM      1  C2  UNL     1      13.754   0.770  22.659  0.00  0.00    +0.143 A 
ATOM      2  C3  UNL     1      14.982   0.395  23.240  0.00  0.00    +0.071 A 
ATOM      3  C4  UNL     1      16.197   0.721  22.622  0.00  0.00    +0.038 A 
ATOM      4  C15 UNL     1      16.181   1.401  21.394  0.00  0.00    +0.025 A 
ATOM      5  C16 UNL     1      14.969   1.774  20.811  0.00  0.00    +0.029 A 
ATOM      6  C17 UNL     1      13.750   1.456  21.430  0.00  0.00    +0.077 A 
ENDROOT
BRANCH   3   7
ATOM      7  N1  UNL     1      17.432   0.307  23.230  0.00  0.00    -0.269 N 
ATOM      8  C5  UNL     1      18.138   1.071  24.219  0.00  0.00    +0.310 C 
ATOM      9  O2  UNL     1      17.586   2.068  24.762  0.00  0.00    -0.252 OA
ATOM     10  N2  UNL     1      19.470   0.688  24.587  0.00  0.00    -0.238 N 
ATOM     11  H5  UNL     1      17.794  -0.649  23.010  0.00  0.00    +0.156 HD
ATOM     12  H6  UNL     1      19.969   0.002  23.978  0.00  0.00    +0.159 HD
BRANCH  10  13
ATOM     13  C6  UNL     1      20.191   1.215  25.711  0.00  0.00    +0.226 A 
ATOM     14  C7  UNL     1      19.813   1.185  27.039  0.00  0.00    +0.097 A 
ATOM     15  C8  UNL     1      20.874   1.797  27.687  0.00  0.00    +0.115 A 
ATOM     16  N3  UNL     1      21.805   2.155  26.777  0.00  0.00    -0.076 NA
ATOM     17  O3  UNL     1      21.365   1.788  25.609  0.00  0.00    -0.339 OA
BRANCH  15  18
ATOM     18  C9  UNL     1      21.017   2.031  29.145  0.00  0.00    +0.004 A 
ATOM     19  C10 UNL     1      20.773   1.004  30.079  0.00  0.00    +0.011 A 
ATOM     20  C11 UNL     1      20.918   1.243  31.449  0.00  0.00    +0.016 A 
ATOM     21  C12 UNL     1      21.308   2.506  31.905  0.00  0.00    +0.018 A 
ATOM     22 BR1  UNL     1      21.509   2.827  33.776  0.00  0.00    -0.050 Br
ATOM     23  C13 UNL     1      21.550   3.532  30.988  0.00  0.00    +0.016 A 
ATOM     24  C14 UNL     1      21.406   3.299  29.617  0.00  0.00    +0.011 A 
ENDBRANCH  15  18
ENDBRANCH  10  13
ENDBRANCH   3   7
BRANCH   6  25
ATOM     25  N4  UNL     1      12.500   1.866  20.846  0.00  0.00    -0.266 N 
ATOM     26  C18 UNL     1      11.846   3.107  21.151  0.00  0.00    +0.308 C 
ATOM     27  O4  UNL     1      12.458   4.007  21.790  0.00  0.00    -0.252 OA
ATOM     28  N5  UNL     1      10.517   3.347  20.661  0.00  0.00    -0.269 N 
ATOM     29  H14 UNL     1      12.075   1.261  20.108  0.00  0.00    +0.156 HD
ATOM     30  H15 UNL     1      10.134   2.679  19.955  0.00  0.00    +0.156 HD
BRANCH  28  31
ATOM     31  C19 UNL     1       9.721   4.484  21.041  0.00  0.00    +0.040 A 
ATOM     32  C20 UNL     1       9.867   5.708  20.362  0.00  0.00    +0.062 A 
ATOM     33  C21 UNL     1       9.126   6.827  20.749  0.00  0.00    +0.125 A 
ATOM     34  F1  UNL     1       9.277   8.001  20.087  0.00  0.00    -0.205 F 
ATOM     35  C22 UNL     1       8.240   6.742  21.823  0.00  0.00    +0.039 A 
ATOM     36  C23 UNL     1       8.094   5.538  22.517  0.00  0.00    +0.008 A 
ATOM     37  C24 UNL     1       8.827   4.401  22.134  0.00  0.00    -0.029 A 
ATOM     38  C25 UNL     1       8.652   3.118  22.900  0.00  0.00    +0.045 C 
ENDBRANCH  28  31
ENDBRANCH   6  25
BRANCH   1  40
ATOM     39  C1  UNL     1      12.032   1.085  24.452  0.00  0.00    +0.277 C 
ATOM     40  O1  UNL     1      12.525   0.466  23.268  0.00  0.00    -0.493 OA
ENDBRANCH   1  40
TORSDOF 6
ENDMDL
