MODEL 1
REMARK VINA RESULT:    -7.574      0.000      0.000
REMARK INTER + INTRA:          -8.715
REMARK INTER:                  -8.459
REMARK INTRA:                  -0.256
REMARK UNBOUND:                -0.256
REMARK  Name = /home/qwerty/github/datacon2025hack/step_04_hit_selection/docking/ligands/lig_768.pdb
REMARK  3 active torsions:
REMARK  status: ('A' for Active; 'I' for Inactive)
REMARK    1  A    between atoms: C1_1  and  C2_2
REMARK    2  A    between atoms: C8_10  and  N3_11
REMARK    3  A    between atoms: C13_18  and  C14_19
REMARK                            x       y       z     vdW  Elec       q    Type
REMARK                         _______ _______ _______ _____ _____    ______ ____
ROOT
ATOM      1  N3  UNL     1      19.591   4.316  33.572  0.00  0.00    -0.296 N 
ATOM      2  C9  UNL     1      20.699   4.921  34.261  0.00  0.00    +0.303 C 
ATOM      3  O1  UNL     1      21.879   4.572  33.983  0.00  0.00    -0.253 OA
ATOM      4  N4  UNL     1      20.478   5.934  35.260  0.00  0.00    -0.276 N 
ATOM      5  C10 UNL     1      19.189   6.174  35.889  0.00  0.00    +0.110 C 
ATOM      6  C11 UNL     1      19.480   7.047  37.102  0.00  0.00    +0.021 C 
ATOM      7  C12 UNL     1      20.865   7.644  36.868  0.00  0.00    +0.032 C 
ATOM      8  C13 UNL     1      21.548   6.718  35.859  0.00  0.00    +0.143 C 
ATOM      9  H10 UNL     1      18.620   4.630  33.797  0.00  0.00    +0.151 HD
ENDROOT
BRANCH   1  19
ATOM     10  C1  UNL     1      22.554  -0.939  28.428  0.00  0.00    +0.088 C 
ATOM     11  C2  UNL     1      22.050   0.218  29.224  0.00  0.00    +0.126 A 
ATOM     12  N1  UNL     1      22.241   1.486  28.776  0.00  0.00    -0.240 NA
ATOM     13  C3  UNL     1      21.813   2.554  29.497  0.00  0.00    +0.118 A 
ATOM     14  C4  UNL     1      21.166   2.362  30.722  0.00  0.00    -0.006 A 
ATOM     15  C5  UNL     1      21.017   1.042  31.192  0.00  0.00    +0.048 A 
ATOM     16  N2  UNL     1      21.451   0.006  30.425  0.00  0.00    -0.237 NA
ATOM     17  C6  UNL     1      20.296   0.736  32.480  0.00  0.00    +0.057 C 
ATOM     18  C7  UNL     1      20.224   1.949  33.415  0.00  0.00    +0.029 C 
ATOM     19  C8  UNL     1      19.747   3.190  32.648  0.00  0.00    +0.079 C 
ATOM     20  C21 UNL     1      20.761   3.556  31.553  0.00  0.00    +0.060 C 
ENDBRANCH   1  19
BRANCH   8  21
ATOM     21  C14 UNL     1      22.295   7.503  34.814  0.00  0.00    +0.129 A 
ATOM     22  N5  UNL     1      21.680   8.357  33.954  0.00  0.00    -0.231 NA
ATOM     23  C15 UNL     1      22.700   8.805  33.202  0.00  0.00    +0.091 A 
ATOM     24  C16 UNL     1      22.648   9.717  32.151  0.00  0.00    +0.050 A 
ATOM     25  C17 UNL     1      23.858  10.036  31.500  0.00  0.00    +0.043 A 
ATOM     26 CL1  UNL     1      23.855  11.177  30.168  0.00  0.00    -0.083 Cl
ATOM     27  C18 UNL     1      25.073   9.438  31.915  0.00  0.00    +0.022 A 
ATOM     28  C19 UNL     1      25.086   8.519  32.982  0.00  0.00    +0.029 A 
ATOM     29  C20 UNL     1      23.872   8.232  33.598  0.00  0.00    +0.066 A 
ATOM     30  N6  UNL     1      23.634   7.399  34.618  0.00  0.00    -0.340 N 
ATOM     31  H21 UNL     1      24.319   6.806  35.138  0.00  0.00    +0.167 HD
ENDBRANCH   8  21
TORSDOF 2
ENDMDL
MODEL 2
REMARK VINA RESULT:    -7.513      4.124      8.814
REMARK INTER + INTRA:          -8.647
REMARK INTER:                  -7.858
REMARK INTRA:                  -0.789
REMARK UNBOUND:                -0.256
REMARK  Name = /home/qwerty/github/datacon2025hack/step_04_hit_selection/docking/ligands/lig_768.pdb
REMARK  3 active torsions:
REMARK  status: ('A' for Active; 'I' for Inactive)
REMARK    1  A    between atoms: C1_1  and  C2_2
REMARK    2  A    between atoms: C8_10  and  N3_11
REMARK    3  A    between atoms: C13_18  and  C14_19
REMARK                            x       y       z     vdW  Elec       q    Type
REMARK                         _______ _______ _______ _____ _____    ______ ____
ROOT
ATOM      1  N3  UNL     1      20.723   9.037  34.175  0.00  0.00    -0.296 N 
ATOM      2  C9  UNL     1      21.611   7.957  34.512  0.00  0.00    +0.303 C 
ATOM      3  O1  UNL     1      21.282   7.124  35.400  0.00  0.00    -0.253 OA
ATOM      4  N4  UNL     1      22.873   7.808  33.834  0.00  0.00    -0.276 N 
ATOM      5  C10 UNL     1      23.496   8.863  33.053  0.00  0.00    +0.110 C 
ATOM      6  C11 UNL     1      24.935   8.418  32.832  0.00  0.00    +0.021 C 
ATOM      7  C12 UNL     1      24.959   6.917  33.113  0.00  0.00    +0.032 C 
ATOM      8  C13 UNL     1      23.733   6.642  33.986  0.00  0.00    +0.143 C 
ATOM      9  H10 UNL     1      20.999   9.708  33.423  0.00  0.00    +0.151 HD
ENDROOT
BRANCH   1  19
ATOM     10  C1  UNL     1      14.215  12.522  37.067  0.00  0.00    +0.088 C 
ATOM     11  C2  UNL     1      15.561  12.056  36.621  0.00  0.00    +0.126 A 
ATOM     12  N1  UNL     1      16.646  12.856  36.789  0.00  0.00    -0.240 NA
ATOM     13  C3  UNL     1      17.876  12.463  36.368  0.00  0.00    +0.118 A 
ATOM     14  C4  UNL     1      18.043  11.220  35.747  0.00  0.00    -0.006 A 
ATOM     15  C5  UNL     1      16.898  10.424  35.541  0.00  0.00    +0.048 A 
ATOM     16  N2  UNL     1      15.692  10.858  35.994  0.00  0.00    -0.237 NA
ATOM     17  C6  UNL     1      16.988   9.054  34.920  0.00  0.00    +0.057 C 
ATOM     18  C7  UNL     1      18.275   8.859  34.110  0.00  0.00    +0.029 C 
ATOM     19  C8  UNL     1      19.494   9.317  34.921  0.00  0.00    +0.079 C 
ATOM     20  C21 UNL     1      19.399  10.823  35.214  0.00  0.00    +0.060 C 
ENDBRANCH   1  19
BRANCH   8  21
ATOM     21  C14 UNL     1      23.025   5.386  33.556  0.00  0.00    +0.129 A 
ATOM     22  N5  UNL     1      23.057   4.922  32.279  0.00  0.00    -0.231 NA
ATOM     23  C15 UNL     1      22.287   3.821  32.345  0.00  0.00    +0.091 A 
ATOM     24  C16 UNL     1      21.970   2.941  31.314  0.00  0.00    +0.050 A 
ATOM     25  C17 UNL     1      21.134   1.847  31.621  0.00  0.00    +0.043 A 
ATOM     26 CL1  UNL     1      20.698   0.704  30.365  0.00  0.00    -0.083 Cl
ATOM     27  C18 UNL     1      20.645   1.669  32.938  0.00  0.00    +0.022 A 
ATOM     28  C19 UNL     1      20.986   2.581  33.955  0.00  0.00    +0.029 A 
ATOM     29  C20 UNL     1      21.813   3.646  33.611  0.00  0.00    +0.066 A 
ATOM     30  N6  UNL     1      22.267   4.632  34.393  0.00  0.00    -0.340 N 
ATOM     31  H21 UNL     1      22.079   4.786  35.409  0.00  0.00    +0.167 HD
ENDBRANCH   8  21
TORSDOF 2
ENDMDL
MODEL 3
REMARK VINA RESULT:    -7.419      4.033      8.938
REMARK INTER + INTRA:          -8.542
REMARK INTER:                  -7.686
REMARK INTRA:                  -0.856
REMARK UNBOUND:                -0.256
REMARK  Name = /home/qwerty/github/datacon2025hack/step_04_hit_selection/docking/ligands/lig_768.pdb
REMARK  3 active torsions:
REMARK  status: ('A' for Active; 'I' for Inactive)
REMARK    1  A    between atoms: C1_1  and  C2_2
REMARK    2  A    between atoms: C8_10  and  N3_11
REMARK    3  A    between atoms: C13_18  and  C14_19
REMARK                            x       y       z     vdW  Elec       q    Type
REMARK                         _______ _______ _______ _____ _____    ______ ____
ROOT
ATOM      1  N3  UNL     1      18.179   4.508  35.892  0.00  0.00    -0.296 N 
ATOM      2  C9  UNL     1      17.506   3.580  35.023  0.00  0.00    +0.303 C 
ATOM      3  O1  UNL     1      17.005   3.983  33.938  0.00  0.00    -0.253 OA
ATOM      4  N4  UNL     1      17.409   2.187  35.374  0.00  0.00    -0.276 N 
ATOM      5  C10 UNL     1      17.645   1.676  36.714  0.00  0.00    +0.110 C 
ATOM      6  C11 UNL     1      17.093   0.258  36.718  0.00  0.00    +0.021 C 
ATOM      7  C12 UNL     1      16.966  -0.148  35.252  0.00  0.00    +0.032 C 
ATOM      8  C13 UNL     1      16.913   1.163  34.465  0.00  0.00    +0.143 C 
ATOM      9  H10 UNL     1      18.607   4.157  36.778  0.00  0.00    +0.151 HD
ENDROOT
BRANCH   1  19
ATOM     10  C1  UNL     1      19.549  12.295  36.478  0.00  0.00    +0.088 C 
ATOM     11  C2  UNL     1      19.188  10.852  36.590  0.00  0.00    +0.126 A 
ATOM     12  N1  UNL     1      18.685  10.366  37.754  0.00  0.00    -0.240 NA
ATOM     13  C3  UNL     1      18.373   9.051  37.886  0.00  0.00    +0.118 A 
ATOM     14  C4  UNL     1      18.570   8.170  36.817  0.00  0.00    -0.006 A 
ATOM     15  C5  UNL     1      19.134   8.684  35.632  0.00  0.00    +0.048 A 
ATOM     16  N2  UNL     1      19.416  10.011  35.547  0.00  0.00    -0.237 NA
ATOM     17  C6  UNL     1      19.343   7.820  34.415  0.00  0.00    +0.057 C 
ATOM     18  C7  UNL     1      19.375   6.326  34.754  0.00  0.00    +0.029 C 
ATOM     19  C8  UNL     1      18.190   5.954  35.655  0.00  0.00    +0.079 C 
ATOM     20  C21 UNL     1      18.292   6.697  36.996  0.00  0.00    +0.060 C 
ENDBRANCH   1  19
BRANCH   8  21
ATOM     21  C14 UNL     1      17.756   1.089  33.220  0.00  0.00    +0.129 A 
ATOM     22  N5  UNL     1      19.062   0.710  33.236  0.00  0.00    -0.231 NA
ATOM     23  C15 UNL     1      19.415   0.812  31.943  0.00  0.00    +0.091 A 
ATOM     24  C16 UNL     1      20.657   0.542  31.375  0.00  0.00    +0.050 A 
ATOM     25  C17 UNL     1      20.795   0.725  29.983  0.00  0.00    +0.043 A 
ATOM     26 CL1  UNL     1      22.335   0.402  29.210  0.00  0.00    -0.083 Cl
ATOM     27  C18 UNL     1      19.696   1.170  29.208  0.00  0.00    +0.022 A 
ATOM     28  C19 UNL     1      18.455   1.435  29.818  0.00  0.00    +0.029 A 
ATOM     29  C20 UNL     1      18.360   1.241  31.193  0.00  0.00    +0.066 A 
ATOM     30  N6  UNL     1      17.300   1.426  31.987  0.00  0.00    -0.340 N 
ATOM     31  H21 UNL     1      16.345   1.755  31.720  0.00  0.00    +0.167 HD
ENDBRANCH   8  21
TORSDOF 2
ENDMDL
MODEL 4
REMARK VINA RESULT:    -7.368      9.106     11.652
REMARK INTER + INTRA:          -8.486
REMARK INTER:                  -7.659
REMARK INTRA:                  -0.827
REMARK UNBOUND:                -0.256
REMARK  Name = /home/qwerty/github/datacon2025hack/step_04_hit_selection/docking/ligands/lig_768.pdb
REMARK  3 active torsions:
REMARK  status: ('A' for Active; 'I' for Inactive)
REMARK    1  A    between atoms: C1_1  and  C2_2
REMARK    2  A    between atoms: C8_10  and  N3_11
REMARK    3  A    between atoms: C13_18  and  C14_19
REMARK                            x       y       z     vdW  Elec       q    Type
REMARK                         _______ _______ _______ _____ _____    ______ ____
ROOT
ATOM      1  N3  UNL     1      14.327  11.508  35.964  0.00  0.00    -0.296 N 
ATOM      2  C9  UNL     1      13.737  12.769  35.604  0.00  0.00    +0.303 C 
ATOM      3  O1  UNL     1      14.455  13.685  35.117  0.00  0.00    -0.253 OA
ATOM      4  N4  UNL     1      12.326  12.996  35.782  0.00  0.00    -0.276 N 
ATOM      5  C10 UNL     1      11.478  12.165  36.620  0.00  0.00    +0.110 C 
ATOM      6  C11 UNL     1      10.188  12.951  36.809  0.00  0.00    +0.021 C 
ATOM      7  C12 UNL     1      10.172  14.005  35.704  0.00  0.00    +0.032 C 
ATOM      8  C13 UNL     1      11.631  14.169  35.271  0.00  0.00    +0.143 C 
ATOM      9  H10 UNL     1      13.717  10.752  36.347  0.00  0.00    +0.151 HD
ENDROOT
BRANCH   1  19
ATOM     10  C1  UNL     1      21.483   8.129  36.450  0.00  0.00    +0.088 C 
ATOM     11  C2  UNL     1      20.117   8.712  36.598  0.00  0.00    +0.126 A 
ATOM     12  N1  UNL     1      19.435   8.559  37.763  0.00  0.00    -0.240 NA
ATOM     13  C3  UNL     1      18.182   9.059  37.911  0.00  0.00    +0.118 A 
ATOM     14  C4  UNL     1      17.569   9.744  36.856  0.00  0.00    -0.006 A 
ATOM     15  C5  UNL     1      18.274   9.854  35.641  0.00  0.00    +0.048 A 
ATOM     16  N2  UNL     1      19.532   9.347  35.549  0.00  0.00    -0.237 NA
ATOM     17  C6  UNL     1      17.711  10.610  34.464  0.00  0.00    +0.057 C 
ATOM     18  C7  UNL     1      16.188  10.769  34.543  0.00  0.00    +0.029 C 
ATOM     19  C8  UNL     1      15.772  11.269  35.933  0.00  0.00    +0.079 C 
ATOM     20  C21 UNL     1      16.147  10.230  37.002  0.00  0.00    +0.060 C 
ENDBRANCH   1  19
BRANCH   8  21
ATOM     21  C14 UNL     1      11.750  14.259  33.773  0.00  0.00    +0.129 A 
ATOM     22  N5  UNL     1      10.952  13.556  32.926  0.00  0.00    -0.231 NA
ATOM     23  C15 UNL     1      11.417  13.915  31.716  0.00  0.00    +0.091 A 
ATOM     24  C16 UNL     1      10.962  13.493  30.470  0.00  0.00    +0.050 A 
ATOM     25  C17 UNL     1      11.611  14.005  29.328  0.00  0.00    +0.043 A 
ATOM     26 CL1  UNL     1      11.084  13.511  27.731  0.00  0.00    -0.083 Cl
ATOM     27  C18 UNL     1      12.687  14.916  29.465  0.00  0.00    +0.022 A 
ATOM     28  C19 UNL     1      13.121  15.319  30.743  0.00  0.00    +0.029 A 
ATOM     29  C20 UNL     1      12.453  14.791  31.844  0.00  0.00    +0.066 A 
ATOM     30  N6  UNL     1      12.682  15.018  33.143  0.00  0.00    -0.340 N 
ATOM     31  H21 UNL     1      13.410  15.633  33.569  0.00  0.00    +0.167 HD
ENDBRANCH   8  21
TORSDOF 2
ENDMDL
MODEL 5
REMARK VINA RESULT:    -7.311     11.606     13.923
REMARK INTER + INTRA:          -8.421
REMARK INTER:                  -7.741
REMARK INTRA:                  -0.680
REMARK UNBOUND:                -0.256
REMARK  Name = /home/qwerty/github/datacon2025hack/step_04_hit_selection/docking/ligands/lig_768.pdb
REMARK  3 active torsions:
REMARK  status: ('A' for Active; 'I' for Inactive)
REMARK    1  A    between atoms: C1_1  and  C2_2
REMARK    2  A    between atoms: C8_10  and  N3_11
REMARK    3  A    between atoms: C13_18  and  C14_19
REMARK                            x       y       z     vdW  Elec       q    Type
REMARK                         _______ _______ _______ _____ _____    ______ ____
ROOT
ATOM      1  N3  UNL     1      14.461  15.179  28.951  0.00  0.00    -0.296 N 
ATOM      2  C9  UNL     1      13.681  14.046  29.370  0.00  0.00    +0.303 C 
ATOM      3  O1  UNL     1      14.224  13.115  30.025  0.00  0.00    -0.253 OA
ATOM      4  N4  UNL     1      12.277  13.968  29.061  0.00  0.00    -0.276 N 
ATOM      5  C10 UNL     1      11.629  14.791  28.054  0.00  0.00    +0.110 C 
ATOM      6  C11 UNL     1      10.272  14.146  27.804  0.00  0.00    +0.021 C 
ATOM      7  C12 UNL     1      10.013  13.235  29.002  0.00  0.00    +0.032 C 
ATOM      8  C13 UNL     1      11.389  12.952  29.609  0.00  0.00    +0.143 C 
ATOM      9  H10 UNL     1      13.994  15.953  28.428  0.00  0.00    +0.151 HD
ENDROOT
BRANCH   1  19
ATOM     10  C1  UNL     1      22.251  15.736  27.581  0.00  0.00    +0.088 C 
ATOM     11  C2  UNL     1      20.795  15.429  27.699  0.00  0.00    +0.126 A 
ATOM     12  N1  UNL     1      20.250  14.425  26.964  0.00  0.00    -0.240 NA
ATOM     13  C3  UNL     1      18.924  14.144  27.037  0.00  0.00    +0.118 A 
ATOM     14  C4  UNL     1      18.092  14.893  27.877  0.00  0.00    -0.006 A 
ATOM     15  C5  UNL     1      18.666  15.959  28.598  0.00  0.00    +0.048 A 
ATOM     16  N2  UNL     1      20.003  16.189  28.500  0.00  0.00    -0.237 NA
ATOM     17  C6  UNL     1      17.857  16.792  29.559  0.00  0.00    +0.057 C 
ATOM     18  C7  UNL     1      16.352  16.711  29.283  0.00  0.00    +0.029 C 
ATOM     19  C8  UNL     1      15.915  15.249  29.118  0.00  0.00    +0.079 C 
ATOM     20  C21 UNL     1      16.606  14.625  27.896  0.00  0.00    +0.060 C 
ENDBRANCH   1  19
BRANCH   8  21
ATOM     21  C14 UNL     1      11.349  13.021  31.112  0.00  0.00    +0.129 A 
ATOM     22  N5  UNL     1      11.618  11.951  31.907  0.00  0.00    -0.231 NA
ATOM     23  C15 UNL     1      11.443  12.450  33.143  0.00  0.00    +0.091 A 
ATOM     24  C16 UNL     1      11.589  11.785  34.358  0.00  0.00    +0.050 A 
ATOM     25  C17 UNL     1      11.347  12.518  35.538  0.00  0.00    +0.043 A 
ATOM     26 CL1  UNL     1      11.513  11.736  37.099  0.00  0.00    -0.083 Cl
ATOM     27  C18 UNL     1      10.968  13.881  35.469  0.00  0.00    +0.022 A 
ATOM     28  C19 UNL     1      10.829  14.519  34.221  0.00  0.00    +0.029 A 
ATOM     29  C20 UNL     1      11.077  13.761  33.081  0.00  0.00    +0.066 A 
ATOM     30  N6  UNL     1      11.009  14.141  31.800  0.00  0.00    -0.340 N 
ATOM     31  H21 UNL     1      10.751  15.078  31.419  0.00  0.00    +0.167 HD
ENDBRANCH   8  21
TORSDOF 2
ENDMDL
MODEL 6
REMARK VINA RESULT:    -7.294     13.431     15.988
REMARK INTER + INTRA:          -8.403
REMARK INTER:                  -7.763
REMARK INTRA:                  -0.640
REMARK UNBOUND:                -0.256
REMARK  Name = /home/qwerty/github/datacon2025hack/step_04_hit_selection/docking/ligands/lig_768.pdb
REMARK  3 active torsions:
REMARK  status: ('A' for Active; 'I' for Inactive)
REMARK    1  A    between atoms: C1_1  and  C2_2
REMARK    2  A    between atoms: C8_10  and  N3_11
REMARK    3  A    between atoms: C13_18  and  C14_19
REMARK                            x       y       z     vdW  Elec       q    Type
REMARK                         _______ _______ _______ _____ _____    ______ ____
ROOT
ATOM      1  N3  UNL     1      10.999  11.919  28.882  0.00  0.00    -0.296 N 
ATOM      2  C9  UNL     1       9.677  11.659  28.379  0.00  0.00    +0.303 C 
ATOM      3  O1  UNL     1       9.189  12.398  27.481  0.00  0.00    -0.253 OA
ATOM      4  N4  UNL     1       8.906  10.552  28.882  0.00  0.00    -0.276 N 
ATOM      5  C10 UNL     1       9.216   9.852  30.117  0.00  0.00    +0.110 C 
ATOM      6  C11 UNL     1       7.978   9.028  30.445  0.00  0.00    +0.021 C 
ATOM      7  C12 UNL     1       7.176   8.941  29.150  0.00  0.00    +0.032 C 
ATOM      8  C13 UNL     1       7.647  10.118  28.293  0.00  0.00    +0.143 C 
ATOM      9  H10 UNL     1      11.400  11.286  29.611  0.00  0.00    +0.151 HD
ENDROOT
BRANCH   1  19
ATOM     10  C1  UNL     1      16.928  16.990  27.471  0.00  0.00    +0.088 C 
ATOM     11  C2  UNL     1      15.893  16.038  27.969  0.00  0.00    +0.126 A 
ATOM     12  N1  UNL     1      15.961  15.564  29.240  0.00  0.00    -0.240 NA
ATOM     13  C3  UNL     1      15.044  14.678  29.706  0.00  0.00    +0.118 A 
ATOM     14  C4  UNL     1      14.009  14.234  28.876  0.00  0.00    -0.006 A 
ATOM     15  C5  UNL     1      13.981  14.702  27.547  0.00  0.00    +0.048 A 
ATOM     16  N2  UNL     1      14.915  15.600  27.134  0.00  0.00    -0.237 NA
ATOM     17  C6  UNL     1      12.881  14.312  26.593  0.00  0.00    +0.057 C 
ATOM     18  C7  UNL     1      12.157  13.032  27.024  0.00  0.00    +0.029 C 
ATOM     19  C8  UNL     1      11.774  13.105  28.508  0.00  0.00    +0.079 C 
ATOM     20  C21 UNL     1      13.039  13.191  29.376  0.00  0.00    +0.060 C 
ENDBRANCH   1  19
BRANCH   8  21
ATOM     21  C14 UNL     1       7.833   9.710  26.857  0.00  0.00    +0.129 A 
ATOM     22  N5  UNL     1       8.411   8.534  26.493  0.00  0.00    -0.231 NA
ATOM     23  C15 UNL     1       8.394   8.600  25.150  0.00  0.00    +0.091 A 
ATOM     24  C16 UNL     1       8.864   7.652  24.245  0.00  0.00    +0.050 A 
ATOM     25  C17 UNL     1       8.742   7.941  22.870  0.00  0.00    +0.043 A 
ATOM     26 CL1  UNL     1       9.318   6.787  21.682  0.00  0.00    -0.083 Cl
ATOM     27  C18 UNL     1       8.158   9.160  22.445  0.00  0.00    +0.022 A 
ATOM     28  C19 UNL     1       7.694  10.095  23.390  0.00  0.00    +0.029 A 
ATOM     29  C20 UNL     1       7.833   9.771  24.737  0.00  0.00    +0.066 A 
ATOM     30  N6  UNL     1       7.475  10.491  25.806  0.00  0.00    -0.340 N 
ATOM     31  H21 UNL     1       7.027  11.434  25.826  0.00  0.00    +0.167 HD
ENDBRANCH   8  21
TORSDOF 2
ENDMDL
MODEL 7
REMARK VINA RESULT:    -7.272     13.060     15.636
REMARK INTER + INTRA:          -8.378
REMARK INTER:                  -7.502
REMARK INTRA:                  -0.876
REMARK UNBOUND:                -0.256
REMARK  Name = /home/qwerty/github/datacon2025hack/step_04_hit_selection/docking/ligands/lig_768.pdb
REMARK  3 active torsions:
REMARK  status: ('A' for Active; 'I' for Inactive)
REMARK    1  A    between atoms: C1_1  and  C2_2
REMARK    2  A    between atoms: C8_10  and  N3_11
REMARK    3  A    between atoms: C13_18  and  C14_19
REMARK                            x       y       z     vdW  Elec       q    Type
REMARK                         _______ _______ _______ _____ _____    ______ ____
ROOT
ATOM      1  N3  UNL     1      16.085   6.274  20.512  0.00  0.00    -0.296 N 
ATOM      2  C9  UNL     1      15.451   5.141  19.893  0.00  0.00    +0.303 C 
ATOM      3  O1  UNL     1      16.069   4.470  19.023  0.00  0.00    -0.253 OA
ATOM      4  N4  UNL     1      14.115   4.754  20.268  0.00  0.00    -0.276 N 
ATOM      5  C10 UNL     1      13.201   5.620  20.993  0.00  0.00    +0.110 C 
ATOM      6  C11 UNL     1      11.828   4.975  20.858  0.00  0.00    +0.021 C 
ATOM      7  C12 UNL     1      12.082   3.529  20.440  0.00  0.00    +0.032 C 
ATOM      8  C13 UNL     1      13.484   3.518  19.827  0.00  0.00    +0.143 C 
ATOM      9  H10 UNL     1      15.569   6.808  21.246  0.00  0.00    +0.151 HD
ENDROOT
BRANCH   1  19
ATOM     10  C1  UNL     1      22.431  10.890  19.377  0.00  0.00    +0.088 C 
ATOM     11  C2  UNL     1      21.110  10.202  19.482  0.00  0.00    +0.126 A 
ATOM     12  N1  UNL     1      19.972  10.860  19.138  0.00  0.00    -0.240 NA
ATOM     13  C3  UNL     1      18.758  10.263  19.249  0.00  0.00    +0.118 A 
ATOM     14  C4  UNL     1      18.661   8.951  19.727  0.00  0.00    -0.006 A 
ATOM     15  C5  UNL     1      19.848   8.301  20.121  0.00  0.00    +0.048 A 
ATOM     16  N2  UNL     1      21.040   8.939  19.976  0.00  0.00    -0.237 NA
ATOM     17  C6  UNL     1      19.845   6.874  20.607  0.00  0.00    +0.057 C 
ATOM     18  C7  UNL     1      18.465   6.424  21.099  0.00  0.00    +0.029 C 
ATOM     19  C8  UNL     1      17.384   6.794  20.075  0.00  0.00    +0.079 C 
ATOM     20  C21 UNL     1      17.303   8.321  19.920  0.00  0.00    +0.060 C 
ENDBRANCH   1  19
BRANCH   8  21
ATOM     21  C14 UNL     1      14.270   2.317  20.279  0.00  0.00    +0.129 A 
ATOM     22  N5  UNL     1      14.217   1.837  21.550  0.00  0.00    -0.231 NA
ATOM     23  C15 UNL     1      15.074   0.801  21.511  0.00  0.00    +0.091 A 
ATOM     24  C16 UNL     1      15.413  -0.063  22.548  0.00  0.00    +0.050 A 
ATOM     25  C17 UNL     1      16.346  -1.084  22.272  0.00  0.00    +0.043 A 
ATOM     26 CL1  UNL     1      16.814  -2.203  23.538  0.00  0.00    -0.083 Cl
ATOM     27  C18 UNL     1      16.907  -1.209  20.977  0.00  0.00    +0.022 A 
ATOM     28  C19 UNL     1      16.540  -0.315  19.953  0.00  0.00    +0.029 A 
ATOM     29  C20 UNL     1      15.616   0.678  20.266  0.00  0.00    +0.066 A 
ATOM     30  N6  UNL     1      15.121   1.634  19.472  0.00  0.00    -0.340 N 
ATOM     31  H21 UNL     1      15.342   1.813  18.467  0.00  0.00    +0.167 HD
ENDBRANCH   8  21
TORSDOF 2
ENDMDL
MODEL 8
REMARK VINA RESULT:    -7.257      4.557      5.706
REMARK INTER + INTRA:          -8.362
REMARK INTER:                  -7.614
REMARK INTRA:                  -0.747
REMARK UNBOUND:                -0.256
REMARK  Name = /home/qwerty/github/datacon2025hack/step_04_hit_selection/docking/ligands/lig_768.pdb
REMARK  3 active torsions:
REMARK  status: ('A' for Active; 'I' for Inactive)
REMARK    1  A    between atoms: C1_1  and  C2_2
REMARK    2  A    between atoms: C8_10  and  N3_11
REMARK    3  A    between atoms: C13_18  and  C14_19
REMARK                            x       y       z     vdW  Elec       q    Type
REMARK                         _______ _______ _______ _____ _____    ______ ____
ROOT
ATOM      1  N3  UNL     1      17.133   5.468  37.061  0.00  0.00    -0.296 N 
ATOM      2  C9  UNL     1      18.148   6.373  37.527  0.00  0.00    +0.303 C 
ATOM      3  O1  UNL     1      19.262   5.924  37.916  0.00  0.00    -0.253 OA
ATOM      4  N4  UNL     1      17.913   7.793  37.543  0.00  0.00    -0.276 N 
ATOM      5  C10 UNL     1      16.592   8.391  37.440  0.00  0.00    +0.110 C 
ATOM      6  C11 UNL     1      16.764   9.845  37.858  0.00  0.00    +0.021 C 
ATOM      7  C12 UNL     1      18.258  10.138  37.754  0.00  0.00    +0.032 C 
ATOM      8  C13 UNL     1      18.951   8.776  37.821  0.00  0.00    +0.143 C 
ATOM      9  H10 UNL     1      16.223   5.854  36.723  0.00  0.00    +0.151 HD
ENDROOT
BRANCH   1  19
ATOM     10  C1  UNL     1      15.880  -2.332  36.378  0.00  0.00    +0.088 C 
ATOM     11  C2  UNL     1      15.902  -0.860  36.627  0.00  0.00    +0.126 A 
ATOM     12  N1  UNL     1      14.821  -0.249  37.178  0.00  0.00    -0.240 NA
ATOM     13  C3  UNL     1      14.810   1.092  37.391  0.00  0.00    +0.118 A 
ATOM     14  C4  UNL     1      15.919   1.870  37.042  0.00  0.00    -0.006 A 
ATOM     15  C5  UNL     1      17.014   1.224  36.431  0.00  0.00    +0.048 A 
ATOM     16  N2  UNL     1      16.980  -0.123  36.253  0.00  0.00    -0.237 NA
ATOM     17  C6  UNL     1      18.268   1.973  36.060  0.00  0.00    +0.057 C 
ATOM     18  C7  UNL     1      18.035   3.482  35.932  0.00  0.00    +0.029 C 
ATOM     19  C8  UNL     1      17.264   4.011  37.149  0.00  0.00    +0.079 C 
ATOM     20  C21 UNL     1      15.869   3.369  37.211  0.00  0.00    +0.060 C 
ENDBRANCH   1  19
BRANCH   8  21
ATOM     21  C14 UNL     1      20.070   8.681  36.819  0.00  0.00    +0.129 A 
ATOM     22  N5  UNL     1      20.067   9.365  35.644  0.00  0.00    -0.231 NA
ATOM     23  C15 UNL     1      21.216   8.968  35.069  0.00  0.00    +0.091 A 
ATOM     24  C16 UNL     1      21.731   9.360  33.836  0.00  0.00    +0.050 A 
ATOM     25  C17 UNL     1      22.963   8.805  33.433  0.00  0.00    +0.043 A 
ATOM     26 CL1  UNL     1      23.661   9.258  31.890  0.00  0.00    -0.083 Cl
ATOM     27  C18 UNL     1      23.637   7.881  34.269  0.00  0.00    +0.022 A 
ATOM     28  C19 UNL     1      23.085   7.507  35.510  0.00  0.00    +0.029 A 
ATOM     29  C20 UNL     1      21.868   8.079  35.870  0.00  0.00    +0.066 A 
ATOM     30  N6  UNL     1      21.154   7.881  36.983  0.00  0.00    -0.340 N 
ATOM     31  H21 UNL     1      21.378   7.254  37.788  0.00  0.00    +0.167 HD
ENDBRANCH   8  21
TORSDOF 2
ENDMDL
MODEL 9
REMARK VINA RESULT:    -7.174      4.227      6.520
REMARK INTER + INTRA:          -8.269
REMARK INTER:                  -7.579
REMARK INTRA:                  -0.689
REMARK UNBOUND:                -0.256
REMARK  Name = /home/qwerty/github/datacon2025hack/step_04_hit_selection/docking/ligands/lig_768.pdb
REMARK  3 active torsions:
REMARK  status: ('A' for Active; 'I' for Inactive)
REMARK    1  A    between atoms: C1_1  and  C2_2
REMARK    2  A    between atoms: C8_10  and  N3_11
REMARK    3  A    between atoms: C13_18  and  C14_19
REMARK                            x       y       z     vdW  Elec       q    Type
REMARK                         _______ _______ _______ _____ _____    ______ ____
ROOT
ATOM      1  N3  UNL     1      20.300   2.638  28.190  0.00  0.00    -0.296 N 
ATOM      2  C9  UNL     1      21.038   2.226  29.353  0.00  0.00    +0.303 C 
ATOM      3  O1  UNL     1      22.289   2.386  29.395  0.00  0.00    -0.253 OA
ATOM      4  N4  UNL     1      20.361   1.642  30.482  0.00  0.00    -0.276 N 
ATOM      5  C10 UNL     1      19.009   1.113  30.422  0.00  0.00    +0.110 C 
ATOM      6  C11 UNL     1      18.832   0.289  31.690  0.00  0.00    +0.021 C 
ATOM      7  C12 UNL     1      19.935   0.743  32.643  0.00  0.00    +0.032 C 
ATOM      8  C13 UNL     1      21.010   1.376  31.758  0.00  0.00    +0.143 C 
ATOM      9  H10 UNL     1      19.262   2.519  28.177  0.00  0.00    +0.151 HD
ENDROOT
BRANCH   1  19
ATOM     10  C1  UNL     1      21.665   5.813  21.054  0.00  0.00    +0.088 C 
ATOM     11  C2  UNL     1      21.261   5.060  22.277  0.00  0.00    +0.126 A 
ATOM     12  N1  UNL     1      20.288   4.115  22.202  0.00  0.00    -0.240 NA
ATOM     13  C3  UNL     1      19.886   3.435  23.307  0.00  0.00    +0.118 A 
ATOM     14  C4  UNL     1      20.472   3.702  24.549  0.00  0.00    -0.006 A 
ATOM     15  C5  UNL     1      21.448   4.717  24.615  0.00  0.00    +0.048 A 
ATOM     16  N2  UNL     1      21.824   5.358  23.476  0.00  0.00    -0.237 NA
ATOM     17  C6  UNL     1      22.164   5.044  25.900  0.00  0.00    +0.057 C 
ATOM     18  C7  UNL     1      21.396   4.568  27.138  0.00  0.00    +0.029 C 
ATOM     19  C8  UNL     1      20.948   3.111  26.963  0.00  0.00    +0.079 C 
ATOM     20  C21 UNL     1      19.968   2.997  25.785  0.00  0.00    +0.060 C 
ENDBRANCH   1  19
BRANCH   8  21
ATOM     21  C14 UNL     1      21.546   2.643  32.368  0.00  0.00    +0.129 A 
ATOM     22  N5  UNL     1      20.806   3.437  33.187  0.00  0.00    -0.231 NA
ATOM     23  C15 UNL     1      21.653   4.443  33.466  0.00  0.00    +0.091 A 
ATOM     24  C16 UNL     1      21.420   5.554  34.273  0.00  0.00    +0.050 A 
ATOM     25  C17 UNL     1      22.465   6.489  34.419  0.00  0.00    +0.043 A 
ATOM     26 CL1  UNL     1      22.230   7.909  35.421  0.00  0.00    -0.083 Cl
ATOM     27  C18 UNL     1      23.701   6.288  33.758  0.00  0.00    +0.022 A 
ATOM     28  C19 UNL     1      23.901   5.153  32.949  0.00  0.00    +0.029 A 
ATOM     29  C20 UNL     1      22.845   4.254  32.832  0.00  0.00    +0.066 A 
ATOM     30  N6  UNL     1      22.794   3.119  32.127  0.00  0.00    -0.340 N 
ATOM     31  H21 UNL     1      23.540   2.699  31.528  0.00  0.00    +0.167 HD
ENDBRANCH   8  21
TORSDOF 2
ENDMDL
