REMARK  Name = /home/qwerty/github/datacon2025hack/step_04_hit_selection/docking/ligands/lig_317.pdb
REMARK  4 active torsions:
REMARK  status: ('A' for Active; 'I' for Inactive)
REMARK    1  A    between atoms: C1_1  and  O1_2
REMARK    2  A    between atoms: O1_2  and  C2_3
REMARK    3  A    between atoms: N2_14  and  C11_15
REMARK    4  A    between atoms: C18_24  and  C19_25
REMARK                            x       y       z     vdW  Elec       q    Type
REMARK                         _______ _______ _______ _____ _____    ______ ____
ROOT
ATOM      1  C2  UNL     1      -4.940  -1.329  -0.132  0.00  0.00    +0.120 A 
ATOM      2  C3  UNL     1      -3.610  -1.746   0.081  0.00  0.00    +0.047 A 
ATOM      3  C4  UNL     1      -2.594  -0.807   0.319  0.00  0.00    +0.027 A 
ATOM      4  C5  UNL     1      -2.927   0.552   0.309  0.00  0.00    +0.041 A 
ATOM      5  C6  UNL     1      -4.220   0.962   0.137  0.00  0.00    -0.021 A 
ATOM      6  C7  UNL     1      -5.250   0.050  -0.095  0.00  0.00    +0.051 A 
ATOM      7  C8  UNL     1      -4.327   2.441   0.289  0.00  0.00    +0.056 C 
ATOM      8  C9  UNL     1      -2.882   2.870   0.643  0.00  0.00    +0.120 C 
ATOM      9  N1  UNL     1      -2.074   1.653   0.577  0.00  0.00    -0.255 N 
ATOM     10  C10 UNL     1      -0.645   1.636   0.697  0.00  0.00    +0.311 C 
ATOM     11  O2  UNL     1      -0.096   2.354   1.575  0.00  0.00    -0.252 OA
ATOM     12  N2  UNL     1       0.149   0.828  -0.188  0.00  0.00    -0.269 N 
ATOM     13  H11 UNL     1      -0.343   0.242  -0.898  0.00  0.00    +0.156 HD
ENDROOT
BRANCH  12  14
ATOM     14  C11 UNL     1       1.578   0.704  -0.104  0.00  0.00    +0.037 A 
ATOM     15  C12 UNL     1       2.400   1.819   0.145  0.00  0.00    +0.027 A 
ATOM     16  C13 UNL     1       3.789   1.674   0.198  0.00  0.00    +0.049 A 
ATOM     17  C14 UNL     1       4.373   0.423  -0.020  0.00  0.00    +0.143 A 
ATOM     18  C15 UNL     1       3.565  -0.690  -0.283  0.00  0.00    +0.077 A 
ATOM     19  C16 UNL     1       2.172  -0.546  -0.334  0.00  0.00    +0.050 A 
ATOM     20  N3  UNL     1       4.175  -1.972  -0.459  0.00  0.00    -0.279 N 
ATOM     21  C17 UNL     1       5.600  -2.097  -0.467  0.00  0.00    +0.258 C 
ATOM     22  O3  UNL     1       6.122  -3.240  -0.568  0.00  0.00    -0.271 OA
ATOM     23  C18 UNL     1       6.467  -0.858  -0.466  0.00  0.00    +0.256 C 
ATOM     24  C19 UNL     1       7.739  -1.062   0.356  0.00  0.00    +0.062 C 
ATOM     25  O4  UNL     1       5.763   0.280   0.045  0.00  0.00    -0.478 OA
ATOM     26  H15 UNL     1       3.583  -2.826  -0.570  0.00  0.00    +0.155 HD
ENDBRANCH  12  14
BRANCH   1  28
ATOM     27  C1  UNL     1      -7.293  -2.034  -0.593  0.00  0.00    +0.277 C 
ATOM     28  O1  UNL     1      -5.915  -2.310  -0.365  0.00  0.00    -0.495 OA
ENDBRANCH   1  28
TORSDOF 2
