MODEL 1
REMARK VINA RESULT:    -6.914      0.000      0.000
REMARK INTER + INTRA:          -8.681
REMARK INTER:                  -8.127
REMARK INTRA:                  -0.554
REMARK UNBOUND:                -0.554
REMARK  Name = /home/qwerty/github/datacon2025hack/step_04_hit_selection/docking/ligands/lig_319.pdb
REMARK  3 active torsions:
REMARK  status: ('A' for Active; 'I' for Inactive)
REMARK    1  A    between atoms: C1_2  and  C15_19
REMARK    2  A    between atoms: N1_3  and  C2_4
REMARK    3  A    between atoms: C6_8  and  C7_9
REMARK                            x       y       z     vdW  Elec       q    Type
REMARK                         _______ _______ _______ _____ _____    ______ ____
ROOT
ATOM      1  C2  UNL     1      21.328   3.599  32.251  0.00  0.00    +0.034 A 
ATOM      2  C3  UNL     1      20.047   3.878  32.761  0.00  0.00    +0.023 A 
ATOM      3  C4  UNL     1      19.773   5.119  33.339  0.00  0.00    +0.002 A 
ATOM      4  C5  UNL     1      20.771   6.093  33.417  0.00  0.00    +0.011 A 
ATOM      5  C6  UNL     1      22.055   5.830  32.918  0.00  0.00    +0.019 A 
ATOM      6  C14 UNL     1      22.319   4.592  32.313  0.00  0.00    +0.034 A 
ENDROOT
BRANCH   5   7
ATOM      7  C7  UNL     1      23.093   6.876  32.982  0.00  0.00    +0.141 A 
ATOM      8  N2  UNL     1      24.179   6.770  33.783  0.00  0.00    -0.236 NA
ATOM      9  C8  UNL     1      24.907   7.874  33.516  0.00  0.00    +0.134 A 
ATOM     10  C9  UNL     1      24.266   8.607  32.546  0.00  0.00    +0.039 A 
ATOM     11  N3  UNL     1      23.112   8.000  32.228  0.00  0.00    -0.328 N 
ATOM     12  C10 UNL     1      22.269   8.359  31.082  0.00  0.00    +0.123 C 
ATOM     13  C11 UNL     1      22.528   9.812  30.651  0.00  0.00    +0.022 C 
ATOM     14  C12 UNL     1      24.035  10.103  30.571  0.00  0.00    +0.008 C 
ATOM     15  C13 UNL     1      24.715   9.899  31.933  0.00  0.00    +0.055 C 
ENDBRANCH   5   7
BRANCH   1  18
ATOM     16  O1  UNL     1      21.646   3.132  29.413  0.00  0.00    -0.270 OA
ATOM     17  C1  UNL     1      21.972   2.221  30.223  0.00  0.00    +0.248 C 
ATOM     18  N1  UNL     1      21.622   2.345  31.611  0.00  0.00    -0.281 N 
ATOM     19  H1  UNL     1      21.460   1.468  32.157  0.00  0.00    +0.155 HD
BRANCH  17  20
ATOM     20  C15 UNL     1      22.667   1.012  29.718  0.00  0.00    +0.037 A 
ATOM     21  C16 UNL     1      24.071   0.988  29.623  0.00  0.00    +0.016 A 
ATOM     22  C17 UNL     1      24.732  -0.151  29.154  0.00  0.00    +0.039 A 
ATOM     23  C18 UNL     1      24.001  -1.280  28.779  0.00  0.00    +0.123 A 
ATOM     24  F1  UNL     1      24.643  -2.384  28.324  0.00  0.00    -0.205 F 
ATOM     25  C19 UNL     1      22.607  -1.274  28.876  0.00  0.00    +0.039 A 
ATOM     26  C20 UNL     1      21.942  -0.138  29.345  0.00  0.00    +0.016 A 
ENDBRANCH  17  20
ENDBRANCH   1  18
TORSDOF 3
ENDMDL
MODEL 2
REMARK VINA RESULT:    -6.866     13.390     16.060
REMARK INTER + INTRA:          -8.624
REMARK INTER:                  -8.028
REMARK INTRA:                  -0.596
REMARK UNBOUND:                -0.554
REMARK  Name = /home/qwerty/github/datacon2025hack/step_04_hit_selection/docking/ligands/lig_319.pdb
REMARK  3 active torsions:
REMARK  status: ('A' for Active; 'I' for Inactive)
REMARK    1  A    between atoms: C1_2  and  C15_19
REMARK    2  A    between atoms: N1_3  and  C2_4
REMARK    3  A    between atoms: C6_8  and  C7_9
REMARK                            x       y       z     vdW  Elec       q    Type
REMARK                         _______ _______ _______ _____ _____    ______ ____
ROOT
ATOM      1  C2  UNL     1      13.428   3.625  19.991  0.00  0.00    +0.034 A 
ATOM      2  C3  UNL     1      14.334   4.622  19.589  0.00  0.00    +0.023 A 
ATOM      3  C4  UNL     1      15.704   4.356  19.547  0.00  0.00    +0.002 A 
ATOM      4  C5  UNL     1      16.186   3.095  19.905  0.00  0.00    +0.011 A 
ATOM      5  C6  UNL     1      15.297   2.090  20.314  0.00  0.00    +0.019 A 
ATOM      6  C14 UNL     1      13.919   2.353  20.329  0.00  0.00    +0.034 A 
ENDROOT
BRANCH   5   7
ATOM      7  C7  UNL     1      15.815   0.754  20.665  0.00  0.00    +0.141 A 
ATOM      8  N2  UNL     1      16.206  -0.141  19.728  0.00  0.00    -0.236 NA
ATOM      9  C8  UNL     1      16.665  -1.194  20.434  0.00  0.00    +0.134 A 
ATOM     10  C9  UNL     1      16.571  -0.908  21.775  0.00  0.00    +0.039 A 
ATOM     11  N3  UNL     1      16.010   0.303  21.926  0.00  0.00    -0.328 N 
ATOM     12  C10 UNL     1      15.951   1.041  23.193  0.00  0.00    +0.123 C 
ATOM     13  C11 UNL     1      16.064   0.081  24.388  0.00  0.00    +0.022 C 
ATOM     14  C12 UNL     1      17.206  -0.927  24.181  0.00  0.00    +0.008 C 
ATOM     15  C13 UNL     1      16.976  -1.780  22.924  0.00  0.00    +0.055 C 
ENDBRANCH   5   7
BRANCH   1  18
ATOM     16  O1  UNL     1      11.760   4.078  22.312  0.00  0.00    -0.270 OA
ATOM     17  C1  UNL     1      11.280   4.283  21.164  0.00  0.00    +0.248 C 
ATOM     18  N1  UNL     1      12.009   3.860  20.001  0.00  0.00    -0.281 N 
ATOM     19  H1  UNL     1      11.465   3.598  19.148  0.00  0.00    +0.155 HD
BRANCH  17  20
ATOM     20  C15 UNL     1       9.942   4.912  21.036  0.00  0.00    +0.037 A 
ATOM     21  C16 UNL     1       8.781   4.182  21.356  0.00  0.00    +0.016 A 
ATOM     22  C17 UNL     1       7.519   4.771  21.243  0.00  0.00    +0.039 A 
ATOM     23  C18 UNL     1       7.399   6.095  20.816  0.00  0.00    +0.123 A 
ATOM     24  F1  UNL     1       6.174   6.665  20.707  0.00  0.00    -0.205 F 
ATOM     25  C19 UNL     1       8.543   6.834  20.504  0.00  0.00    +0.039 A 
ATOM     26  C20 UNL     1       9.808   6.250  20.615  0.00  0.00    +0.016 A 
ENDBRANCH  17  20
ENDBRANCH   1  18
TORSDOF 3
ENDMDL
MODEL 3
REMARK VINA RESULT:    -6.746      2.755      4.035
REMARK INTER + INTRA:          -8.483
REMARK INTER:                  -7.872
REMARK INTRA:                  -0.611
REMARK UNBOUND:                -0.554
REMARK  Name = /home/qwerty/github/datacon2025hack/step_04_hit_selection/docking/ligands/lig_319.pdb
REMARK  3 active torsions:
REMARK  status: ('A' for Active; 'I' for Inactive)
REMARK    1  A    between atoms: C1_2  and  C15_19
REMARK    2  A    between atoms: N1_3  and  C2_4
REMARK    3  A    between atoms: C6_8  and  C7_9
REMARK                            x       y       z     vdW  Elec       q    Type
REMARK                         _______ _______ _______ _____ _____    ______ ____
ROOT
ATOM      1  C2  UNL     1      23.298   4.864  33.143  0.00  0.00    +0.034 A 
ATOM      2  C3  UNL     1      24.345   5.665  32.655  0.00  0.00    +0.023 A 
ATOM      3  C4  UNL     1      24.599   6.917  33.220  0.00  0.00    +0.002 A 
ATOM      4  C5  UNL     1      23.812   7.383  34.276  0.00  0.00    +0.011 A 
ATOM      5  C6  UNL     1      22.760   6.599  34.772  0.00  0.00    +0.019 A 
ATOM      6  C14 UNL     1      22.526   5.331  34.220  0.00  0.00    +0.034 A 
ENDROOT
BRANCH   5   7
ATOM      7  C7  UNL     1      21.953   7.091  35.905  0.00  0.00    +0.141 A 
ATOM      8  N2  UNL     1      22.297   6.860  37.193  0.00  0.00    -0.236 NA
ATOM      9  C8  UNL     1      21.362   7.510  37.916  0.00  0.00    +0.134 A 
ATOM     10  C9  UNL     1      20.492   8.140  37.057  0.00  0.00    +0.039 A 
ATOM     11  N3  UNL     1      20.842   7.856  35.793  0.00  0.00    -0.328 N 
ATOM     12  C10 UNL     1      20.293   8.523  34.606  0.00  0.00    +0.123 C 
ATOM     13  C11 UNL     1      18.916   9.135  34.915  0.00  0.00    +0.022 C 
ATOM     14  C12 UNL     1      18.941   9.908  36.243  0.00  0.00    +0.008 C 
ATOM     15  C13 UNL     1      19.310   8.987  37.417  0.00  0.00    +0.055 C 
ENDBRANCH   5   7
BRANCH   1  18
ATOM     16  O1  UNL     1      21.258   4.138  31.224  0.00  0.00    -0.270 OA
ATOM     17  C1  UNL     1      22.157   3.300  31.507  0.00  0.00    +0.248 C 
ATOM     18  N1  UNL     1      23.045   3.553  32.608  0.00  0.00    -0.281 N 
ATOM     19  H1  UNL     1      23.438   2.732  33.121  0.00  0.00    +0.155 HD
BRANCH  17  20
ATOM     20  C15 UNL     1      22.249   2.040  30.730  0.00  0.00    +0.037 A 
ATOM     21  C16 UNL     1      21.160   1.147  30.694  0.00  0.00    +0.016 A 
ATOM     22  C17 UNL     1      21.239  -0.039  29.958  0.00  0.00    +0.039 A 
ATOM     23  C18 UNL     1      22.400  -0.346  29.247  0.00  0.00    +0.123 A 
ATOM     24  F1  UNL     1      22.475  -1.497  28.533  0.00  0.00    -0.205 F 
ATOM     25  C19 UNL     1      23.485   0.535  29.266  0.00  0.00    +0.039 A 
ATOM     26  C20 UNL     1      23.411   1.722  30.000  0.00  0.00    +0.016 A 
ENDBRANCH  17  20
ENDBRANCH   1  18
TORSDOF 3
ENDMDL
MODEL 4
REMARK VINA RESULT:    -6.716     11.168     14.513
REMARK INTER + INTRA:          -8.448
REMARK INTER:                  -7.868
REMARK INTRA:                  -0.580
REMARK UNBOUND:                -0.554
REMARK  Name = /home/qwerty/github/datacon2025hack/step_04_hit_selection/docking/ligands/lig_319.pdb
REMARK  3 active torsions:
REMARK  status: ('A' for Active; 'I' for Inactive)
REMARK    1  A    between atoms: C1_2  and  C15_19
REMARK    2  A    between atoms: N1_3  and  C2_4
REMARK    3  A    between atoms: C6_8  and  C7_9
REMARK                            x       y       z     vdW  Elec       q    Type
REMARK                         _______ _______ _______ _____ _____    ______ ____
ROOT
ATOM      1  C2  UNL     1      24.187  14.963  23.861  0.00  0.00    +0.034 A 
ATOM      2  C3  UNL     1      24.870  15.994  23.192  0.00  0.00    +0.023 A 
ATOM      3  C4  UNL     1      24.998  15.969  21.801  0.00  0.00    +0.002 A 
ATOM      4  C5  UNL     1      24.448  14.918  21.064  0.00  0.00    +0.011 A 
ATOM      5  C6  UNL     1      23.768  13.879  21.716  0.00  0.00    +0.019 A 
ATOM      6  C14 UNL     1      23.618  13.921  23.110  0.00  0.00    +0.034 A 
ENDROOT
BRANCH   5   7
ATOM      7  C7  UNL     1      23.169  12.787  20.924  0.00  0.00    +0.141 A 
ATOM      8  N2  UNL     1      23.699  11.543  20.889  0.00  0.00    -0.236 NA
ATOM      9  C8  UNL     1      22.846  10.832  20.123  0.00  0.00    +0.134 A 
ATOM     10  C9  UNL     1      21.810  11.647  19.735  0.00  0.00    +0.039 A 
ATOM     11  N3  UNL     1      22.022  12.884  20.211  0.00  0.00    -0.328 N 
ATOM     12  C10 UNL     1      21.030  13.965  20.195  0.00  0.00    +0.123 C 
ATOM     13  C11 UNL     1      19.980  13.723  19.098  0.00  0.00    +0.022 C 
ATOM     14  C12 UNL     1      19.479  12.270  19.125  0.00  0.00    +0.008 C 
ATOM     15  C13 UNL     1      20.629  11.279  18.889  0.00  0.00    +0.055 C 
ENDBRANCH   5   7
BRANCH   1  18
ATOM     16  O1  UNL     1      22.444  16.723  25.356  0.00  0.00    -0.270 OA
ATOM     17  C1  UNL     1      22.974  15.742  25.946  0.00  0.00    +0.248 C 
ATOM     18  N1  UNL     1      24.005  14.988  25.288  0.00  0.00    -0.281 N 
ATOM     19  H1  UNL     1      24.731  14.526  25.881  0.00  0.00    +0.155 HD
BRANCH  17  20
ATOM     20  C15 UNL     1      22.558  15.414  27.332  0.00  0.00    +0.037 A 
ATOM     21  C16 UNL     1      21.813  16.339  28.087  0.00  0.00    +0.016 A 
ATOM     22  C17 UNL     1      21.414  16.033  29.391  0.00  0.00    +0.039 A 
ATOM     23  C18 UNL     1      21.748  14.800  29.955  0.00  0.00    +0.123 A 
ATOM     24  F1  UNL     1      21.359  14.505  31.220  0.00  0.00    -0.205 F 
ATOM     25  C19 UNL     1      22.479  13.869  29.214  0.00  0.00    +0.039 A 
ATOM     26  C20 UNL     1      22.881  14.170  27.909  0.00  0.00    +0.016 A 
ENDBRANCH  17  20
ENDBRANCH   1  18
TORSDOF 3
ENDMDL
MODEL 5
REMARK VINA RESULT:    -6.651      8.028     11.306
REMARK INTER + INTRA:          -8.371
REMARK INTER:                  -7.770
REMARK INTRA:                  -0.600
REMARK UNBOUND:                -0.554
REMARK  Name = /home/qwerty/github/datacon2025hack/step_04_hit_selection/docking/ligands/lig_319.pdb
REMARK  3 active torsions:
REMARK  status: ('A' for Active; 'I' for Inactive)
REMARK    1  A    between atoms: C1_2  and  C15_19
REMARK    2  A    between atoms: N1_3  and  C2_4
REMARK    3  A    between atoms: C6_8  and  C7_9
REMARK                            x       y       z     vdW  Elec       q    Type
REMARK                         _______ _______ _______ _____ _____    ______ ____
ROOT
ATOM      1  C2  UNL     1      18.443  -0.731  24.667  0.00  0.00    +0.034 A 
ATOM      2  C3  UNL     1      17.855  -1.918  25.138  0.00  0.00    +0.023 A 
ATOM      3  C4  UNL     1      16.681  -2.402  24.556  0.00  0.00    +0.002 A 
ATOM      4  C5  UNL     1      16.082  -1.708  23.503  0.00  0.00    +0.011 A 
ATOM      5  C6  UNL     1      16.652  -0.520  23.025  0.00  0.00    +0.019 A 
ATOM      6  C14 UNL     1      17.847  -0.052  23.593  0.00  0.00    +0.034 A 
ENDROOT
BRANCH   5   7
ATOM      7  C7  UNL     1      16.025   0.190  21.894  0.00  0.00    +0.141 A 
ATOM      8  N2  UNL     1      16.281  -0.132  20.604  0.00  0.00    -0.236 NA
ATOM      9  C8  UNL     1      15.485   0.686  19.885  0.00  0.00    +0.134 A 
ATOM     10  C9  UNL     1      14.748   1.462  20.747  0.00  0.00    +0.039 A 
ATOM     11  N3  UNL     1      15.104   1.175  22.009  0.00  0.00    -0.328 N 
ATOM     12  C10 UNL     1      14.384   1.633  23.203  0.00  0.00    +0.123 C 
ATOM     13  C11 UNL     1      13.567   2.899  22.893  0.00  0.00    +0.022 C 
ATOM     14  C12 UNL     1      12.783   2.742  21.580  0.00  0.00    +0.008 C 
ATOM     15  C13 UNL     1      13.727   2.500  20.393  0.00  0.00    +0.055 C 
ENDBRANCH   5   7
BRANCH   1  18
ATOM     16  O1  UNL     1      18.757   1.491  26.495  0.00  0.00    -0.270 OA
ATOM     17  C1  UNL     1      19.742   0.733  26.278  0.00  0.00    +0.248 C 
ATOM     18  N1  UNL     1      19.676  -0.236  25.220  0.00  0.00    -0.281 N 
ATOM     19  H1  UNL     1      20.567  -0.509  24.747  0.00  0.00    +0.155 HD
BRANCH  17  20
ATOM     20  C15 UNL     1      20.975   0.891  27.089  0.00  0.00    +0.037 A 
ATOM     21  C16 UNL     1      21.715   2.088  27.028  0.00  0.00    +0.016 A 
ATOM     22  C17 UNL     1      22.874   2.244  27.795  0.00  0.00    +0.039 A 
ATOM     23  C18 UNL     1      23.305   1.214  28.633  0.00  0.00    +0.123 A 
ATOM     24  F1  UNL     1      24.429   1.368  29.375  0.00  0.00    -0.205 F 
ATOM     25  C19 UNL     1      22.574   0.025  28.710  0.00  0.00    +0.039 A 
ATOM     26  C20 UNL     1      21.415  -0.137  27.946  0.00  0.00    +0.016 A 
ENDBRANCH  17  20
ENDBRANCH   1  18
TORSDOF 3
ENDMDL
MODEL 6
REMARK VINA RESULT:    -6.468      7.756     11.113
REMARK INTER + INTRA:          -8.157
REMARK INTER:                  -7.533
REMARK INTRA:                  -0.624
REMARK UNBOUND:                -0.554
REMARK  Name = /home/qwerty/github/datacon2025hack/step_04_hit_selection/docking/ligands/lig_319.pdb
REMARK  3 active torsions:
REMARK  status: ('A' for Active; 'I' for Inactive)
REMARK    1  A    between atoms: C1_2  and  C15_19
REMARK    2  A    between atoms: N1_3  and  C2_4
REMARK    3  A    between atoms: C6_8  and  C7_9
REMARK                            x       y       z     vdW  Elec       q    Type
REMARK                         _______ _______ _______ _____ _____    ______ ____
ROOT
ATOM      1  C2  UNL     1      18.022   9.080  37.402  0.00  0.00    +0.034 A 
ATOM      2  C3  UNL     1      17.140   8.042  37.748  0.00  0.00    +0.023 A 
ATOM      3  C4  UNL     1      17.604   6.730  37.861  0.00  0.00    +0.002 A 
ATOM      4  C5  UNL     1      18.951   6.439  37.630  0.00  0.00    +0.011 A 
ATOM      5  C6  UNL     1      19.843   7.462  37.279  0.00  0.00    +0.019 A 
ATOM      6  C14 UNL     1      19.379   8.783  37.193  0.00  0.00    +0.034 A 
ENDROOT
BRANCH   5   7
ATOM      7  C7  UNL     1      21.269   7.147  37.063  0.00  0.00    +0.141 A 
ATOM      8  N2  UNL     1      22.128   6.940  38.088  0.00  0.00    -0.236 NA
ATOM      9  C8  UNL     1      23.296   6.624  37.493  0.00  0.00    +0.134 A 
ATOM     10  C9  UNL     1      23.116   6.619  36.130  0.00  0.00    +0.039 A 
ATOM     11  N3  UNL     1      21.852   6.975  35.854  0.00  0.00    -0.328 N 
ATOM     12  C10 UNL     1      21.226   6.867  34.532  0.00  0.00    +0.123 C 
ATOM     13  C11 UNL     1      22.292   6.860  33.424  0.00  0.00    +0.022 C 
ATOM     14  C12 UNL     1      23.441   5.899  33.771  0.00  0.00    +0.008 C 
ATOM     15  C13 UNL     1      24.136   6.311  35.077  0.00  0.00    +0.055 C 
ENDBRANCH   5   7
BRANCH   1  18
ATOM     16  O1  UNL     1      17.338  10.545  35.002  0.00  0.00    -0.270 OA
ATOM     17  C1  UNL     1      17.057  11.046  36.125  0.00  0.00    +0.248 C 
ATOM     18  N1  UNL     1      17.577  10.446  37.323  0.00  0.00    -0.281 N 
ATOM     19  H1  UNL     1      17.751  11.065  38.147  0.00  0.00    +0.155 HD
BRANCH  17  20
ATOM     20  C15 UNL     1      16.235  12.280  36.188  0.00  0.00    +0.037 A 
ATOM     21  C16 UNL     1      16.695  13.470  35.592  0.00  0.00    +0.016 A 
ATOM     22  C17 UNL     1      15.921  14.633  35.643  0.00  0.00    +0.039 A 
ATOM     23  C18 UNL     1      14.680  14.623  36.282  0.00  0.00    +0.123 A 
ATOM     24  F1  UNL     1      13.932  15.752  36.330  0.00  0.00    -0.205 F 
ATOM     25  C19 UNL     1      14.207  13.446  36.869  0.00  0.00    +0.039 A 
ATOM     26  C20 UNL     1      14.976  12.280  36.821  0.00  0.00    +0.016 A 
ENDBRANCH  17  20
ENDBRANCH   1  18
TORSDOF 3
ENDMDL
MODEL 7
REMARK VINA RESULT:    -6.418     12.419     13.740
REMARK INTER + INTRA:          -8.097
REMARK INTER:                  -7.571
REMARK INTRA:                  -0.526
REMARK UNBOUND:                -0.554
REMARK  Name = /home/qwerty/github/datacon2025hack/step_04_hit_selection/docking/ligands/lig_319.pdb
REMARK  3 active torsions:
REMARK  status: ('A' for Active; 'I' for Inactive)
REMARK    1  A    between atoms: C1_2  and  C15_19
REMARK    2  A    between atoms: N1_3  and  C2_4
REMARK    3  A    between atoms: C6_8  and  C7_9
REMARK                            x       y       z     vdW  Elec       q    Type
REMARK                         _______ _______ _______ _____ _____    ______ ____
ROOT
ATOM      1  C2  UNL     1      20.031  12.666  20.030  0.00  0.00    +0.034 A 
ATOM      2  C3  UNL     1      20.270  13.237  18.767  0.00  0.00    +0.023 A 
ATOM      3  C4  UNL     1      20.736  14.550  18.663  0.00  0.00    +0.002 A 
ATOM      4  C5  UNL     1      20.968  15.305  19.815  0.00  0.00    +0.011 A 
ATOM      5  C6  UNL     1      20.731  14.753  21.081  0.00  0.00    +0.019 A 
ATOM      6  C14 UNL     1      20.288  13.426  21.183  0.00  0.00    +0.034 A 
ENDROOT
BRANCH   5   7
ATOM      7  C7  UNL     1      21.004  15.553  22.291  0.00  0.00    +0.141 A 
ATOM      8  N2  UNL     1      20.112  16.440  22.790  0.00  0.00    -0.236 NA
ATOM      9  C8  UNL     1      20.694  16.912  23.911  0.00  0.00    +0.134 A 
ATOM     10  C9  UNL     1      21.906  16.286  24.083  0.00  0.00    +0.039 A 
ATOM     11  N3  UNL     1      22.119  15.453  23.052  0.00  0.00    -0.328 N 
ATOM     12  C10 UNL     1      23.191  14.452  22.998  0.00  0.00    +0.123 C 
ATOM     13  C11 UNL     1      24.345  14.840  23.936  0.00  0.00    +0.022 C 
ATOM     14  C12 UNL     1      23.815  15.270  25.314  0.00  0.00    +0.008 C 
ATOM     15  C13 UNL     1      22.886  16.488  25.198  0.00  0.00    +0.055 C 
ENDBRANCH   5   7
BRANCH   1  18
ATOM     16  O1  UNL     1      17.389  11.629  19.466  0.00  0.00    -0.270 OA
ATOM     17  C1  UNL     1      18.333  10.818  19.672  0.00  0.00    +0.248 C 
ATOM     18  N1  UNL     1      19.593  11.303  20.164  0.00  0.00    -0.281 N 
ATOM     19  H1  UNL     1      20.171  10.660  20.753  0.00  0.00    +0.155 HD
BRANCH  17  20
ATOM     20  C15 UNL     1      18.110   9.368  19.451  0.00  0.00    +0.037 A 
ATOM     21  C16 UNL     1      18.976   8.636  18.616  0.00  0.00    +0.016 A 
ATOM     22  C17 UNL     1      18.774   7.268  18.409  0.00  0.00    +0.039 A 
ATOM     23  C18 UNL     1      17.711   6.614  19.034  0.00  0.00    +0.123 A 
ATOM     24  F1  UNL     1      17.516   5.288  18.832  0.00  0.00    -0.205 F 
ATOM     25  C19 UNL     1      16.849   7.327  19.872  0.00  0.00    +0.039 A 
ATOM     26  C20 UNL     1      17.046   8.694  20.083  0.00  0.00    +0.016 A 
ENDBRANCH  17  20
ENDBRANCH   1  18
TORSDOF 3
ENDMDL
MODEL 8
REMARK VINA RESULT:    -6.383      3.946      4.888
REMARK INTER + INTRA:          -8.057
REMARK INTER:                  -7.417
REMARK INTRA:                  -0.639
REMARK UNBOUND:                -0.554
REMARK  Name = /home/qwerty/github/datacon2025hack/step_04_hit_selection/docking/ligands/lig_319.pdb
REMARK  3 active torsions:
REMARK  status: ('A' for Active; 'I' for Inactive)
REMARK    1  A    between atoms: C1_2  and  C15_19
REMARK    2  A    between atoms: N1_3  and  C2_4
REMARK    3  A    between atoms: C6_8  and  C7_9
REMARK                            x       y       z     vdW  Elec       q    Type
REMARK                         _______ _______ _______ _____ _____    ______ ____
ROOT
ATOM      1  C2  UNL     1      21.733   5.790  34.431  0.00  0.00    +0.034 A 
ATOM      2  C3  UNL     1      22.978   5.652  35.069  0.00  0.00    +0.023 A 
ATOM      3  C4  UNL     1      23.308   6.465  36.156  0.00  0.00    +0.002 A 
ATOM      4  C5  UNL     1      22.402   7.422  36.617  0.00  0.00    +0.011 A 
ATOM      5  C6  UNL     1      21.158   7.576  35.989  0.00  0.00    +0.019 A 
ATOM      6  C14 UNL     1      20.819   6.740  34.915  0.00  0.00    +0.034 A 
ENDROOT
BRANCH   5   7
ATOM      7  C7  UNL     1      20.198   8.573  36.502  0.00  0.00    +0.141 A 
ATOM      8  N2  UNL     1      19.415   8.337  37.580  0.00  0.00    -0.236 NA
ATOM      9  C8  UNL     1      18.737   9.488  37.766  0.00  0.00    +0.134 A 
ATOM     10  C9  UNL     1      19.140  10.401  36.820  0.00  0.00    +0.039 A 
ATOM     11  N3  UNL     1      20.036   9.822  36.006  0.00  0.00    -0.328 N 
ATOM     12  C10 UNL     1      20.853  10.540  35.021  0.00  0.00    +0.123 C 
ATOM     13  C11 UNL     1      20.186  11.869  34.626  0.00  0.00    +0.022 C 
ATOM     14  C12 UNL     1      19.699  12.631  35.869  0.00  0.00    +0.008 C 
ATOM     15  C13 UNL     1      18.664  11.812  36.655  0.00  0.00    +0.055 C 
ENDBRANCH   5   7
BRANCH   1  18
ATOM     16  O1  UNL     1      22.313   6.199  31.626  0.00  0.00    -0.270 OA
ATOM     17  C1  UNL     1      21.848   5.087  31.998  0.00  0.00    +0.248 C 
ATOM     18  N1  UNL     1      21.352   4.935  33.338  0.00  0.00    -0.281 N 
ATOM     19  H1  UNL     1      20.587   4.242  33.504  0.00  0.00    +0.155 HD
BRANCH  17  20
ATOM     20  C15 UNL     1      21.775   3.966  31.029  0.00  0.00    +0.037 A 
ATOM     21  C16 UNL     1      21.354   4.199  29.706  0.00  0.00    +0.016 A 
ATOM     22  C17 UNL     1      21.288   3.148  28.786  0.00  0.00    +0.039 A 
ATOM     23  C18 UNL     1      21.646   1.855  29.173  0.00  0.00    +0.123 A 
ATOM     24  F1  UNL     1      21.582   0.837  28.280  0.00  0.00    -0.205 F 
ATOM     25  C19 UNL     1      22.075   1.611  30.480  0.00  0.00    +0.039 A 
ATOM     26  C20 UNL     1      22.142   2.658  31.404  0.00  0.00    +0.016 A 
ENDBRANCH  17  20
ENDBRANCH   1  18
TORSDOF 3
ENDMDL
MODEL 9
REMARK VINA RESULT:    -6.315     13.889     15.312
REMARK INTER + INTRA:          -7.976
REMARK INTER:                  -7.383
REMARK INTRA:                  -0.594
REMARK UNBOUND:                -0.554
REMARK  Name = /home/qwerty/github/datacon2025hack/step_04_hit_selection/docking/ligands/lig_319.pdb
REMARK  3 active torsions:
REMARK  status: ('A' for Active; 'I' for Inactive)
REMARK    1  A    between atoms: C1_2  and  C15_19
REMARK    2  A    between atoms: N1_3  and  C2_4
REMARK    3  A    between atoms: C6_8  and  C7_9
REMARK                            x       y       z     vdW  Elec       q    Type
REMARK                         _______ _______ _______ _____ _____    ______ ____
ROOT
ATOM      1  C2  UNL     1      10.909   2.051  22.140  0.00  0.00    +0.034 A 
ATOM      2  C3  UNL     1      10.362   1.406  23.264  0.00  0.00    +0.023 A 
ATOM      3  C4  UNL     1       9.245   1.940  23.910  0.00  0.00    +0.002 A 
ATOM      4  C5  UNL     1       8.661   3.120  23.443  0.00  0.00    +0.011 A 
ATOM      5  C6  UNL     1       9.196   3.778  22.326  0.00  0.00    +0.019 A 
ATOM      6  C14 UNL     1      10.302   3.225  21.664  0.00  0.00    +0.034 A 
ENDROOT
BRANCH   5   7
ATOM      7  C7  UNL     1       8.555   5.010  21.827  0.00  0.00    +0.141 A 
ATOM      8  N2  UNL     1       7.556   4.987  20.914  0.00  0.00    -0.236 NA
ATOM      9  C8  UNL     1       7.203   6.280  20.765  0.00  0.00    +0.134 A 
ATOM     10  C9  UNL     1       7.970   7.052  21.605  0.00  0.00    +0.039 A 
ATOM     11  N3  UNL     1       8.841   6.263  22.253  0.00  0.00    -0.328 N 
ATOM     12  C10 UNL     1       9.666   6.688  23.389  0.00  0.00    +0.123 C 
ATOM     13  C11 UNL     1       9.855   8.214  23.383  0.00  0.00    +0.022 C 
ATOM     14  C12 UNL     1       8.519   8.934  23.138  0.00  0.00    +0.008 C 
ATOM     15  C13 UNL     1       7.913   8.539  21.783  0.00  0.00    +0.055 C 
ENDBRANCH   5   7
BRANCH   1  18
ATOM     16  O1  UNL     1      13.671   2.891  22.340  0.00  0.00    -0.270 OA
ATOM     17  C1  UNL     1      13.400   1.821  21.731  0.00  0.00    +0.248 C 
ATOM     18  N1  UNL     1      12.032   1.498  21.432  0.00  0.00    -0.281 N 
ATOM     19  H1  UNL     1      11.837   0.923  20.581  0.00  0.00    +0.155 HD
BRANCH  17  20
ATOM     20  C15 UNL     1      14.505   0.936  21.286  0.00  0.00    +0.037 A 
ATOM     21  C16 UNL     1      15.029  -0.037  22.159  0.00  0.00    +0.016 A 
ATOM     22  C17 UNL     1      16.066  -0.878  21.743  0.00  0.00    +0.039 A 
ATOM     23  C18 UNL     1      16.588  -0.762  20.454  0.00  0.00    +0.123 A 
ATOM     24  F1  UNL     1      17.594  -1.578  20.053  0.00  0.00    -0.205 F 
ATOM     25  C19 UNL     1      16.071   0.193  19.574  0.00  0.00    +0.039 A 
ATOM     26  C20 UNL     1      15.034   1.036  19.984  0.00  0.00    +0.016 A 
ENDBRANCH  17  20
ENDBRANCH   1  18
TORSDOF 3
ENDMDL
