REMARK  Name = /home/qwerty/github/datacon2025hack/step_04_hit_selection/docking/ligands/lig_801.pdb
REMARK  6 active torsions:
REMARK  status: ('A' for Active; 'I' for Inactive)
REMARK    1  A    between atoms: C1_1  and  C2_2
REMARK    2  A    between atoms: C5_5  and  N1_6
REMARK    3  A    between atoms: C8_9  and  N2_10
REMARK    4  A    between atoms: C12_14  and  C13_15
REMARK    5  A    between atoms: C13_15  and  N3_16
REMARK    6  A    between atoms: N4_19  and  C15_20
REMARK                            x       y       z     vdW  Elec       q    Type
REMARK                         _______ _______ _______ _____ _____    ______ ____
ROOT
ATOM      1  N2  UNL     1      -0.770  -0.319  -0.352  0.00  0.00    -0.291 NA
ATOM      2  C9  UNL     1      -1.339  -0.660   0.976  0.00  0.00    +0.085 C 
ATOM      3  C10 UNL     1      -0.331  -1.459   1.803  0.00  0.00    +0.016 C 
ATOM      4  C11 UNL     1       0.948  -0.651   2.082  0.00  0.00    +0.007 C 
ATOM      5  C12 UNL     1       1.159   0.503   1.075  0.00  0.00    +0.020 C 
ATOM      6  C21 UNL     1       0.646   0.138  -0.338  0.00  0.00    +0.090 C 
ENDROOT
BRANCH   1  10
ATOM      7  N1  UNL     1      -4.021   0.688  -0.813  0.00  0.00    -0.270 N 
ATOM      8  C6  UNL     1      -3.462   1.916  -0.266  0.00  0.00    +0.116 C 
ATOM      9  C7  UNL     1      -1.963   1.911  -0.623  0.00  0.00    +0.048 C 
ATOM     10  C8  UNL     1      -1.642   0.519  -1.215  0.00  0.00    +0.145 C 
ATOM     11  C22 UNL     1      -2.983  -0.086  -1.390  0.00  0.00    +0.237 C 
ATOM     12  O2  UNL     1      -3.186  -1.157  -2.023  0.00  0.00    -0.274 OA
BRANCH   7  17
ATOM     13  C1  UNL     1      -9.445  -1.013   0.112  0.00  0.00    +0.044 C 
ATOM     14  C2  UNL     1      -8.036  -0.578  -0.163  0.00  0.00    -0.050 A 
ATOM     15  C3  UNL     1      -7.749   0.771  -0.414  0.00  0.00    +0.005 A 
ATOM     16  C4  UNL     1      -6.431   1.184  -0.633  0.00  0.00    +0.024 A 
ATOM     17  C5  UNL     1      -5.378   0.254  -0.600  0.00  0.00    +0.036 A 
ATOM     18  C23 UNL     1      -5.667  -1.092  -0.317  0.00  0.00    +0.024 A 
ATOM     19  C24 UNL     1      -6.985  -1.504  -0.097  0.00  0.00    +0.005 A 
ENDBRANCH   7  17
ENDBRANCH   1  10
BRANCH   5  20
ATOM     20  C13 UNL     1       2.618   1.009   1.061  0.00  0.00    +0.110 C 
BRANCH  20  21
ATOM     21  N3  UNL     1       3.571   0.003   0.584  0.00  0.00    -0.299 N 
ATOM     22  C14 UNL     1       4.971   0.293   0.482  0.00  0.00    +0.304 C 
ATOM     23  O1  UNL     1       5.404   1.431   0.813  0.00  0.00    -0.253 OA
ATOM     24  N4  UNL     1       5.877  -0.730   0.042  0.00  0.00    -0.269 N 
ATOM     25  H20 UNL     1       3.250  -0.952   0.310  0.00  0.00    +0.150 HD
ATOM     26  H21 UNL     1       5.533  -1.717   0.048  0.00  0.00    +0.156 HD
BRANCH  24  27
ATOM     27  C15 UNL     1       7.257  -0.499  -0.289  0.00  0.00    +0.035 A 
ATOM     28  C16 UNL     1       7.673   0.692  -0.914  0.00  0.00    +0.026 A 
ATOM     29  C17 UNL     1       9.019   0.881  -1.247  0.00  0.00    +0.040 A 
ATOM     30  C18 UNL     1       9.956  -0.119  -0.973  0.00  0.00    +0.124 A 
ATOM     31  F1  UNL     1      11.259   0.066  -1.299  0.00  0.00    -0.205 F 
ATOM     32  C19 UNL     1       9.547  -1.313  -0.374  0.00  0.00    +0.040 A 
ATOM     33  C20 UNL     1       8.203  -1.506  -0.041  0.00  0.00    +0.026 A 
ENDBRANCH  24  27
ENDBRANCH  20  21
ENDBRANCH   5  20
TORSDOF 5
