REMARK  Name = /home/qwerty/github/datacon2025hack/step_04_hit_selection/docking/ligands/lig_513.pdb
REMARK  8 active torsions:
REMARK  status: ('A' for Active; 'I' for Inactive)
REMARK    1  A    between atoms: C1_1  and  O1_2
REMARK    2  A    between atoms: O1_2  and  C2_3
REMARK    3  A    between atoms: C5_6  and  C6_7
REMARK    4  A    between atoms: C11_15  and  C12_16
REMARK    5  A    between atoms: N4_20  and  C14_21
REMARK    6  A    between atoms: C14_21  and  C15_22
REMARK    7  A    between atoms: C19_27  and  O3_28
REMARK    8  A    between atoms: O3_28  and  C20_29
REMARK                            x       y       z     vdW  Elec       q    Type
REMARK                         _______ _______ _______ _____ _____    ______ ____
ROOT
ATOM      1  C6  UNL     1       0.934  -0.678  -0.709  0.00  0.00    +0.169 A 
ATOM      2  N1  UNL     1       0.409  -1.623  -1.515  0.00  0.00    -0.127 NA
ATOM      3  N2  UNL     1      -0.907  -1.489  -1.474  0.00  0.00    -0.113 NA
ATOM      4  C7  UNL     1      -1.165  -0.470  -0.635  0.00  0.00    +0.220 A 
ATOM      5  N3  UNL     1      -2.495  -0.081  -0.262  0.00  0.00    -0.299 N 
ATOM      6  C8  UNL     1      -2.984  -0.372   1.089  0.00  0.00    +0.108 C 
ATOM      7  C9  UNL     1      -3.939  -1.569   1.043  0.00  0.00    +0.019 C 
ATOM      8  C10 UNL     1      -5.048  -1.348   0.004  0.00  0.00    +0.012 C 
ATOM      9  C11 UNL     1      -4.453  -1.046  -1.389  0.00  0.00    +0.072 C 
ATOM     10  C13 UNL     1      -3.496   0.157  -1.305  0.00  0.00    +0.117 C 
ATOM     11  N4  UNL     1      -0.035   0.072  -0.132  0.00  0.00    -0.295 N 
ENDROOT
BRANCH   1  15
ATOM     12  C2  UNL     1       5.152  -0.388   0.060  0.00  0.00    +0.124 A 
ATOM     13  C3  UNL     1       4.429   0.729  -0.363  0.00  0.00    +0.046 A 
ATOM     14  C4  UNL     1       3.059   0.635  -0.612  0.00  0.00    +0.019 A 
ATOM     15  C5  UNL     1       2.384  -0.580  -0.430  0.00  0.00    +0.061 A 
ATOM     16  C19 UNL     1       3.101  -1.720  -0.015  0.00  0.00    +0.134 A 
ATOM     17  C21 UNL     1       4.485  -1.615   0.231  0.00  0.00    +0.092 A 
BRANCH  12  19
ATOM     18  C1  UNL     1       7.390  -1.284   0.729  0.00  0.00    +0.277 C 
ATOM     19  O1  UNL     1       6.527  -0.237   0.296  0.00  0.00    -0.495 OA
ENDBRANCH  12  19
BRANCH  16  20
ATOM     20  O3  UNL     1       2.410  -2.932   0.157  0.00  0.00    -0.494 OA
ATOM     21  C20 UNL     1       3.007  -4.154   0.576  0.00  0.00    +0.277 C 
ENDBRANCH  16  20
ENDBRANCH   1  15
BRANCH   9  22
ATOM     22  C12 UNL     1      -5.555  -0.799  -2.431  0.00  0.00    +0.346 C 
ATOM     23  F1  UNL     1      -6.355   0.270  -2.062  0.00  0.00    -0.209 F 
ATOM     24  F2  UNL     1      -6.342  -1.928  -2.569  0.00  0.00    -0.209 F 
ENDBRANCH   9  22
BRANCH  11  25
ATOM     25  C14 UNL     1       0.105   1.203   0.793  0.00  0.00    +0.132 C 
BRANCH  25  26
ATOM     26  C15 UNL     1      -0.039   2.550   0.052  0.00  0.00    +0.037 C 
ATOM     27  C16 UNL     1       0.458   3.710   0.867  0.00  0.00    +0.035 C 
ATOM     28  C17 UNL     1      -0.384   4.864   0.358  0.00  0.00    +0.160 C 
ATOM     29  O2  UNL     1      -1.556   4.363  -0.245  0.00  0.00    -0.379 OA
ATOM     30  C18 UNL     1      -1.475   2.956  -0.233  0.00  0.00    +0.165 C 
ENDBRANCH  25  26
ENDBRANCH  11  25
TORSDOF 6
