REMARK  Name = /home/qwerty/github/datacon2025hack/step_04_hit_selection/docking/ligands/lig_720.pdb
REMARK  3 active torsions:
REMARK  status: ('A' for Active; 'I' for Inactive)
REMARK    1  A    between atoms: C1_2  and  C20_25
REMARK    2  A    between atoms: N1_3  and  C2_4
REMARK    3  A    between atoms: C9_12  and  C10_13
REMARK                            x       y       z     vdW  Elec       q    Type
REMARK                         _______ _______ _______ _____ _____    ______ ____
ROOT
ATOM      1  C2  UNL     1      -1.725  -1.374   1.304  0.00  0.00    +0.042 A 
ATOM      2  C3  UNL     1      -2.919  -1.745   1.938  0.00  0.00    +0.024 A 
ATOM      3  C4  UNL     1      -3.225  -3.085   2.156  0.00  0.00    +0.002 A 
ATOM      4  C5  UNL     1      -2.349  -4.079   1.733  0.00  0.00    +0.010 A 
ATOM      5  C6  UNL     1      -1.133  -3.738   1.125  0.00  0.00    +0.003 A 
ATOM      6  C7  UNL     1      -0.267  -4.751   0.698  0.00  0.00    +0.119 A 
ATOM      7  N2  UNL     1       0.924  -4.440   0.133  0.00  0.00    -0.262 NA
ATOM      8  C8  UNL     1       1.330  -3.156  -0.020  0.00  0.00    +0.119 A 
ATOM      9  C9  UNL     1       0.520  -2.090   0.403  0.00  0.00    +0.010 A 
ATOM     10  C19 UNL     1      -0.772  -2.373   0.941  0.00  0.00    +0.014 A 
ENDROOT
BRANCH   9  11
ATOM     11  C10 UNL     1       1.116  -0.736   0.355  0.00  0.00    -0.015 A 
ATOM     12  C11 UNL     1       1.337  -0.017   1.540  0.00  0.00    +0.010 A 
ATOM     13  C12 UNL     1       1.892   1.265   1.497  0.00  0.00    +0.027 A 
ATOM     14  C13 UNL     1       2.254   1.837   0.269  0.00  0.00    +0.049 A 
ATOM     15  N3  UNL     1       2.782   3.095   0.217  0.00  0.00    -0.322 N 
ATOM     16  C14 UNL     1       3.138   3.668  -0.968  0.00  0.00    +0.249 A 
ATOM     17  O2  UNL     1       3.619   4.833  -0.985  0.00  0.00    -0.268 OA
ATOM     18  C15 UNL     1       2.971   2.969  -2.167  0.00  0.00    +0.071 A 
ATOM     19  C16 UNL     1       2.437   1.680  -2.143  0.00  0.00    +0.015 A 
ATOM     20  C17 UNL     1       2.069   1.101  -0.924  0.00  0.00    -0.001 A 
ATOM     21  C18 UNL     1       1.511  -0.184  -0.874  0.00  0.00    +0.018 A 
ATOM     22  H9  UNL     1       2.917   3.639   1.100  0.00  0.00    +0.169 HD
ENDBRANCH   9  11
BRANCH   1  25
ATOM     23  O1  UNL     1      -1.884  -0.311  -1.308  0.00  0.00    -0.275 OA
ATOM     24  C1  UNL     1      -1.656   0.495  -0.364  0.00  0.00    +0.220 C 
ATOM     25  N1  UNL     1      -1.557   0.012   0.982  0.00  0.00    -0.285 N 
ATOM     26  H1  UNL     1      -1.577   0.705   1.764  0.00  0.00    +0.155 HD
BRANCH  24  27
ATOM     27  C20 UNL     1      -1.480   1.968  -0.628  0.00  0.00    +0.075 C 
ATOM     28  C21 UNL     1      -0.986   2.348  -2.017  0.00  0.00    +0.013 C 
ATOM     29  C22 UNL     1      -2.444   2.567  -1.641  0.00  0.00    +0.013 C 
ENDBRANCH  24  27
ENDBRANCH   1  25
TORSDOF 3
