MODEL 1
REMARK VINA RESULT:    -7.715      0.000      0.000
REMARK INTER + INTRA:         -10.369
REMARK INTER:                  -9.744
REMARK INTRA:                  -0.625
REMARK UNBOUND:                -0.625
REMARK  Name = /home/qwerty/github/datacon2025hack/step_04_hit_selection/docking/ligands/lig_18.pdb
REMARK  10 active torsions:
REMARK  status: ('A' for Active; 'I' for Inactive)
REMARK    1  A    between atoms: C1_1  and  C2_2
REMARK    2  A    between atoms: C7_9  and  N1_10
REMARK    3  A    between atoms: N2_13  and  C9_14
REMARK    4  A    between atoms: C9_14  and  C10_15
REMARK    5  A    between atoms: C9_14  and  C16_21
REMARK    6  A    between atoms: C16_21  and  O2_22
REMARK    7  A    between atoms: C18_24  and  C19_25
REMARK    8  A    between atoms: C18_24  and  C20_26
REMARK    9  A    between atoms: C21_28  and  C22_29
REMARK   10  A    between atoms: C21_28  and  C23_30
REMARK                            x       y       z     vdW  Elec       q    Type
REMARK                         _______ _______ _______ _____ _____    ______ ____
ROOT
ATOM      1  C9  UNL     1      16.479  -0.664  23.876  0.00  0.00    +0.136 C 
ENDROOT
BRANCH   1   2
ATOM      2  C16 UNL     1      15.735  -0.382  22.521  0.00  0.00    +0.092 C 
ATOM      3  C17 UNL     1      16.470   0.744  21.730  0.00  0.00    +0.058 C 
ATOM      4  C18 UNL     1      15.569   1.659  20.846  0.00  0.00    +0.017 C 
ATOM      5  C19 UNL     1      16.458   2.814  20.319  0.00  0.00    +0.027 C 
ATOM      6  C20 UNL     1      15.027   0.907  19.614  0.00  0.00    +0.027 C 
ATOM      7  N3  UNL     1      14.411   2.224  21.587  0.00  0.00    -0.306 NA
ATOM      8  C21 UNL     1      13.959   1.539  22.820  0.00  0.00    +0.017 C 
ATOM      9  C22 UNL     1      12.431   1.720  22.905  0.00  0.00    +0.027 C 
ATOM     10  C23 UNL     1      14.578   2.210  24.072  0.00  0.00    +0.027 C 
ATOM     11  C24 UNL     1      14.250   0.011  22.787  0.00  0.00    +0.058 C 
ATOM     12  H23 UNL     1      14.509   3.254  21.760  0.00  0.00    +0.123 HD
BRANCH   2  13
ATOM     13  O2  UNL     1      15.771  -1.584  21.780  0.00  0.00    -0.386 OA
ATOM     14  H14 UNL     1      15.020  -2.164  22.061  0.00  0.00    +0.210 HD
ENDBRANCH   2  13
ENDBRANCH   1   2
BRANCH   1  18
ATOM     15  N1  UNL     1      18.973   1.740  25.543  0.00  0.00    -0.269 N 
ATOM     16  C8  UNL     1      18.427   0.531  24.995  0.00  0.00    +0.304 C 
ATOM     17  O1  UNL     1      19.098  -0.537  25.008  0.00  0.00    -0.252 OA
ATOM     18  N2  UNL     1      17.122   0.550  24.398  0.00  0.00    -0.290 N 
ATOM     19  H6  UNL     1      18.463   2.631  25.355  0.00  0.00    +0.156 HD
ATOM     20  H7  UNL     1      16.593   1.451  24.406  0.00  0.00    +0.151 HD
BRANCH  15  29
ATOM     21  C1  UNL     1      21.252   3.171  24.400  0.00  0.00    +0.046 C 
ATOM     22  C2  UNL     1      21.326   2.496  25.743  0.00  0.00    -0.026 A 
ATOM     23  C3  UNL     1      22.514   2.572  26.489  0.00  0.00    +0.044 A 
ATOM     24  C4  UNL     1      22.609   1.954  27.739  0.00  0.00    +0.138 A 
ATOM     25  F1  UNL     1      23.771   2.028  28.436  0.00  0.00    -0.204 F 
ATOM     26  C5  UNL     1      21.515   1.266  28.264  0.00  0.00    +0.055 A 
ATOM     27 BR1  UNL     1      21.630   0.425  29.976  0.00  0.00    -0.047 Br
ATOM     28  C6  UNL     1      20.322   1.195  27.538  0.00  0.00    +0.041 A 
ATOM     29  C7  UNL     1      20.215   1.796  26.271  0.00  0.00    +0.039 A 
ENDBRANCH  15  29
ENDBRANCH   1  18
BRANCH   1  30
ATOM     30  C10 UNL     1      15.554  -1.235  24.939  0.00  0.00    -0.024 A 
ATOM     31  C11 UNL     1      15.179  -0.450  26.047  0.00  0.00    +0.005 A 
ATOM     32  C12 UNL     1      14.344  -0.974  27.037  0.00  0.00    +0.000 A 
ATOM     33  C13 UNL     1      13.871  -2.284  26.934  0.00  0.00    +0.000 A 
ATOM     34  C14 UNL     1      14.231  -3.073  25.839  0.00  0.00    +0.000 A 
ATOM     35  C15 UNL     1      15.066  -2.554  24.845  0.00  0.00    +0.005 A 
ENDBRANCH   1  30
TORSDOF 5
ENDMDL
MODEL 2
REMARK VINA RESULT:    -7.516      8.200     13.037
REMARK INTER + INTRA:         -10.118
REMARK INTER:                  -9.424
REMARK INTRA:                  -0.694
REMARK UNBOUND:                -0.625
REMARK  Name = /home/qwerty/github/datacon2025hack/step_04_hit_selection/docking/ligands/lig_18.pdb
REMARK  10 active torsions:
REMARK  status: ('A' for Active; 'I' for Inactive)
REMARK    1  A    between atoms: C1_1  and  C2_2
REMARK    2  A    between atoms: C7_9  and  N1_10
REMARK    3  A    between atoms: N2_13  and  C9_14
REMARK    4  A    between atoms: C9_14  and  C10_15
REMARK    5  A    between atoms: C9_14  and  C16_21
REMARK    6  A    between atoms: C16_21  and  O2_22
REMARK    7  A    between atoms: C18_24  and  C19_25
REMARK    8  A    between atoms: C18_24  and  C20_26
REMARK    9  A    between atoms: C21_28  and  C22_29
REMARK   10  A    between atoms: C21_28  and  C23_30
REMARK                            x       y       z     vdW  Elec       q    Type
REMARK                         _______ _______ _______ _____ _____    ______ ____
ROOT
ATOM      1  C9  UNL     1      22.980   6.846  33.712  0.00  0.00    +0.136 C 
ENDROOT
BRANCH   1   2
ATOM      2  C16 UNL     1      22.470   7.398  35.092  0.00  0.00    +0.092 C 
ATOM      3  C17 UNL     1      21.373   6.454  35.675  0.00  0.00    +0.058 C 
ATOM      4  C18 UNL     1      20.265   7.139  36.532  0.00  0.00    +0.017 C 
ATOM      5  C19 UNL     1      19.187   6.069  36.835  0.00  0.00    +0.027 C 
ATOM      6  C20 UNL     1      20.813   7.627  37.888  0.00  0.00    +0.027 C 
ATOM      7  N3  UNL     1      19.634   8.297  35.846  0.00  0.00    -0.306 NA
ATOM      8  C21 UNL     1      20.377   8.959  34.749  0.00  0.00    +0.017 C 
ATOM      9  C22 UNL     1      20.010  10.456  34.792  0.00  0.00    +0.027 C 
ATOM     10  C23 UNL     1      19.921   8.407  33.375  0.00  0.00    +0.027 C 
ATOM     11  C24 UNL     1      21.918   8.847  34.928  0.00  0.00    +0.058 C 
ATOM     12  H23 UNL     1      18.648   8.100  35.549  0.00  0.00    +0.123 HD
BRANCH   2  13
ATOM     13  O2  UNL     1      23.585   7.422  35.958  0.00  0.00    -0.386 OA
ATOM     14  H14 UNL     1      24.127   8.229  35.771  0.00  0.00    +0.210 HD
ENDBRANCH   2  13
ENDBRANCH   1   2
BRANCH   1  18
ATOM     15  N1  UNL     1      21.124   4.289  31.523  0.00  0.00    -0.269 N 
ATOM     16  C8  UNL     1      22.190   4.924  32.245  0.00  0.00    +0.304 C 
ATOM     17  O1  UNL     1      23.350   4.427  32.239  0.00  0.00    -0.252 OA
ATOM     18  N2  UNL     1      21.922   6.112  33.003  0.00  0.00    -0.290 N 
ATOM     19  H6  UNL     1      20.152   4.629  31.696  0.00  0.00    +0.156 HD
ATOM     20  H7  UNL     1      20.952   6.497  32.984  0.00  0.00    +0.151 HD
BRANCH  15  29
ATOM     21  C1  UNL     1      20.768   1.569  32.535  0.00  0.00    +0.046 C 
ATOM     22  C2  UNL     1      21.134   1.846  31.102  0.00  0.00    -0.026 A 
ATOM     23  C3  UNL     1      21.287   0.771  30.209  0.00  0.00    +0.044 A 
ATOM     24  C4  UNL     1      21.627   1.001  28.873  0.00  0.00    +0.138 A 
ATOM     25  F1  UNL     1      21.783  -0.052  28.031  0.00  0.00    -0.204 F 
ATOM     26  C5  UNL     1      21.804   2.306  28.410  0.00  0.00    +0.055 A 
ATOM     27 BR1  UNL     1      22.258   2.632  26.583  0.00  0.00    -0.047 Br
ATOM     28  C6  UNL     1      21.640   3.384  29.285  0.00  0.00    +0.041 A 
ATOM     29  C7  UNL     1      21.317   3.169  30.637  0.00  0.00    +0.039 A 
ENDBRANCH  15  29
ENDBRANCH   1  18
BRANCH   1  30
ATOM     30  C10 UNL     1      23.516   7.946  32.808  0.00  0.00    -0.024 A 
ATOM     31  C11 UNL     1      24.752   8.557  33.096  0.00  0.00    +0.005 A 
ATOM     32  C12 UNL     1      25.242   9.580  32.280  0.00  0.00    +0.000 A 
ATOM     33  C13 UNL     1      24.509  10.005  31.170  0.00  0.00    +0.000 A 
ATOM     34  C14 UNL     1      23.284   9.404  30.871  0.00  0.00    +0.000 A 
ATOM     35  C15 UNL     1      22.789   8.380  31.683  0.00  0.00    +0.005 A 
ENDBRANCH   1  30
TORSDOF 5
ENDMDL
MODEL 3
REMARK VINA RESULT:    -7.387     14.008     15.398
REMARK INTER + INTRA:          -9.954
REMARK INTER:                  -9.111
REMARK INTRA:                  -0.843
REMARK UNBOUND:                -0.625
REMARK  Name = /home/qwerty/github/datacon2025hack/step_04_hit_selection/docking/ligands/lig_18.pdb
REMARK  10 active torsions:
REMARK  status: ('A' for Active; 'I' for Inactive)
REMARK    1  A    between atoms: C1_1  and  C2_2
REMARK    2  A    between atoms: C7_9  and  N1_10
REMARK    3  A    between atoms: N2_13  and  C9_14
REMARK    4  A    between atoms: C9_14  and  C10_15
REMARK    5  A    between atoms: C9_14  and  C16_21
REMARK    6  A    between atoms: C16_21  and  O2_22
REMARK    7  A    between atoms: C18_24  and  C19_25
REMARK    8  A    between atoms: C18_24  and  C20_26
REMARK    9  A    between atoms: C21_28  and  C22_29
REMARK   10  A    between atoms: C21_28  and  C23_30
REMARK                            x       y       z     vdW  Elec       q    Type
REMARK                         _______ _______ _______ _____ _____    ______ ____
ROOT
ATOM      1  C9  UNL     1      12.879  14.038  29.627  0.00  0.00    +0.136 C 
ENDROOT
BRANCH   1   2
ATOM      2  C16 UNL     1      11.675  14.135  28.621  0.00  0.00    +0.092 C 
ATOM      3  C17 UNL     1      10.343  13.756  29.340  0.00  0.00    +0.058 C 
ATOM      4  C18 UNL     1       9.260  13.066  28.456  0.00  0.00    +0.017 C 
ATOM      5  C19 UNL     1       8.122  12.600  29.398  0.00  0.00    +0.027 C 
ATOM      6  C20 UNL     1       8.637  14.051  27.446  0.00  0.00    +0.027 C 
ATOM      7  N3  UNL     1       9.785  11.900  27.699  0.00  0.00    -0.306 NA
ATOM      8  C21 UNL     1      11.245  11.810  27.463  0.00  0.00    +0.017 C 
ATOM      9  C22 UNL     1      11.441  11.128  26.094  0.00  0.00    +0.027 C 
ATOM     10  C23 UNL     1      11.913  10.911  28.532  0.00  0.00    +0.027 C 
ATOM     11  C24 UNL     1      11.919  13.211  27.390  0.00  0.00    +0.058 C 
ATOM     12  H23 UNL     1       9.420  10.987  28.063  0.00  0.00    +0.123 HD
BRANCH   2  13
ATOM     13  O2  UNL     1      11.615  15.479  28.188  0.00  0.00    -0.386 OA
ATOM     14  H14 UNL     1      11.679  16.079  28.972  0.00  0.00    +0.210 HD
ENDBRANCH   2  13
ENDBRANCH   1   2
BRANCH   1  18
ATOM     15  N1  UNL     1      15.809  16.499  29.258  0.00  0.00    -0.269 N 
ATOM     16  C8  UNL     1      15.054  15.280  29.184  0.00  0.00    +0.304 C 
ATOM     17  O1  UNL     1      15.577  14.233  28.712  0.00  0.00    -0.252 OA
ATOM     18  N2  UNL     1      13.687  15.266  29.617  0.00  0.00    -0.290 N 
ATOM     19  H6  UNL     1      15.290  17.376  29.486  0.00  0.00    +0.156 HD
ATOM     20  H7  UNL     1      13.286  16.150  30.004  0.00  0.00    +0.151 HD
BRANCH  15  29
ATOM     21  C1  UNL     1      16.681  17.115  26.536  0.00  0.00    +0.046 C 
ATOM     22  C2  UNL     1      17.660  16.897  27.659  0.00  0.00    -0.026 A 
ATOM     23  C3  UNL     1      19.038  17.016  27.405  0.00  0.00    +0.044 A 
ATOM     24  C4  UNL     1      19.968  16.819  28.430  0.00  0.00    +0.138 A 
ATOM     25  F1  UNL     1      21.294  16.925  28.161  0.00  0.00    -0.204 F 
ATOM     26  C5  UNL     1      19.533  16.514  29.720  0.00  0.00    +0.055 A 
ATOM     27 BR1  UNL     1      20.796  16.252  31.130  0.00  0.00    -0.047 Br
ATOM     28  C6  UNL     1      18.165  16.407  29.988  0.00  0.00    +0.041 A 
ATOM     29  C7  UNL     1      17.217  16.585  28.965  0.00  0.00    +0.039 A 
ENDBRANCH  15  29
ENDBRANCH   1  18
BRANCH   1  30
ATOM     30  C10 UNL     1      12.425  13.750  31.050  0.00  0.00    -0.024 A 
ATOM     31  C11 UNL     1      12.223  14.810  31.956  0.00  0.00    +0.005 A 
ATOM     32  C12 UNL     1      11.824  14.552  33.270  0.00  0.00    +0.000 A 
ATOM     33  C13 UNL     1      11.620  13.237  33.696  0.00  0.00    +0.000 A 
ATOM     34  C14 UNL     1      11.812  12.177  32.807  0.00  0.00    +0.000 A 
ATOM     35  C15 UNL     1      12.211  12.429  31.491  0.00  0.00    +0.005 A 
ENDBRANCH   1  30
TORSDOF 5
ENDMDL
MODEL 4
REMARK VINA RESULT:    -7.095     11.646     14.337
REMARK INTER + INTRA:          -9.586
REMARK INTER:                  -8.608
REMARK INTRA:                  -0.978
REMARK UNBOUND:                -0.625
REMARK  Name = /home/qwerty/github/datacon2025hack/step_04_hit_selection/docking/ligands/lig_18.pdb
REMARK  10 active torsions:
REMARK  status: ('A' for Active; 'I' for Inactive)
REMARK    1  A    between atoms: C1_1  and  C2_2
REMARK    2  A    between atoms: C7_9  and  N1_10
REMARK    3  A    between atoms: N2_13  and  C9_14
REMARK    4  A    between atoms: C9_14  and  C10_15
REMARK    5  A    between atoms: C9_14  and  C16_21
REMARK    6  A    between atoms: C16_21  and  O2_22
REMARK    7  A    between atoms: C18_24  and  C19_25
REMARK    8  A    between atoms: C18_24  and  C20_26
REMARK    9  A    between atoms: C21_28  and  C22_29
REMARK   10  A    between atoms: C21_28  and  C23_30
REMARK                            x       y       z     vdW  Elec       q    Type
REMARK                         _______ _______ _______ _____ _____    ______ ____
ROOT
ATOM      1  C9  UNL     1       8.316   8.924  27.817  0.00  0.00    +0.136 C 
ENDROOT
BRANCH   1   2
ATOM      2  C16 UNL     1       8.058  10.196  28.704  0.00  0.00    +0.092 C 
ATOM      3  C17 UNL     1       8.400  11.488  27.900  0.00  0.00    +0.058 C 
ATOM      4  C18 UNL     1       8.942  12.690  28.733  0.00  0.00    +0.017 C 
ATOM      5  C19 UNL     1       9.401  13.778  27.730  0.00  0.00    +0.027 C 
ATOM      6  C20 UNL     1       7.841  13.317  29.611  0.00  0.00    +0.027 C 
ATOM      7  N3  UNL     1      10.079  12.318  29.615  0.00  0.00    -0.306 NA
ATOM      8  C21 UNL     1      10.250  10.894  29.985  0.00  0.00    +0.017 C 
ATOM      9  C22 UNL     1      10.836  10.863  31.410  0.00  0.00    +0.027 C 
ATOM     10  C23 UNL     1      11.275  10.209  29.046  0.00  0.00    +0.027 C 
ATOM     11  C24 UNL     1       8.898  10.125  30.015  0.00  0.00    +0.058 C 
ATOM     12  H23 UNL     1      10.990  12.719  29.287  0.00  0.00    +0.123 HD
BRANCH   2  13
ATOM     13  O2  UNL     1       6.684  10.190  29.032  0.00  0.00    -0.386 OA
ATOM     14  H14 UNL     1       6.158  10.473  28.243  0.00  0.00    +0.210 HD
ENDBRANCH   2  13
ENDBRANCH   1   2
BRANCH   1  18
ATOM     15  N1  UNL     1       6.225   5.751  28.396  0.00  0.00    -0.269 N 
ATOM     16  C8  UNL     1       7.346   6.647  28.406  0.00  0.00    +0.304 C 
ATOM     17  O1  UNL     1       8.453   6.280  28.888  0.00  0.00    -0.252 OA
ATOM     18  N2  UNL     1       7.193   7.979  27.895  0.00  0.00    -0.290 N 
ATOM     19  H6  UNL     1       5.289   6.148  28.153  0.00  0.00    +0.156 HD
ATOM     20  H7  UNL     1       6.264   8.249  27.501  0.00  0.00    +0.151 HD
BRANCH  15  29
ATOM     21  C1  UNL     1       5.295   4.910  31.038  0.00  0.00    +0.046 C 
ATOM     22  C2  UNL     1       5.851   3.932  30.037  0.00  0.00    -0.026 A 
ATOM     23  C3  UNL     1       5.905   2.566  30.365  0.00  0.00    +0.044 A 
ATOM     24  C4  UNL     1       6.417   1.637  29.455  0.00  0.00    +0.138 A 
ATOM     25  F1  UNL     1       6.472   0.325  29.797  0.00  0.00    -0.204 F 
ATOM     26  C5  UNL     1       6.865   2.059  28.203  0.00  0.00    +0.055 A 
ATOM     27 BR1  UNL     1       7.557   0.795  26.947  0.00  0.00    -0.047 Br
ATOM     28  C6  UNL     1       6.804   3.412  27.859  0.00  0.00    +0.041 A 
ATOM     29  C7  UNL     1       6.309   4.363  28.770  0.00  0.00    +0.039 A 
ENDBRANCH  15  29
ENDBRANCH   1  18
BRANCH   1  30
ATOM     30  C10 UNL     1       8.575   9.274  26.360  0.00  0.00    -0.024 A 
ATOM     31  C11 UNL     1       7.496   9.528  25.492  0.00  0.00    +0.005 A 
ATOM     32  C12 UNL     1       7.725   9.833  24.147  0.00  0.00    +0.000 A 
ATOM     33  C13 UNL     1       9.030   9.889  23.653  0.00  0.00    +0.000 A 
ATOM     34  C14 UNL     1      10.110   9.643  24.505  0.00  0.00    +0.000 A 
ATOM     35  C15 UNL     1       9.887   9.338  25.850  0.00  0.00    +0.005 A 
ENDBRANCH   1  30
TORSDOF 5
ENDMDL
MODEL 5
REMARK VINA RESULT:    -7.077      1.581      2.467
REMARK INTER + INTRA:          -9.563
REMARK INTER:                  -8.709
REMARK INTRA:                  -0.854
REMARK UNBOUND:                -0.625
REMARK  Name = /home/qwerty/github/datacon2025hack/step_04_hit_selection/docking/ligands/lig_18.pdb
REMARK  10 active torsions:
REMARK  status: ('A' for Active; 'I' for Inactive)
REMARK    1  A    between atoms: C1_1  and  C2_2
REMARK    2  A    between atoms: C7_9  and  N1_10
REMARK    3  A    between atoms: N2_13  and  C9_14
REMARK    4  A    between atoms: C9_14  and  C10_15
REMARK    5  A    between atoms: C9_14  and  C16_21
REMARK    6  A    between atoms: C16_21  and  O2_22
REMARK    7  A    between atoms: C18_24  and  C19_25
REMARK    8  A    between atoms: C18_24  and  C20_26
REMARK    9  A    between atoms: C21_28  and  C22_29
REMARK   10  A    between atoms: C21_28  and  C23_30
REMARK                            x       y       z     vdW  Elec       q    Type
REMARK                         _______ _______ _______ _____ _____    ______ ____
ROOT
ATOM      1  C9  UNL     1      16.597   0.907  24.385  0.00  0.00    +0.136 C 
ENDROOT
BRANCH   1   2
ATOM      2  C16 UNL     1      15.853   1.644  23.214  0.00  0.00    +0.092 C 
ATOM      3  C17 UNL     1      14.338   1.272  23.222  0.00  0.00    +0.058 C 
ATOM      4  C18 UNL     1      13.634   1.235  21.831  0.00  0.00    +0.017 C 
ATOM      5  C19 UNL     1      12.213   0.655  22.047  0.00  0.00    +0.027 C 
ATOM      6  C20 UNL     1      13.462   2.650  21.242  0.00  0.00    +0.027 C 
ATOM      7  N3  UNL     1      14.361   0.406  20.835  0.00  0.00    -0.306 NA
ATOM      8  C21 UNL     1      15.801   0.137  21.055  0.00  0.00    +0.017 C 
ATOM      9  C22 UNL     1      16.465   0.055  19.666  0.00  0.00    +0.027 C 
ATOM     10  C23 UNL     1      15.997  -1.235  21.747  0.00  0.00    +0.027 C 
ATOM     11  C24 UNL     1      16.502   1.282  21.844  0.00  0.00    +0.058 C 
ATOM     12  H23 UNL     1      13.857  -0.485  20.608  0.00  0.00    +0.123 HD
BRANCH   2  13
ATOM     13  O2  UNL     1      16.003   3.030  23.445  0.00  0.00    -0.386 OA
ATOM     14  H14 UNL     1      15.538   3.533  22.731  0.00  0.00    +0.210 HD
ENDBRANCH   2  13
ENDBRANCH   1   2
BRANCH   1  18
ATOM     15  N1  UNL     1      19.196   2.406  26.789  0.00  0.00    -0.269 N 
ATOM     16  C8  UNL     1      18.527   1.451  25.951  0.00  0.00    +0.304 C 
ATOM     17  O1  UNL     1      18.973   0.277  25.838  0.00  0.00    -0.252 OA
ATOM     18  N2  UNL     1      17.365   1.851  25.211  0.00  0.00    -0.290 N 
ATOM     19  H6  UNL     1      18.901   3.405  26.716  0.00  0.00    +0.156 HD
ATOM     20  H7  UNL     1      17.021   2.830  25.329  0.00  0.00    +0.151 HD
BRANCH  15  29
ATOM     21  C1  UNL     1      21.944   2.695  25.833  0.00  0.00    +0.046 C 
ATOM     22  C2  UNL     1      21.629   2.218  27.226  0.00  0.00    -0.026 A 
ATOM     23  C3  UNL     1      22.682   1.925  28.110  0.00  0.00    +0.044 A 
ATOM     24  C4  UNL     1      22.417   1.480  29.408  0.00  0.00    +0.138 A 
ATOM     25  F1  UNL     1      23.448   1.190  30.240  0.00  0.00    -0.204 F 
ATOM     26  C5  UNL     1      21.098   1.338  29.843  0.00  0.00    +0.055 A 
ATOM     27 BR1  UNL     1      20.724   0.741  31.619  0.00  0.00    -0.047 Br
ATOM     28  C6  UNL     1      20.042   1.640  28.978  0.00  0.00    +0.041 A 
ATOM     29  C7  UNL     1      20.291   2.071  27.663  0.00  0.00    +0.039 A 
ENDBRANCH  15  29
ENDBRANCH   1  18
BRANCH   1  30
ATOM     30  C10 UNL     1      15.646   0.124  25.276  0.00  0.00    -0.024 A 
ATOM     31  C11 UNL     1      14.879   0.790  26.251  0.00  0.00    +0.005 A 
ATOM     32  C12 UNL     1      14.016   0.075  27.086  0.00  0.00    +0.000 A 
ATOM     33  C13 UNL     1      13.906  -1.312  26.957  0.00  0.00    +0.000 A 
ATOM     34  C14 UNL     1      14.657  -1.986  25.991  0.00  0.00    +0.000 A 
ATOM     35  C15 UNL     1      15.522  -1.275  25.154  0.00  0.00    +0.005 A 
ENDBRANCH   1  30
TORSDOF 5
ENDMDL
MODEL 6
REMARK VINA RESULT:    -7.003      9.942     12.874
REMARK INTER + INTRA:          -9.470
REMARK INTER:                  -8.876
REMARK INTRA:                  -0.594
REMARK UNBOUND:                -0.625
REMARK  Name = /home/qwerty/github/datacon2025hack/step_04_hit_selection/docking/ligands/lig_18.pdb
REMARK  10 active torsions:
REMARK  status: ('A' for Active; 'I' for Inactive)
REMARK    1  A    between atoms: C1_1  and  C2_2
REMARK    2  A    between atoms: C7_9  and  N1_10
REMARK    3  A    between atoms: N2_13  and  C9_14
REMARK    4  A    between atoms: C9_14  and  C10_15
REMARK    5  A    between atoms: C9_14  and  C16_21
REMARK    6  A    between atoms: C16_21  and  O2_22
REMARK    7  A    between atoms: C18_24  and  C19_25
REMARK    8  A    between atoms: C18_24  and  C20_26
REMARK    9  A    between atoms: C21_28  and  C22_29
REMARK   10  A    between atoms: C21_28  and  C23_30
REMARK                            x       y       z     vdW  Elec       q    Type
REMARK                         _______ _______ _______ _____ _____    ______ ____
ROOT
ATOM      1  C9  UNL     1       9.080   8.885  22.649  0.00  0.00    +0.136 C 
ENDROOT
BRANCH   1   2
ATOM      2  C16 UNL     1       8.610   7.451  22.210  0.00  0.00    +0.092 C 
ATOM      3  C17 UNL     1       8.275   6.588  23.467  0.00  0.00    +0.058 C 
ATOM      4  C18 UNL     1       8.542   5.058  23.337  0.00  0.00    +0.017 C 
ATOM      5  C19 UNL     1       8.339   4.432  24.740  0.00  0.00    +0.027 C 
ATOM      6  C20 UNL     1       7.533   4.381  22.389  0.00  0.00    +0.027 C 
ATOM      7  N3  UNL     1       9.912   4.747  22.851  0.00  0.00    -0.306 NA
ATOM      8  C21 UNL     1      10.654   5.794  22.113  0.00  0.00    +0.017 C 
ATOM      9  C22 UNL     1      11.533   5.077  21.069  0.00  0.00    +0.027 C 
ATOM     10  C23 UNL     1      11.600   6.564  23.068  0.00  0.00    +0.027 C 
ATOM     11  C24 UNL     1       9.706   6.760  21.344  0.00  0.00    +0.058 C 
ATOM     12  H23 UNL     1      10.519   4.330  23.598  0.00  0.00    +0.123 HD
BRANCH   2  13
ATOM     13  O2  UNL     1       7.445   7.626  21.431  0.00  0.00    -0.386 OA
ATOM     14  H14 UNL     1       7.602   7.265  20.523  0.00  0.00    +0.210 HD
ENDBRANCH   2  13
ENDBRANCH   1   2
BRANCH   1  18
ATOM     15  N1  UNL     1       9.740   9.876  26.304  0.00  0.00    -0.269 N 
ATOM     16  C8  UNL     1       9.177   9.891  24.983  0.00  0.00    +0.304 C 
ATOM     17  O1  UNL     1       8.320  10.760  24.664  0.00  0.00    -0.252 OA
ATOM     18  N2  UNL     1       9.569   8.889  24.035  0.00  0.00    -0.290 N 
ATOM     19  H6  UNL     1      10.306   9.043  26.580  0.00  0.00    +0.156 HD
ATOM     20  H7  UNL     1      10.282   8.186  24.332  0.00  0.00    +0.151 HD
BRANCH  15  29
ATOM     21  C1  UNL     1       7.489   9.624  28.154  0.00  0.00    +0.046 C 
ATOM     22  C2  UNL     1       8.432  10.797  28.198  0.00  0.00    -0.026 A 
ATOM     23  C3  UNL     1       8.247  11.795  29.171  0.00  0.00    +0.044 A 
ATOM     24  C4  UNL     1       9.107  12.894  29.233  0.00  0.00    +0.138 A 
ATOM     25  F1  UNL     1       8.903  13.852  30.172  0.00  0.00    -0.204 F 
ATOM     26  C5  UNL     1      10.170  13.003  28.334  0.00  0.00    +0.055 A 
ATOM     27 BR1  UNL     1      11.358  14.497  28.417  0.00  0.00    -0.047 Br
ATOM     28  C6  UNL     1      10.373  12.010  27.371  0.00  0.00    +0.041 A 
ATOM     29  C7  UNL     1       9.505  10.907  27.283  0.00  0.00    +0.039 A 
ENDBRANCH  15  29
ENDBRANCH   1  18
BRANCH   1  30
ATOM     30  C10 UNL     1      10.160   9.447  21.737  0.00  0.00    -0.024 A 
ATOM     31  C11 UNL     1      11.414   9.808  22.265  0.00  0.00    +0.005 A 
ATOM     32  C12 UNL     1      12.405  10.342  21.437  0.00  0.00    +0.000 A 
ATOM     33  C13 UNL     1      12.158  10.520  20.073  0.00  0.00    +0.000 A 
ATOM     34  C14 UNL     1      10.920  10.161  19.535  0.00  0.00    +0.000 A 
ATOM     35  C15 UNL     1       9.925   9.627  20.359  0.00  0.00    +0.005 A 
ENDBRANCH   1  30
TORSDOF 5
ENDMDL
MODEL 7
REMARK VINA RESULT:    -6.990      5.992     10.283
REMARK INTER + INTRA:          -9.453
REMARK INTER:                  -8.606
REMARK INTRA:                  -0.848
REMARK UNBOUND:                -0.625
REMARK  Name = /home/qwerty/github/datacon2025hack/step_04_hit_selection/docking/ligands/lig_18.pdb
REMARK  10 active torsions:
REMARK  status: ('A' for Active; 'I' for Inactive)
REMARK    1  A    between atoms: C1_1  and  C2_2
REMARK    2  A    between atoms: C7_9  and  N1_10
REMARK    3  A    between atoms: N2_13  and  C9_14
REMARK    4  A    between atoms: C9_14  and  C10_15
REMARK    5  A    between atoms: C9_14  and  C16_21
REMARK    6  A    between atoms: C16_21  and  O2_22
REMARK    7  A    between atoms: C18_24  and  C19_25
REMARK    8  A    between atoms: C18_24  and  C20_26
REMARK    9  A    between atoms: C21_28  and  C22_29
REMARK   10  A    between atoms: C21_28  and  C23_30
REMARK                            x       y       z     vdW  Elec       q    Type
REMARK                         _______ _______ _______ _____ _____    ______ ____
ROOT
ATOM      1  C9  UNL     1      21.083   3.773  31.469  0.00  0.00    +0.136 C 
ENDROOT
BRANCH   1   2
ATOM      2  C16 UNL     1      22.029   4.399  32.558  0.00  0.00    +0.092 C 
ATOM      3  C17 UNL     1      21.186   4.941  33.753  0.00  0.00    +0.058 C 
ATOM      4  C18 UNL     1      21.763   6.190  34.488  0.00  0.00    +0.017 C 
ATOM      5  C19 UNL     1      20.686   6.675  35.491  0.00  0.00    +0.027 C 
ATOM      6  C20 UNL     1      23.020   5.838  35.307  0.00  0.00    +0.027 C 
ATOM      7  N3  UNL     1      22.112   7.298  33.561  0.00  0.00    -0.306 NA
ATOM      8  C21 UNL     1      22.349   6.979  32.134  0.00  0.00    +0.017 C 
ATOM      9  C22 UNL     1      23.424   7.958  31.623  0.00  0.00    +0.027 C 
ATOM     10  C23 UNL     1      21.065   7.221  31.303  0.00  0.00    +0.027 C 
ATOM     11  C24 UNL     1      22.897   5.535  31.936  0.00  0.00    +0.058 C 
ATOM     12  H23 UNL     1      21.458   8.114  33.645  0.00  0.00    +0.123 HD
BRANCH   2  13
ATOM     13  O2  UNL     1      22.876   3.361  33.006  0.00  0.00    -0.386 OA
ATOM     14  H14 UNL     1      22.718   2.551  32.459  0.00  0.00    +0.210 HD
ENDBRANCH   2  13
ENDBRANCH   1   2
BRANCH   1  18
ATOM     15  N1  UNL     1      22.149   3.029  27.852  0.00  0.00    -0.269 N 
ATOM     16  C8  UNL     1      21.395   3.555  28.954  0.00  0.00    +0.304 C 
ATOM     17  O1  UNL     1      20.361   4.248  28.748  0.00  0.00    -0.252 OA
ATOM     18  N2  UNL     1      21.843   3.318  30.296  0.00  0.00    -0.290 N 
ATOM     19  H6  UNL     1      23.087   2.617  28.059  0.00  0.00    +0.156 HD
ATOM     20  H7  UNL     1      22.702   2.739  30.431  0.00  0.00    +0.151 HD
BRANCH  15  29
ATOM     21  C1  UNL     1      20.580   0.844  26.707  0.00  0.00    +0.046 C 
ATOM     22  C2  UNL     1      20.944   2.068  25.911  0.00  0.00    -0.026 A 
ATOM     23  C3  UNL     1      20.499   2.185  24.582  0.00  0.00    +0.044 A 
ATOM     24  C4  UNL     1      20.824   3.310  23.821  0.00  0.00    +0.138 A 
ATOM     25  F1  UNL     1      20.395   3.396  22.536  0.00  0.00    -0.204 F 
ATOM     26  C5  UNL     1      21.583   4.339  24.381  0.00  0.00    +0.055 A 
ATOM     27 BR1  UNL     1      22.024   5.887  23.352  0.00  0.00    -0.047 Br
ATOM     28  C6  UNL     1      22.020   4.242  25.706  0.00  0.00    +0.041 A 
ATOM     29  C7  UNL     1      21.717   3.107  26.480  0.00  0.00    +0.039 A 
ENDBRANCH  15  29
ENDBRANCH   1  18
BRANCH   1  30
ATOM     30  C10 UNL     1      20.260   2.615  32.012  0.00  0.00    -0.024 A 
ATOM     31  C11 UNL     1      19.013   2.858  32.619  0.00  0.00    +0.005 A 
ATOM     32  C12 UNL     1      18.260   1.800  33.136  0.00  0.00    +0.000 A 
ATOM     33  C13 UNL     1      18.738   0.491  33.053  0.00  0.00    +0.000 A 
ATOM     34  C14 UNL     1      19.972   0.235  32.448  0.00  0.00    +0.000 A 
ATOM     35  C15 UNL     1      20.730   1.289  31.930  0.00  0.00    +0.005 A 
ENDBRANCH   1  30
TORSDOF 5
ENDMDL
MODEL 8
REMARK VINA RESULT:    -6.883      6.014      8.749
REMARK INTER + INTRA:          -9.319
REMARK INTER:                  -8.721
REMARK INTRA:                  -0.597
REMARK UNBOUND:                -0.625
REMARK  Name = /home/qwerty/github/datacon2025hack/step_04_hit_selection/docking/ligands/lig_18.pdb
REMARK  10 active torsions:
REMARK  status: ('A' for Active; 'I' for Inactive)
REMARK    1  A    between atoms: C1_1  and  C2_2
REMARK    2  A    between atoms: C7_9  and  N1_10
REMARK    3  A    between atoms: N2_13  and  C9_14
REMARK    4  A    between atoms: C9_14  and  C10_15
REMARK    5  A    between atoms: C9_14  and  C16_21
REMARK    6  A    between atoms: C16_21  and  O2_22
REMARK    7  A    between atoms: C18_24  and  C19_25
REMARK    8  A    between atoms: C18_24  and  C20_26
REMARK    9  A    between atoms: C21_28  and  C22_29
REMARK   10  A    between atoms: C21_28  and  C23_30
REMARK                            x       y       z     vdW  Elec       q    Type
REMARK                         _______ _______ _______ _____ _____    ______ ____
ROOT
ATOM      1  C9  UNL     1      10.270   5.493  21.192  0.00  0.00    +0.136 C 
ENDROOT
BRANCH   1   2
ATOM      2  C16 UNL     1       9.942   7.002  20.899  0.00  0.00    +0.092 C 
ATOM      3  C17 UNL     1      11.252   7.780  20.562  0.00  0.00    +0.058 C 
ATOM      4  C18 UNL     1      11.287   9.279  20.988  0.00  0.00    +0.017 C 
ATOM      5  C19 UNL     1      12.728   9.795  20.747  0.00  0.00    +0.027 C 
ATOM      6  C20 UNL     1      10.347  10.140  20.121  0.00  0.00    +0.027 C 
ATOM      7  N3  UNL     1      10.919   9.487  22.413  0.00  0.00    -0.306 NA
ATOM      8  C21 UNL     1      10.131   8.437  23.099  0.00  0.00    +0.017 C 
ATOM      9  C22 UNL     1       9.218   9.148  24.118  0.00  0.00    +0.027 C 
ATOM     10  C23 UNL     1      11.065   7.489  23.893  0.00  0.00    +0.027 C 
ATOM     11  C24 UNL     1       9.216   7.648  22.118  0.00  0.00    +0.058 C 
ATOM     12  H23 UNL     1      11.739   9.769  23.003  0.00  0.00    +0.123 HD
BRANCH   2  13
ATOM     13  O2  UNL     1       9.078   7.021  19.782  0.00  0.00    -0.386 OA
ATOM     14  H14 UNL     1       8.496   7.820  19.831  0.00  0.00    +0.210 HD
ENDBRANCH   2  13
ENDBRANCH   1   2
BRANCH   1  18
ATOM     15  N1  UNL     1      13.782   4.022  21.717  0.00  0.00    -0.269 N 
ATOM     16  C8  UNL     1      12.438   4.165  21.232  0.00  0.00    +0.304 C 
ATOM     17  O1  UNL     1      11.943   3.299  20.459  0.00  0.00    -0.252 OA
ATOM     18  N2  UNL     1      11.670   5.318  21.602  0.00  0.00    -0.290 N 
ATOM     19  H6  UNL     1      14.210   4.841  22.205  0.00  0.00    +0.156 HD
ATOM     20  H7  UNL     1      12.110   6.014  22.245  0.00  0.00    +0.151 HD
BRANCH  15  29
ATOM     21  C1  UNL     1      15.747   3.992  19.552  0.00  0.00    +0.046 C 
ATOM     22  C2  UNL     1      15.554   2.816  20.472  0.00  0.00    -0.026 A 
ATOM     23  C3  UNL     1      16.357   1.674  20.309  0.00  0.00    +0.044 A 
ATOM     24  C4  UNL     1      16.198   0.569  21.150  0.00  0.00    +0.138 A 
ATOM     25  F1  UNL     1      16.974  -0.529  20.966  0.00  0.00    -0.204 F 
ATOM     26  C5  UNL     1      15.248   0.597  22.171  0.00  0.00    +0.055 A 
ATOM     27 BR1  UNL     1      15.030  -0.904  23.332  0.00  0.00    -0.047 Br
ATOM     28  C6  UNL     1      14.453   1.733  22.353  0.00  0.00    +0.041 A 
ATOM     29  C7  UNL     1      14.587   2.847  21.504  0.00  0.00    +0.039 A 
ENDBRANCH  15  29
ENDBRANCH   1  18
BRANCH   1  30
ATOM     30  C10 UNL     1       9.359   4.897  22.255  0.00  0.00    -0.024 A 
ATOM     31  C11 UNL     1       9.885   4.520  23.506  0.00  0.00    +0.005 A 
ATOM     32  C12 UNL     1       9.059   3.955  24.480  0.00  0.00    +0.000 A 
ATOM     33  C13 UNL     1       7.700   3.761  24.221  0.00  0.00    +0.000 A 
ATOM     34  C14 UNL     1       7.164   4.134  22.987  0.00  0.00    +0.000 A 
ATOM     35  C15 UNL     1       7.986   4.700  22.008  0.00  0.00    +0.005 A 
ENDBRANCH   1  30
TORSDOF 5
ENDMDL
MODEL 9
REMARK VINA RESULT:    -6.792     13.813     15.995
REMARK INTER + INTRA:          -9.203
REMARK INTER:                  -8.198
REMARK INTRA:                  -1.006
REMARK UNBOUND:                -0.625
REMARK  Name = /home/qwerty/github/datacon2025hack/step_04_hit_selection/docking/ligands/lig_18.pdb
REMARK  10 active torsions:
REMARK  status: ('A' for Active; 'I' for Inactive)
REMARK    1  A    between atoms: C1_1  and  C2_2
REMARK    2  A    between atoms: C7_9  and  N1_10
REMARK    3  A    between atoms: N2_13  and  C9_14
REMARK    4  A    between atoms: C9_14  and  C10_15
REMARK    5  A    between atoms: C9_14  and  C16_21
REMARK    6  A    between atoms: C16_21  and  O2_22
REMARK    7  A    between atoms: C18_24  and  C19_25
REMARK    8  A    between atoms: C18_24  and  C20_26
REMARK    9  A    between atoms: C21_28  and  C22_29
REMARK   10  A    between atoms: C21_28  and  C23_30
REMARK                            x       y       z     vdW  Elec       q    Type
REMARK                         _______ _______ _______ _____ _____    ______ ____
ROOT
ATOM      1  C9  UNL     1      17.619  12.733  34.321  0.00  0.00    +0.136 C 
ENDROOT
BRANCH   1   2
ATOM      2  C16 UNL     1      16.122  13.182  34.496  0.00  0.00    +0.092 C 
ATOM      3  C17 UNL     1      16.052  14.507  35.317  0.00  0.00    +0.058 C 
ATOM      4  C18 UNL     1      14.791  14.689  36.215  0.00  0.00    +0.017 C 
ATOM      5  C19 UNL     1      15.019  15.954  37.081  0.00  0.00    +0.027 C 
ATOM      6  C20 UNL     1      13.524  14.940  35.373  0.00  0.00    +0.027 C 
ATOM      7  N3  UNL     1      14.533  13.523  37.099  0.00  0.00    -0.306 NA
ATOM      8  C21 UNL     1      15.119  12.213  36.729  0.00  0.00    +0.017 C 
ATOM      9  C22 UNL     1      14.130  11.127  37.196  0.00  0.00    +0.027 C 
ATOM     10  C23 UNL     1      16.453  11.983  37.482  0.00  0.00    +0.027 C 
ATOM     11  C24 UNL     1      15.295  12.058  35.191  0.00  0.00    +0.058 C 
ATOM     12  H23 UNL     1      14.725  13.734  38.108  0.00  0.00    +0.123 HD
BRANCH   2  13
ATOM     13  O2  UNL     1      15.610  13.400  33.198  0.00  0.00    -0.386 OA
ATOM     14  H14 UNL     1      16.280  13.113  32.528  0.00  0.00    +0.210 HD
ENDBRANCH   2  13
ENDBRANCH   1   2
BRANCH   1  18
ATOM     15  N1  UNL     1      18.956   9.221  35.131  0.00  0.00    -0.269 N 
ATOM     16  C8  UNL     1      18.843  10.652  35.123  0.00  0.00    +0.304 C 
ATOM     17  O1  UNL     1      19.674  11.362  35.752  0.00  0.00    -0.252 OA
ATOM     18  N2  UNL     1      17.756  11.273  34.422  0.00  0.00    -0.290 N 
ATOM     19  H6  UNL     1      18.154   8.670  34.749  0.00  0.00    +0.156 HD
ATOM     20  H7  UNL     1      17.087  10.656  33.909  0.00  0.00    +0.151 HD
BRANCH  15  29
ATOM     21  C1  UNL     1      18.861   8.381  37.930  0.00  0.00    +0.046 C 
ATOM     22  C2  UNL     1      20.042   8.082  37.046  0.00  0.00    -0.026 A 
ATOM     23  C3  UNL     1      21.127   7.356  37.566  0.00  0.00    +0.044 A 
ATOM     24  C4  UNL     1      22.236   7.066  36.767  0.00  0.00    +0.138 A 
ATOM     25  F1  UNL     1      23.279   6.375  37.293  0.00  0.00    -0.204 F 
ATOM     26  C5  UNL     1      22.268   7.484  35.436  0.00  0.00    +0.055 A 
ATOM     27 BR1  UNL     1      23.775   7.084  34.332  0.00  0.00    -0.047 Br
ATOM     28  C6  UNL     1      21.189   8.195  34.902  0.00  0.00    +0.041 A 
ATOM     29  C7  UNL     1      20.073   8.512  35.698  0.00  0.00    +0.039 A 
ENDBRANCH  15  29
ENDBRANCH   1  18
BRANCH   1  30
ATOM     30  C10 UNL     1      18.216  13.201  33.003  0.00  0.00    -0.024 A 
ATOM     31  C11 UNL     1      18.369  12.296  31.935  0.00  0.00    +0.005 A 
ATOM     32  C12 UNL     1      18.933  12.714  30.727  0.00  0.00    +0.000 A 
ATOM     33  C13 UNL     1      19.350  14.038  30.569  0.00  0.00    +0.000 A 
ATOM     34  C14 UNL     1      19.199  14.948  31.618  0.00  0.00    +0.000 A 
ATOM     35  C15 UNL     1      18.635  14.535  32.829  0.00  0.00    +0.005 A 
ENDBRANCH   1  30
TORSDOF 5
ENDMDL
