MODEL 1
REMARK VINA RESULT:    -6.934      0.000      0.000
REMARK INTER + INTRA:         -10.842
REMARK INTER:                  -9.771
REMARK INTRA:                  -1.071
REMARK UNBOUND:                -1.071
REMARK  Name = /home/qwerty/github/datacon2025hack/step_04_hit_selection/docking/ligands/lig_617.pdb
REMARK  11 active torsions:
REMARK  status: ('A' for Active; 'I' for Inactive)
REMARK    1  A    between atoms: C1_1  and  C2_2
REMARK    2  A    between atoms: C2_2  and  C3_3
REMARK    3  A    between atoms: C2_2  and  C4_4
REMARK    4  A    between atoms: C8_8  and  O1_9
REMARK    5  A    between atoms: O1_9  and  C9_10
REMARK    6  A    between atoms: C9_10  and  C10_11
REMARK    7  A    between atoms: C9_10  and  C11_12
REMARK    8  A    between atoms: N1_14  and  C12_15
REMARK    9  A    between atoms: C12_15  and  C13_16
REMARK   10  A    between atoms: C12_15  and  C14_17
REMARK   11  A    between atoms: C18_21  and  N2_22
REMARK                            x       y       z     vdW  Elec       q    Type
REMARK                         _______ _______ _______ _____ _____    ______ ____
ROOT
ATOM      1  C11 UNL     1      10.896  13.801  29.754  0.00  0.00    +0.254 C 
ATOM      2  O2  UNL     1      11.095  14.360  28.640  0.00  0.00    -0.272 OA
ATOM      3  N1  UNL     1       9.563  13.469  30.168  0.00  0.00    -0.306 N 
ATOM      4  H15 UNL     1       9.414  13.114  31.140  0.00  0.00    +0.149 HD
ENDROOT
BRANCH   1   5
ATOM      5  C9  UNL     1      12.064  13.503  30.655  0.00  0.00    +0.255 C 
ATOM      6  C10 UNL     1      13.265  13.068  29.819  0.00  0.00    +0.062 C 
BRANCH   5   7
ATOM      7  O1  UNL     1      11.731  12.457  31.572  0.00  0.00    -0.480 OA
BRANCH   7  12
ATOM      8  C4  UNL     1      11.211  11.592  35.140  0.00  0.00    -0.041 A 
ATOM      9  C5  UNL     1      10.956  12.861  35.693  0.00  0.00    +0.004 A 
ATOM     10  C6  UNL     1      10.979  14.001  34.887  0.00  0.00    +0.004 A 
ATOM     11  C7  UNL     1      11.245  13.892  33.521  0.00  0.00    +0.046 A 
ATOM     12  C8  UNL     1      11.484  12.629  32.945  0.00  0.00    +0.122 A 
ATOM     13  C22 UNL     1      11.472  11.491  33.760  0.00  0.00    +0.049 A 
BRANCH   8  15
ATOM     14  C1  UNL     1      11.196  10.701  37.491  0.00  0.00    +0.012 C 
ATOM     15  C2  UNL     1      11.195  10.342  36.001  0.00  0.00    +0.013 C 
ATOM     16  C3  UNL     1      12.368   9.414  35.655  0.00  0.00    +0.012 C 
ENDBRANCH   8  15
ENDBRANCH   7  12
ENDBRANCH   5   7
ENDBRANCH   1   5
BRANCH   3  17
ATOM     17  C12 UNL     1       8.439  13.498  29.228  0.00  0.00    +0.100 C 
ATOM     18  C13 UNL     1       7.194  14.097  29.893  0.00  0.00    +0.033 C 
BRANCH  17  19
ATOM     19  C14 UNL     1       8.158  12.099  28.719  0.00  0.00    -0.026 A 
ATOM     20  C15 UNL     1       7.660  11.111  29.585  0.00  0.00    +0.005 A 
ATOM     21  C16 UNL     1       7.410   9.822  29.115  0.00  0.00    +0.002 A 
ATOM     22  C17 UNL     1       7.666   9.497  27.782  0.00  0.00    +0.026 A 
ATOM     23  C18 UNL     1       8.174  10.466  26.898  0.00  0.00    +0.049 A 
ATOM     24  C21 UNL     1       8.411  11.768  27.376  0.00  0.00    +0.031 A 
BRANCH  23  25
ATOM     25  N2  UNL     1       8.450  10.128  25.524  0.00  0.00    -0.288 N 
ATOM     26  C19 UNL     1       7.571   9.836  24.546  0.00  0.00    +0.229 A 
ATOM     27  N3  UNL     1       8.204   9.584  23.384  0.00  0.00    -0.138 NA
ATOM     28  N4  UNL     1       9.502   9.712  23.611  0.00  0.00    -0.138 NA
ATOM     29  C20 UNL     1       9.645  10.043  24.909  0.00  0.00    +0.229 A 
ENDBRANCH  23  25
ENDBRANCH  17  19
ENDBRANCH   3  17
TORSDOF 7
ENDMDL
MODEL 2
REMARK VINA RESULT:    -6.927     11.821     14.523
REMARK INTER + INTRA:         -10.833
REMARK INTER:                  -8.045
REMARK INTRA:                  -2.788
REMARK UNBOUND:                -1.071
REMARK  Name = /home/qwerty/github/datacon2025hack/step_04_hit_selection/docking/ligands/lig_617.pdb
REMARK  11 active torsions:
REMARK  status: ('A' for Active; 'I' for Inactive)
REMARK    1  A    between atoms: C1_1  and  C2_2
REMARK    2  A    between atoms: C2_2  and  C3_3
REMARK    3  A    between atoms: C2_2  and  C4_4
REMARK    4  A    between atoms: C8_8  and  O1_9
REMARK    5  A    between atoms: O1_9  and  C9_10
REMARK    6  A    between atoms: C9_10  and  C10_11
REMARK    7  A    between atoms: C9_10  and  C11_12
REMARK    8  A    between atoms: N1_14  and  C12_15
REMARK    9  A    between atoms: C12_15  and  C13_16
REMARK   10  A    between atoms: C12_15  and  C14_17
REMARK   11  A    between atoms: C18_21  and  N2_22
REMARK                            x       y       z     vdW  Elec       q    Type
REMARK                         _______ _______ _______ _____ _____    ______ ____
ROOT
ATOM      1  C11 UNL     1      20.842   8.899  36.042  0.00  0.00    +0.254 C 
ATOM      2  O2  UNL     1      19.800   8.210  36.222  0.00  0.00    -0.272 OA
ATOM      3  N1  UNL     1      22.135   8.328  36.286  0.00  0.00    -0.306 N 
ATOM      4  H15 UNL     1      22.975   8.951  36.242  0.00  0.00    +0.149 HD
ENDROOT
BRANCH   1   5
ATOM      5  C9  UNL     1      20.719  10.328  35.587  0.00  0.00    +0.255 C 
ATOM      6  C10 UNL     1      19.613  11.028  36.369  0.00  0.00    +0.062 C 
BRANCH   5   7
ATOM      7  O1  UNL     1      20.408  10.380  34.191  0.00  0.00    -0.480 OA
BRANCH   7  12
ATOM      8  C4  UNL     1      22.821   8.907  31.792  0.00  0.00    -0.041 A 
ATOM      9  C5  UNL     1      22.045   7.880  31.222  0.00  0.00    +0.004 A 
ATOM     10  C6  UNL     1      20.733   7.664  31.650  0.00  0.00    +0.004 A 
ATOM     11  C7  UNL     1      20.175   8.474  32.641  0.00  0.00    +0.046 A 
ATOM     12  C8  UNL     1      20.928   9.519  33.210  0.00  0.00    +0.122 A 
ATOM     13  C22 UNL     1      22.247   9.722  32.786  0.00  0.00    +0.049 A 
BRANCH   8  15
ATOM     14  C1  UNL     1      25.151   9.490  32.537  0.00  0.00    +0.012 C 
ATOM     15  C2  UNL     1      24.250   9.154  31.343  0.00  0.00    +0.013 C 
ATOM     16  C3  UNL     1      24.314  10.254  30.274  0.00  0.00    +0.012 C 
ENDBRANCH   8  15
ENDBRANCH   7  12
ENDBRANCH   5   7
ENDBRANCH   1   5
BRANCH   3  17
ATOM     17  C12 UNL     1      22.315   6.885  36.473  0.00  0.00    +0.100 C 
ATOM     18  C13 UNL     1      23.319   6.606  37.596  0.00  0.00    +0.033 C 
BRANCH  17  19
ATOM     19  C14 UNL     1      22.769   6.253  35.174  0.00  0.00    -0.026 A 
ATOM     20  C15 UNL     1      24.025   6.566  34.628  0.00  0.00    +0.005 A 
ATOM     21  C16 UNL     1      24.437   5.988  33.427  0.00  0.00    +0.002 A 
ATOM     22  C17 UNL     1      23.599   5.101  32.749  0.00  0.00    +0.026 A 
ATOM     23  C18 UNL     1      22.333   4.779  33.271  0.00  0.00    +0.049 A 
ATOM     24  C21 UNL     1      21.929   5.356  34.489  0.00  0.00    +0.031 A 
BRANCH  23  25
ATOM     25  N2  UNL     1      21.462   3.872  32.565  0.00  0.00    -0.288 N 
ATOM     26  C19 UNL     1      20.195   4.083  32.158  0.00  0.00    +0.229 A 
ATOM     27  N3  UNL     1      19.707   3.005  31.514  0.00  0.00    -0.138 NA
ATOM     28  N4  UNL     1      20.664   2.090  31.504  0.00  0.00    -0.138 NA
ATOM     29  C20 UNL     1      21.725   2.622  32.141  0.00  0.00    +0.229 A 
ENDBRANCH  23  25
ENDBRANCH  17  19
ENDBRANCH   3  17
TORSDOF 7
ENDMDL
MODEL 3
REMARK VINA RESULT:    -6.887      2.907      9.428
REMARK INTER + INTRA:         -10.775
REMARK INTER:                  -9.708
REMARK INTRA:                  -1.067
REMARK UNBOUND:                -1.071
REMARK  Name = /home/qwerty/github/datacon2025hack/step_04_hit_selection/docking/ligands/lig_617.pdb
REMARK  11 active torsions:
REMARK  status: ('A' for Active; 'I' for Inactive)
REMARK    1  A    between atoms: C1_1  and  C2_2
REMARK    2  A    between atoms: C2_2  and  C3_3
REMARK    3  A    between atoms: C2_2  and  C4_4
REMARK    4  A    between atoms: C8_8  and  O1_9
REMARK    5  A    between atoms: O1_9  and  C9_10
REMARK    6  A    between atoms: C9_10  and  C10_11
REMARK    7  A    between atoms: C9_10  and  C11_12
REMARK    8  A    between atoms: N1_14  and  C12_15
REMARK    9  A    between atoms: C12_15  and  C13_16
REMARK   10  A    between atoms: C12_15  and  C14_17
REMARK   11  A    between atoms: C18_21  and  N2_22
REMARK                            x       y       z     vdW  Elec       q    Type
REMARK                         _______ _______ _______ _____ _____    ______ ____
ROOT
ATOM      1  C11 UNL     1       8.201  10.587  27.442  0.00  0.00    +0.254 C 
ATOM      2  O2  UNL     1       7.551  10.321  28.491  0.00  0.00    -0.272 OA
ATOM      3  N1  UNL     1       8.448  11.950  27.072  0.00  0.00    -0.306 N 
ATOM      4  H15 UNL     1       8.888  12.146  26.143  0.00  0.00    +0.149 HD
ENDROOT
BRANCH   1   5
ATOM      5  C9  UNL     1       8.700   9.464  26.573  0.00  0.00    +0.255 C 
ATOM      6  C10 UNL     1       9.384   8.407  27.434  0.00  0.00    +0.062 C 
BRANCH   5   7
ATOM      7  O1  UNL     1       9.636   9.959  25.611  0.00  0.00    -0.480 OA
BRANCH   7  12
ATOM      8  C4  UNL     1      10.382  10.226  21.988  0.00  0.00    -0.041 A 
ATOM      9  C5  UNL     1       9.085  10.204  21.441  0.00  0.00    +0.004 A 
ATOM     10  C6  UNL     1       7.968  10.079  22.272  0.00  0.00    +0.004 A 
ATOM     11  C7  UNL     1       8.129   9.985  23.656  0.00  0.00    +0.046 A 
ATOM     12  C8  UNL     1       9.417  10.023  24.224  0.00  0.00    +0.122 A 
ATOM     13  C22 UNL     1      10.532  10.136  23.385  0.00  0.00    +0.049 A 
BRANCH   8  15
ATOM     14  C1  UNL     1      11.307   9.874  19.677  0.00  0.00    +0.012 C 
ATOM     15  C2  UNL     1      11.606  10.357  21.101  0.00  0.00    +0.013 C 
ATOM     16  C3  UNL     1      12.807   9.610  21.698  0.00  0.00    +0.012 C 
ENDBRANCH   8  15
ENDBRANCH   7  12
ENDBRANCH   5   7
ENDBRANCH   1   5
BRANCH   3  17
ATOM     17  C12 UNL     1       8.215  13.054  28.008  0.00  0.00    +0.100 C 
ATOM     18  C13 UNL     1       7.506  14.218  27.307  0.00  0.00    +0.033 C 
BRANCH  17  19
ATOM     19  C14 UNL     1       9.532  13.507  28.606  0.00  0.00    -0.026 A 
ATOM     20  C15 UNL     1      10.529  14.070  27.791  0.00  0.00    +0.005 A 
ATOM     21  C16 UNL     1      11.743  14.479  28.343  0.00  0.00    +0.002 A 
ATOM     22  C17 UNL     1      11.984  14.320  29.709  0.00  0.00    +0.026 A 
ATOM     23  C18 UNL     1      11.005  13.749  30.543  0.00  0.00    +0.049 A 
ATOM     24  C21 UNL     1       9.778  13.352  29.981  0.00  0.00    +0.031 A 
BRANCH  23  25
ATOM     25  N2  UNL     1      11.259  13.574  31.952  0.00  0.00    -0.288 N 
ATOM     26  C19 UNL     1      11.235  14.506  32.924  0.00  0.00    +0.229 A 
ATOM     27  N3  UNL     1      11.510  13.961  34.125  0.00  0.00    -0.138 NA
ATOM     28  N4  UNL     1      11.714  12.667  33.928  0.00  0.00    -0.138 NA
ATOM     29  C20 UNL     1      11.559  12.438  32.611  0.00  0.00    +0.229 A 
ENDBRANCH  23  25
ENDBRANCH  17  19
ENDBRANCH   3  17
TORSDOF 7
ENDMDL
MODEL 4
REMARK VINA RESULT:    -6.784     13.141     15.219
REMARK INTER + INTRA:         -10.630
REMARK INTER:                  -9.519
REMARK INTRA:                  -1.111
REMARK UNBOUND:                -1.071
REMARK  Name = /home/qwerty/github/datacon2025hack/step_04_hit_selection/docking/ligands/lig_617.pdb
REMARK  11 active torsions:
REMARK  status: ('A' for Active; 'I' for Inactive)
REMARK    1  A    between atoms: C1_1  and  C2_2
REMARK    2  A    between atoms: C2_2  and  C3_3
REMARK    3  A    between atoms: C2_2  and  C4_4
REMARK    4  A    between atoms: C8_8  and  O1_9
REMARK    5  A    between atoms: O1_9  and  C9_10
REMARK    6  A    between atoms: C9_10  and  C10_11
REMARK    7  A    between atoms: C9_10  and  C11_12
REMARK    8  A    between atoms: N1_14  and  C12_15
REMARK    9  A    between atoms: C12_15  and  C13_16
REMARK   10  A    between atoms: C12_15  and  C14_17
REMARK   11  A    between atoms: C18_21  and  N2_22
REMARK                            x       y       z     vdW  Elec       q    Type
REMARK                         _______ _______ _______ _____ _____    ______ ____
ROOT
ATOM      1  C11 UNL     1      21.581   1.949  31.463  0.00  0.00    +0.254 C 
ATOM      2  O2  UNL     1      20.918   0.882  31.578  0.00  0.00    -0.272 OA
ATOM      3  N1  UNL     1      22.661   2.030  30.523  0.00  0.00    -0.306 N 
ATOM      4  H15 UNL     1      23.268   2.883  30.527  0.00  0.00    +0.149 HD
ENDROOT
BRANCH   1   5
ATOM      5  C9  UNL     1      21.243   3.131  32.331  0.00  0.00    +0.255 C 
ATOM      6  C10 UNL     1      19.761   3.102  32.692  0.00  0.00    +0.062 C 
BRANCH   5   7
ATOM      7  O1  UNL     1      21.531   4.352  31.643  0.00  0.00    -0.480 OA
BRANCH   7  12
ATOM      8  C4  UNL     1      23.467   7.514  31.707  0.00  0.00    -0.041 A 
ATOM      9  C5  UNL     1      24.418   7.230  32.705  0.00  0.00    +0.004 A 
ATOM     10  C6  UNL     1      24.402   6.001  33.370  0.00  0.00    +0.004 A 
ATOM     11  C7  UNL     1      23.447   5.038  33.042  0.00  0.00    +0.046 A 
ATOM     12  C8  UNL     1      22.498   5.295  32.033  0.00  0.00    +0.122 A 
ATOM     13  C22 UNL     1      22.513   6.533  31.379  0.00  0.00    +0.049 A 
BRANCH   8  15
ATOM     14  C1  UNL     1      24.416   9.842  31.653  0.00  0.00    +0.012 C 
ATOM     15  C2  UNL     1      23.468   8.845  30.977  0.00  0.00    +0.013 C 
ATOM     16  C3  UNL     1      22.048   9.418  30.868  0.00  0.00    +0.012 C 
ENDBRANCH   8  15
ENDBRANCH   7  12
ENDBRANCH   5   7
ENDBRANCH   1   5
BRANCH   3  17
ATOM     17  C12 UNL     1      22.855   1.011  29.486  0.00  0.00    +0.100 C 
ATOM     18  C13 UNL     1      24.345   0.712  29.293  0.00  0.00    +0.033 C 
BRANCH  17  19
ATOM     19  C14 UNL     1      22.225   1.473  28.189  0.00  0.00    -0.026 A 
ATOM     20  C15 UNL     1      22.783   2.540  27.464  0.00  0.00    +0.005 A 
ATOM     21  C16 UNL     1      22.196   2.967  26.273  0.00  0.00    +0.002 A 
ATOM     22  C17 UNL     1      21.039   2.349  25.797  0.00  0.00    +0.026 A 
ATOM     23  C18 UNL     1      20.455   1.286  26.510  0.00  0.00    +0.049 A 
ATOM     24  C21 UNL     1      21.061   0.851  27.703  0.00  0.00    +0.031 A 
BRANCH  23  25
ATOM     25  N2  UNL     1      19.253   0.654  26.025  0.00  0.00    -0.288 N 
ATOM     26  C19 UNL     1      17.976   0.937  26.348  0.00  0.00    +0.229 A 
ATOM     27  N3  UNL     1      17.120   0.142  25.678  0.00  0.00    -0.138 NA
ATOM     28  N4  UNL     1      17.847  -0.662  24.917  0.00  0.00    -0.138 NA
ATOM     29  C20 UNL     1      19.138  -0.346  25.130  0.00  0.00    +0.229 A 
ENDBRANCH  23  25
ENDBRANCH  17  19
ENDBRANCH   3  17
TORSDOF 7
ENDMDL
MODEL 5
REMARK VINA RESULT:    -6.725     13.471     16.307
REMARK INTER + INTRA:         -10.547
REMARK INTER:                  -7.693
REMARK INTRA:                  -2.854
REMARK UNBOUND:                -1.071
REMARK  Name = /home/qwerty/github/datacon2025hack/step_04_hit_selection/docking/ligands/lig_617.pdb
REMARK  11 active torsions:
REMARK  status: ('A' for Active; 'I' for Inactive)
REMARK    1  A    between atoms: C1_1  and  C2_2
REMARK    2  A    between atoms: C2_2  and  C3_3
REMARK    3  A    between atoms: C2_2  and  C4_4
REMARK    4  A    between atoms: C8_8  and  O1_9
REMARK    5  A    between atoms: O1_9  and  C9_10
REMARK    6  A    between atoms: C9_10  and  C10_11
REMARK    7  A    between atoms: C9_10  and  C11_12
REMARK    8  A    between atoms: N1_14  and  C12_15
REMARK    9  A    between atoms: C12_15  and  C13_16
REMARK   10  A    between atoms: C12_15  and  C14_17
REMARK   11  A    between atoms: C18_21  and  N2_22
REMARK                            x       y       z     vdW  Elec       q    Type
REMARK                         _______ _______ _______ _____ _____    ______ ____
ROOT
ATOM      1  C11 UNL     1      21.574   9.233  20.767  0.00  0.00    +0.254 C 
ATOM      2  O2  UNL     1      21.180   9.083  21.956  0.00  0.00    -0.272 OA
ATOM      3  N1  UNL     1      20.722   9.859  19.797  0.00  0.00    -0.306 N 
ATOM      4  H15 UNL     1      21.023   9.868  18.795  0.00  0.00    +0.149 HD
ENDROOT
BRANCH   1   5
ATOM      5  C9  UNL     1      22.936   8.734  20.367  0.00  0.00    +0.255 C 
ATOM      6  C10 UNL     1      23.274   7.468  21.147  0.00  0.00    +0.062 C 
BRANCH   5   7
ATOM      7  O1  UNL     1      23.929   9.728  20.638  0.00  0.00    -0.480 OA
BRANCH   7  12
ATOM      8  C4  UNL     1      23.745  13.422  20.899  0.00  0.00    -0.041 A 
ATOM      9  C5  UNL     1      23.685  13.788  19.540  0.00  0.00    +0.004 A 
ATOM     10  C6  UNL     1      23.729  12.811  18.542  0.00  0.00    +0.004 A 
ATOM     11  C7  UNL     1      23.821  11.461  18.883  0.00  0.00    +0.046 A 
ATOM     12  C8  UNL     1      23.863  11.074  20.237  0.00  0.00    +0.122 A 
ATOM     13  C22 UNL     1      23.831  12.057  21.232  0.00  0.00    +0.049 A 
BRANCH   8  15
ATOM     14  C1  UNL     1      23.900  15.877  21.421  0.00  0.00    +0.012 C 
ATOM     15  C2  UNL     1      23.703  14.469  21.996  0.00  0.00    +0.013 C 
ATOM     16  C3  UNL     1      24.737  14.169  23.091  0.00  0.00    +0.012 C 
ENDBRANCH   8  15
ENDBRANCH   7  12
ENDBRANCH   5   7
ENDBRANCH   1   5
BRANCH   3  17
ATOM     17  C12 UNL     1      19.513  10.586  20.195  0.00  0.00    +0.100 C 
ATOM     18  C13 UNL     1      18.339  10.228  19.276  0.00  0.00    +0.033 C 
BRANCH  17  19
ATOM     19  C14 UNL     1      19.780  12.077  20.171  0.00  0.00    -0.026 A 
ATOM     20  C15 UNL     1      19.906  12.761  18.950  0.00  0.00    +0.005 A 
ATOM     21  C16 UNL     1      20.159  14.133  18.933  0.00  0.00    +0.002 A 
ATOM     22  C17 UNL     1      20.304  14.837  20.129  0.00  0.00    +0.026 A 
ATOM     23  C18 UNL     1      20.192  14.173  21.364  0.00  0.00    +0.049 A 
ATOM     24  C21 UNL     1      19.923  12.791  21.374  0.00  0.00    +0.031 A 
BRANCH  23  25
ATOM     25  N2  UNL     1      20.353  14.897  22.600  0.00  0.00    -0.288 N 
ATOM     26  C19 UNL     1      20.518  14.400  23.841  0.00  0.00    +0.229 A 
ATOM     27  N3  UNL     1      20.650  15.389  24.746  0.00  0.00    -0.138 NA
ATOM     28  N4  UNL     1      20.570  16.535  24.087  0.00  0.00    -0.138 NA
ATOM     29  C20 UNL     1      20.391  16.231  22.787  0.00  0.00    +0.229 A 
ENDBRANCH  23  25
ENDBRANCH  17  19
ENDBRANCH   3  17
TORSDOF 7
ENDMDL
MODEL 6
REMARK VINA RESULT:    -6.680      7.836     10.128
REMARK INTER + INTRA:         -10.484
REMARK INTER:                  -7.650
REMARK INTRA:                  -2.834
REMARK UNBOUND:                -1.071
REMARK  Name = /home/qwerty/github/datacon2025hack/step_04_hit_selection/docking/ligands/lig_617.pdb
REMARK  11 active torsions:
REMARK  status: ('A' for Active; 'I' for Inactive)
REMARK    1  A    between atoms: C1_1  and  C2_2
REMARK    2  A    between atoms: C2_2  and  C3_3
REMARK    3  A    between atoms: C2_2  and  C4_4
REMARK    4  A    between atoms: C8_8  and  O1_9
REMARK    5  A    between atoms: O1_9  and  C9_10
REMARK    6  A    between atoms: C9_10  and  C10_11
REMARK    7  A    between atoms: C9_10  and  C11_12
REMARK    8  A    between atoms: N1_14  and  C12_15
REMARK    9  A    between atoms: C12_15  and  C13_16
REMARK   10  A    between atoms: C12_15  and  C14_17
REMARK   11  A    between atoms: C18_21  and  N2_22
REMARK                            x       y       z     vdW  Elec       q    Type
REMARK                         _______ _______ _______ _____ _____    ______ ____
ROOT
ATOM      1  C11 UNL     1       8.268   8.480  21.437  0.00  0.00    +0.254 C 
ATOM      2  O2  UNL     1       9.206   8.342  20.603  0.00  0.00    -0.272 OA
ATOM      3  N1  UNL     1       7.160   7.570  21.434  0.00  0.00    -0.306 N 
ATOM      4  H15 UNL     1       6.343   7.772  22.055  0.00  0.00    +0.149 HD
ENDROOT
BRANCH   1   5
ATOM      5  C9  UNL     1       8.312   9.617  22.423  0.00  0.00    +0.255 C 
ATOM      6  C10 UNL     1       8.594  10.926  21.692  0.00  0.00    +0.062 C 
BRANCH   5   7
ATOM      7  O1  UNL     1       9.338   9.394  23.394  0.00  0.00    -0.480 OA
BRANCH   7  12
ATOM      8  C4  UNL     1       8.861   6.382  25.503  0.00  0.00    -0.041 A 
ATOM      9  C5  UNL     1      10.096   5.730  25.330  0.00  0.00    +0.004 A 
ATOM     10  C6  UNL     1      11.075   6.278  24.497  0.00  0.00    +0.004 A 
ATOM     11  C7  UNL     1      10.841   7.486  23.837  0.00  0.00    +0.046 A 
ATOM     12  C8  UNL     1       9.618   8.163  24.013  0.00  0.00    +0.122 A 
ATOM     13  C22 UNL     1       8.637   7.602  24.838  0.00  0.00    +0.049 A 
BRANCH   8  15
ATOM     14  C1  UNL     1       7.086   6.899  27.207  0.00  0.00    +0.012 C 
ATOM     15  C2  UNL     1       7.784   5.799  26.400  0.00  0.00    +0.013 C 
ATOM     16  C3  UNL     1       8.357   4.714  27.323  0.00  0.00    +0.012 C 
ENDBRANCH   8  15
ENDBRANCH   7  12
ENDBRANCH   5   7
ENDBRANCH   1   5
BRANCH   3  17
ATOM     17  C12 UNL     1       7.201   6.313  20.681  0.00  0.00    +0.100 C 
ATOM     18  C13 UNL     1       5.798   5.922  20.203  0.00  0.00    +0.033 C 
BRANCH  17  19
ATOM     19  C14 UNL     1       7.802   5.219  21.540  0.00  0.00    -0.026 A 
ATOM     20  C15 UNL     1       7.068   4.660  22.600  0.00  0.00    +0.005 A 
ATOM     21  C16 UNL     1       7.627   3.658  23.394  0.00  0.00    +0.002 A 
ATOM     22  C17 UNL     1       8.928   3.212  23.151  0.00  0.00    +0.026 A 
ATOM     23  C18 UNL     1       9.686   3.764  22.102  0.00  0.00    +0.049 A 
ATOM     24  C21 UNL     1       9.110   4.764  21.297  0.00  0.00    +0.031 A 
BRANCH  23  25
ATOM     25  N2  UNL     1      11.033   3.311  21.859  0.00  0.00    -0.288 N 
ATOM     26  C19 UNL     1      11.617   3.033  20.677  0.00  0.00    +0.229 A 
ATOM     27  N3  UNL     1      12.897   2.650  20.847  0.00  0.00    -0.138 NA
ATOM     28  N4  UNL     1      13.143   2.679  22.148  0.00  0.00    -0.138 NA
ATOM     29  C20 UNL     1      12.011   3.081  22.756  0.00  0.00    +0.229 A 
ENDBRANCH  23  25
ENDBRANCH  17  19
ENDBRANCH   3  17
TORSDOF 7
ENDMDL
MODEL 7
REMARK VINA RESULT:    -6.648     12.912     15.587
REMARK INTER + INTRA:         -10.438
REMARK INTER:                  -7.548
REMARK INTRA:                  -2.890
REMARK UNBOUND:                -1.071
REMARK  Name = /home/qwerty/github/datacon2025hack/step_04_hit_selection/docking/ligands/lig_617.pdb
REMARK  11 active torsions:
REMARK  status: ('A' for Active; 'I' for Inactive)
REMARK    1  A    between atoms: C1_1  and  C2_2
REMARK    2  A    between atoms: C2_2  and  C3_3
REMARK    3  A    between atoms: C2_2  and  C4_4
REMARK    4  A    between atoms: C8_8  and  O1_9
REMARK    5  A    between atoms: O1_9  and  C9_10
REMARK    6  A    between atoms: C9_10  and  C10_11
REMARK    7  A    between atoms: C9_10  and  C11_12
REMARK    8  A    between atoms: N1_14  and  C12_15
REMARK    9  A    between atoms: C12_15  and  C13_16
REMARK   10  A    between atoms: C12_15  and  C14_17
REMARK   11  A    between atoms: C18_21  and  N2_22
REMARK                            x       y       z     vdW  Elec       q    Type
REMARK                         _______ _______ _______ _____ _____    ______ ____
ROOT
ATOM      1  C11 UNL     1      21.817   2.119  26.968  0.00  0.00    +0.254 C 
ATOM      2  O2  UNL     1      22.880   2.787  27.105  0.00  0.00    -0.272 OA
ATOM      3  N1  UNL     1      21.621   0.913  27.719  0.00  0.00    -0.306 N 
ATOM      4  H15 UNL     1      20.788   0.318  27.504  0.00  0.00    +0.149 HD
ENDROOT
BRANCH   1   5
ATOM      5  C9  UNL     1      20.766   2.587  25.998  0.00  0.00    +0.255 C 
ATOM      6  C10 UNL     1      21.429   3.230  24.785  0.00  0.00    +0.062 C 
BRANCH   5   7
ATOM      7  O1  UNL     1      19.905   3.544  26.622  0.00  0.00    -0.480 OA
BRANCH   7  12
ATOM      8  C4  UNL     1      18.883   4.112  30.141  0.00  0.00    -0.041 A 
ATOM      9  C5  UNL     1      17.980   3.050  30.337  0.00  0.00    +0.004 A 
ATOM     10  C6  UNL     1      17.696   2.162  29.296  0.00  0.00    +0.004 A 
ATOM     11  C7  UNL     1      18.314   2.314  28.053  0.00  0.00    +0.046 A 
ATOM     12  C8  UNL     1      19.234   3.359  27.844  0.00  0.00    +0.122 A 
ATOM     13  C22 UNL     1      19.506   4.253  28.887  0.00  0.00    +0.049 A 
BRANCH   8  15
ATOM     14  C1  UNL     1      18.270   4.873  32.457  0.00  0.00    +0.012 C 
ATOM     15  C2  UNL     1      19.201   5.088  31.259  0.00  0.00    +0.013 C 
ATOM     16  C3  UNL     1      19.140   6.539  30.763  0.00  0.00    +0.012 C 
ENDBRANCH   8  15
ENDBRANCH   7  12
ENDBRANCH   5   7
ENDBRANCH   1   5
BRANCH   3  17
ATOM     17  C12 UNL     1      22.485   0.564  28.850  0.00  0.00    +0.100 C 
ATOM     18  C13 UNL     1      22.817  -0.932  28.837  0.00  0.00    +0.033 C 
BRANCH  17  19
ATOM     19  C14 UNL     1      21.812   0.955  30.150  0.00  0.00    -0.026 A 
ATOM     20  C15 UNL     1      20.724   0.215  30.641  0.00  0.00    +0.005 A 
ATOM     21  C16 UNL     1      20.101   0.582  31.834  0.00  0.00    +0.002 A 
ATOM     22  C17 UNL     1      20.545   1.699  32.545  0.00  0.00    +0.026 A 
ATOM     23  C18 UNL     1      21.627   2.462  32.068  0.00  0.00    +0.049 A 
ATOM     24  C21 UNL     1      22.258   2.077  30.870  0.00  0.00    +0.031 A 
BRANCH  23  25
ATOM     25  N2  UNL     1      22.078   3.622  32.795  0.00  0.00    -0.288 N 
ATOM     26  C19 UNL     1      21.597   4.118  33.952  0.00  0.00    +0.229 A 
ATOM     27  N3  UNL     1      22.286   5.211  34.334  0.00  0.00    -0.138 NA
ATOM     28  N4  UNL     1      23.218   5.425  33.418  0.00  0.00    -0.138 NA
ATOM     29  C20 UNL     1      23.088   4.459  32.489  0.00  0.00    +0.229 A 
ENDBRANCH  23  25
ENDBRANCH  17  19
ENDBRANCH   3  17
TORSDOF 7
ENDMDL
MODEL 8
REMARK VINA RESULT:    -6.626     12.976     15.498
REMARK INTER + INTRA:         -10.408
REMARK INTER:                  -7.474
REMARK INTRA:                  -2.935
REMARK UNBOUND:                -1.071
REMARK  Name = /home/qwerty/github/datacon2025hack/step_04_hit_selection/docking/ligands/lig_617.pdb
REMARK  11 active torsions:
REMARK  status: ('A' for Active; 'I' for Inactive)
REMARK    1  A    between atoms: C1_1  and  C2_2
REMARK    2  A    between atoms: C2_2  and  C3_3
REMARK    3  A    between atoms: C2_2  and  C4_4
REMARK    4  A    between atoms: C8_8  and  O1_9
REMARK    5  A    between atoms: O1_9  and  C9_10
REMARK    6  A    between atoms: C9_10  and  C10_11
REMARK    7  A    between atoms: C9_10  and  C11_12
REMARK    8  A    between atoms: N1_14  and  C12_15
REMARK    9  A    between atoms: C12_15  and  C13_16
REMARK   10  A    between atoms: C12_15  and  C14_17
REMARK   11  A    between atoms: C18_21  and  N2_22
REMARK                            x       y       z     vdW  Elec       q    Type
REMARK                         _______ _______ _______ _____ _____    ______ ____
ROOT
ATOM      1  C11 UNL     1      21.440   1.795  26.794  0.00  0.00    +0.254 C 
ATOM      2  O2  UNL     1      22.485   2.504  26.783  0.00  0.00    -0.272 OA
ATOM      3  N1  UNL     1      21.375   0.618  27.611  0.00  0.00    -0.306 N 
ATOM      4  H15 UNL     1      20.547  -0.013  27.516  0.00  0.00    +0.149 HD
ENDROOT
BRANCH   1   5
ATOM      5  C9  UNL     1      20.270   2.183  25.930  0.00  0.00    +0.255 C 
ATOM      6  C10 UNL     1      20.748   2.480  24.512  0.00  0.00    +0.062 C 
BRANCH   5   7
ATOM      7  O1  UNL     1      19.626   3.346  26.459  0.00  0.00    -0.480 OA
BRANCH   7  12
ATOM      8  C4  UNL     1      19.554   4.792  29.872  0.00  0.00    -0.041 A 
ATOM      9  C5  UNL     1      18.616   3.953  30.503  0.00  0.00    +0.004 A 
ATOM     10  C6  UNL     1      17.995   2.925  29.790  0.00  0.00    +0.004 A 
ATOM     11  C7  UNL     1      18.306   2.713  28.446  0.00  0.00    +0.046 A 
ATOM     12  C8  UNL     1      19.255   3.530  27.802  0.00  0.00    +0.122 A 
ATOM     13  C22 UNL     1      19.866   4.567  28.518  0.00  0.00    +0.049 A 
BRANCH   8  15
ATOM     14  C1  UNL     1      21.735   5.966  30.307  0.00  0.00    +0.012 C 
ATOM     15  C2  UNL     1      20.237   5.916  30.629  0.00  0.00    +0.013 C 
ATOM     16  C3  UNL     1      20.000   5.792  32.141  0.00  0.00    +0.012 C 
ENDBRANCH   8  15
ENDBRANCH   7  12
ENDBRANCH   5   7
ENDBRANCH   1   5
BRANCH   3  17
ATOM     17  C12 UNL     1      22.372   0.351  28.652  0.00  0.00    +0.100 C 
ATOM     18  C13 UNL     1      22.545  -1.158  28.860  0.00  0.00    +0.033 C 
BRANCH  17  19
ATOM     19  C14 UNL     1      21.962   1.030  29.942  0.00  0.00    -0.026 A 
ATOM     20  C15 UNL     1      22.721   2.092  30.463  0.00  0.00    +0.005 A 
ATOM     21  C16 UNL     1      22.345   2.710  31.656  0.00  0.00    +0.002 A 
ATOM     22  C17 UNL     1      21.217   2.269  32.351  0.00  0.00    +0.026 A 
ATOM     23  C18 UNL     1      20.447   1.201  31.855  0.00  0.00    +0.049 A 
ATOM     24  C21 UNL     1      20.825   0.592  30.645  0.00  0.00    +0.031 A 
BRANCH  23  25
ATOM     25  N2  UNL     1      19.290   0.738  32.580  0.00  0.00    -0.288 N 
ATOM     26  C19 UNL     1      18.601  -0.407  32.404  0.00  0.00    +0.229 A 
ATOM     27  N3  UNL     1      17.584  -0.500  33.283  0.00  0.00    -0.138 NA
ATOM     28  N4  UNL     1      17.614   0.592  34.031  0.00  0.00    -0.138 NA
ATOM     29  C20 UNL     1      18.650   1.337  33.602  0.00  0.00    +0.229 A 
ENDBRANCH  23  25
ENDBRANCH  17  19
ENDBRANCH   3  17
TORSDOF 7
ENDMDL
MODEL 9
REMARK VINA RESULT:    -6.597     12.890     15.160
REMARK INTER + INTRA:         -10.366
REMARK INTER:                  -9.336
REMARK INTRA:                  -1.030
REMARK UNBOUND:                -1.071
REMARK  Name = /home/qwerty/github/datacon2025hack/step_04_hit_selection/docking/ligands/lig_617.pdb
REMARK  11 active torsions:
REMARK  status: ('A' for Active; 'I' for Inactive)
REMARK    1  A    between atoms: C1_1  and  C2_2
REMARK    2  A    between atoms: C2_2  and  C3_3
REMARK    3  A    between atoms: C2_2  and  C4_4
REMARK    4  A    between atoms: C8_8  and  O1_9
REMARK    5  A    between atoms: O1_9  and  C9_10
REMARK    6  A    between atoms: C9_10  and  C10_11
REMARK    7  A    between atoms: C9_10  and  C11_12
REMARK    8  A    between atoms: N1_14  and  C12_15
REMARK    9  A    between atoms: C12_15  and  C13_16
REMARK   10  A    between atoms: C12_15  and  C14_17
REMARK   11  A    between atoms: C18_21  and  N2_22
REMARK                            x       y       z     vdW  Elec       q    Type
REMARK                         _______ _______ _______ _____ _____    ______ ____
ROOT
ATOM      1  C11 UNL     1      16.989   0.058  26.005  0.00  0.00    +0.254 C 
ATOM      2  O2  UNL     1      16.129  -0.581  26.672  0.00  0.00    -0.272 OA
ATOM      3  N1  UNL     1      17.299  -0.337  24.661  0.00  0.00    -0.306 N 
ATOM      4  H15 UNL     1      18.094   0.133  24.171  0.00  0.00    +0.149 HD
ENDROOT
BRANCH   1   5
ATOM      5  C9  UNL     1      17.702   1.224  26.635  0.00  0.00    +0.255 C 
ATOM      6  C10 UNL     1      16.758   2.418  26.732  0.00  0.00    +0.062 C 
BRANCH   5   7
ATOM      7  O1  UNL     1      18.841   1.592  25.852  0.00  0.00    -0.480 OA
BRANCH   7  12
ATOM      8  C4  UNL     1      21.817   1.207  28.031  0.00  0.00    -0.041 A 
ATOM      9  C5  UNL     1      22.703   2.132  27.447  0.00  0.00    +0.004 A 
ATOM     10  C6  UNL     1      22.320   2.865  26.321  0.00  0.00    +0.004 A 
ATOM     11  C7  UNL     1      21.049   2.693  25.769  0.00  0.00    +0.046 A 
ATOM     12  C8  UNL     1      20.142   1.786  26.349  0.00  0.00    +0.122 A 
ATOM     13  C22 UNL     1      20.536   1.046  27.470  0.00  0.00    +0.049 A 
BRANCH   8  15
ATOM     14  C1  UNL     1      22.672  -1.010  28.853  0.00  0.00    +0.012 C 
ATOM     15  C2  UNL     1      22.216   0.399  29.251  0.00  0.00    +0.013 C 
ATOM     16  C3  UNL     1      21.077   0.342  30.278  0.00  0.00    +0.012 C 
ENDBRANCH   8  15
ENDBRANCH   7  12
ENDBRANCH   5   7
ENDBRANCH   1   5
BRANCH   3  17
ATOM     17  C12 UNL     1      16.456  -1.284  23.926  0.00  0.00    +0.100 C 
ATOM     18  C13 UNL     1      17.071  -2.688  23.952  0.00  0.00    +0.033 C 
BRANCH  17  19
ATOM     19  C14 UNL     1      16.266  -0.805  22.502  0.00  0.00    -0.026 A 
ATOM     20  C15 UNL     1      16.980  -1.399  21.448  0.00  0.00    +0.005 A 
ATOM     21  C16 UNL     1      16.808  -0.950  20.138  0.00  0.00    +0.002 A 
ATOM     22  C17 UNL     1      15.935   0.105  19.864  0.00  0.00    +0.026 A 
ATOM     23  C18 UNL     1      15.217   0.722  20.905  0.00  0.00    +0.049 A 
ATOM     24  C21 UNL     1      15.385   0.255  22.221  0.00  0.00    +0.031 A 
BRANCH  23  25
ATOM     25  N2  UNL     1      14.325   1.819  20.624  0.00  0.00    -0.288 N 
ATOM     26  C19 UNL     1      13.028   1.946  20.967  0.00  0.00    +0.229 A 
ATOM     27  N3  UNL     1      12.527   3.122  20.541  0.00  0.00    -0.138 NA
ATOM     28  N4  UNL     1      13.505   3.760  19.916  0.00  0.00    -0.138 NA
ATOM     29  C20 UNL     1      14.592   2.967  19.971  0.00  0.00    +0.229 A 
ENDBRANCH  23  25
ENDBRANCH  17  19
ENDBRANCH   3  17
TORSDOF 7
ENDMDL
