MODEL 1
REMARK VINA RESULT:    -7.449      0.000      0.000
REMARK INTER + INTRA:          -8.774
REMARK INTER:                  -8.320
REMARK INTRA:                  -0.454
REMARK UNBOUND:                -0.454
REMARK  Name = /home/qwerty/github/datacon2025hack/step_04_hit_selection/docking/ligands/lig_653.pdb
REMARK  2 active torsions:
REMARK  status: ('A' for Active; 'I' for Inactive)
REMARK    1  A    between atoms: C1_2  and  C2_3
REMARK    2  A    between atoms: C2_3  and  C3_4
REMARK                            x       y       z     vdW  Elec       q    Type
REMARK                         _______ _______ _______ _____ _____    ______ ____
ROOT
ATOM      1  O1  UNL     1      23.885   1.396  30.027  0.00  0.00    -0.275 OA
ATOM      2  C1  UNL     1      22.664   1.149  29.822  0.00  0.00    +0.220 C 
ATOM      3  N1  UNL     1      21.695   1.489  30.834  0.00  0.00    -0.298 N 
ATOM      4  C12 UNL     1      20.438   0.735  30.971  0.00  0.00    +0.127 C 
ATOM      5  C13 UNL     1      20.122   0.486  32.449  0.00  0.00    +0.127 C 
ATOM      6  N2  UNL     1      20.327   1.718  33.202  0.00  0.00    -0.287 N 
ATOM      7  C14 UNL     1      19.326   2.487  33.863  0.00  0.00    +0.248 C 
ATOM      8  O3  UNL     1      18.151   2.091  34.084  0.00  0.00    -0.270 OA
ATOM      9  C15 UNL     1      19.863   3.778  34.214  0.00  0.00    +0.043 A 
ATOM     10  C16 UNL     1      19.276   4.853  34.876  0.00  0.00    +0.028 A 
ATOM     11  C17 UNL     1      20.052   6.008  35.081  0.00  0.00    +0.019 A 
ATOM     12 BR1  UNL     1      19.297   7.513  35.979  0.00  0.00    -0.050 Br
ATOM     13  C18 UNL     1      21.387   6.056  34.624  0.00  0.00    +0.015 A 
ATOM     14  C19 UNL     1      21.952   4.956  33.957  0.00  0.00    +0.007 A 
ATOM     15  C20 UNL     1      21.165   3.820  33.757  0.00  0.00    -0.013 A 
ATOM     16  C21 UNL     1      21.537   2.535  33.061  0.00  0.00    +0.125 C 
ATOM     17  C22 UNL     1      21.831   2.756  31.571  0.00  0.00    +0.135 C 
ENDROOT
BRANCH   2  18
ATOM     18  C2  UNL     1      22.255   0.464  28.544  0.00  0.00    +0.131 C 
BRANCH  18  19
ATOM     19  C3  UNL     1      21.735   1.454  27.535  0.00  0.00    -0.038 A 
ATOM     20  C4  UNL     1      20.435   1.321  27.022  0.00  0.00    +0.008 A 
ATOM     21  C5  UNL     1      19.934   2.261  26.117  0.00  0.00    +0.046 A 
ATOM     22  C6  UNL     1      20.722   3.346  25.721  0.00  0.00    +0.124 A 
ATOM     23  C7  UNL     1      22.033   3.482  26.218  0.00  0.00    -0.005 A 
ATOM     24  C8  UNL     1      22.525   2.547  27.140  0.00  0.00    +0.011 A 
ATOM     25  C9  UNL     1      22.874   4.667  25.814  0.00  0.00    +0.042 C 
ATOM     26  C10 UNL     1      22.404   5.265  24.481  0.00  0.00    +0.046 C 
ATOM     27  C11 UNL     1      20.891   5.496  24.509  0.00  0.00    +0.229 C 
ATOM     28  O2  UNL     1      20.209   4.279  24.813  0.00  0.00    -0.492 OA
ENDBRANCH  18  19
ENDBRANCH   2  18
TORSDOF 2
ENDMDL
MODEL 2
REMARK VINA RESULT:    -7.200      3.659      8.590
REMARK INTER + INTRA:          -8.496
REMARK INTER:                  -8.009
REMARK INTRA:                  -0.487
REMARK UNBOUND:                -0.454
REMARK  Name = /home/qwerty/github/datacon2025hack/step_04_hit_selection/docking/ligands/lig_653.pdb
REMARK  2 active torsions:
REMARK  status: ('A' for Active; 'I' for Inactive)
REMARK    1  A    between atoms: C1_2  and  C2_3
REMARK    2  A    between atoms: C2_3  and  C3_4
REMARK                            x       y       z     vdW  Elec       q    Type
REMARK                         _______ _______ _______ _____ _____    ______ ____
ROOT
ATOM      1  O1  UNL     1      22.266  -0.657  28.259  0.00  0.00    -0.275 OA
ATOM      2  C1  UNL     1      22.240   0.588  28.466  0.00  0.00    +0.220 C 
ATOM      3  N1  UNL     1      21.705   1.462  27.452  0.00  0.00    -0.298 N 
ATOM      4  C12 UNL     1      22.169   2.853  27.321  0.00  0.00    +0.127 C 
ATOM      5  C13 UNL     1      22.354   3.218  25.845  0.00  0.00    +0.127 C 
ATOM      6  N2  UNL     1      21.202   2.751  25.082  0.00  0.00    -0.287 N 
ATOM      7  C14 UNL     1      20.239   3.563  24.416  0.00  0.00    +0.248 C 
ATOM      8  O3  UNL     1      20.371   4.797  24.198  0.00  0.00    -0.270 OA
ATOM      9  C15 UNL     1      19.098   2.758  24.055  0.00  0.00    +0.043 A 
ATOM     10  C16 UNL     1      17.926   3.099  23.384  0.00  0.00    +0.028 A 
ATOM     11  C17 UNL     1      16.970   2.090  23.170  0.00  0.00    +0.019 A 
ATOM     12 BR1  UNL     1      15.343   2.501  22.260  0.00  0.00    -0.050 Br
ATOM     13  C18 UNL     1      17.209   0.776  23.627  0.00  0.00    +0.015 A 
ATOM     14  C19 UNL     1      18.401   0.462  24.302  0.00  0.00    +0.007 A 
ATOM     15  C20 UNL     1      19.336   1.478  24.511  0.00  0.00    -0.013 A 
ATOM     16  C21 UNL     1      20.666   1.393  25.217  0.00  0.00    +0.125 C 
ATOM     17  C22 UNL     1      20.504   1.055  26.705  0.00  0.00    +0.135 C 
ENDROOT
BRANCH   2  18
ATOM     18  C2  UNL     1      22.810   1.135  29.750  0.00  0.00    +0.131 C 
BRANCH  18  19
ATOM     19  C3  UNL     1      21.718   1.511  30.716  0.00  0.00    -0.038 A 
ATOM     20  C4  UNL     1      21.665   2.809  31.248  0.00  0.00    +0.008 A 
ATOM     21  C5  UNL     1      20.630   3.176  32.113  0.00  0.00    +0.046 A 
ATOM     22  C6  UNL     1      19.635   2.253  32.449  0.00  0.00    +0.124 A 
ATOM     23  C7  UNL     1      19.685   0.944  31.933  0.00  0.00    -0.005 A 
ATOM     24  C8  UNL     1      20.714   0.586  31.051  0.00  0.00    +0.011 A 
ATOM     25  C9  UNL     1      18.596  -0.044  32.272  0.00  0.00    +0.042 C 
ATOM     26  C10 UNL     1      17.885   0.327  33.580  0.00  0.00    +0.046 C 
ATOM     27  C11 UNL     1      17.469   1.799  33.557  0.00  0.00    +0.229 C 
ATOM     28  O2  UNL     1      18.605   2.632  33.318  0.00  0.00    -0.492 OA
ENDBRANCH  18  19
ENDBRANCH   2  18
TORSDOF 2
ENDMDL
MODEL 3
REMARK VINA RESULT:    -7.188     13.334     14.878
REMARK INTER + INTRA:          -8.483
REMARK INTER:                  -8.161
REMARK INTRA:                  -0.322
REMARK UNBOUND:                -0.454
REMARK  Name = /home/qwerty/github/datacon2025hack/step_04_hit_selection/docking/ligands/lig_653.pdb
REMARK  2 active torsions:
REMARK  status: ('A' for Active; 'I' for Inactive)
REMARK    1  A    between atoms: C1_2  and  C2_3
REMARK    2  A    between atoms: C2_3  and  C3_4
REMARK                            x       y       z     vdW  Elec       q    Type
REMARK                         _______ _______ _______ _____ _____    ______ ____
ROOT
ATOM      1  O1  UNL     1       7.934  13.937  29.772  0.00  0.00    -0.275 OA
ATOM      2  C1  UNL     1       8.917  13.464  29.138  0.00  0.00    +0.220 C 
ATOM      3  N1  UNL     1      10.235  13.541  29.717  0.00  0.00    -0.298 N 
ATOM      4  C12 UNL     1      11.439  13.599  28.872  0.00  0.00    +0.127 C 
ATOM      5  C13 UNL     1      12.436  14.617  29.431  0.00  0.00    +0.127 C 
ATOM      6  N2  UNL     1      12.558  14.434  30.873  0.00  0.00    -0.287 N 
ATOM      7  C14 UNL     1      13.715  13.994  31.579  0.00  0.00    +0.248 C 
ATOM      8  O3  UNL     1      14.870  13.918  31.082  0.00  0.00    -0.270 OA
ATOM      9  C15 UNL     1      13.350  13.638  32.928  0.00  0.00    +0.043 A 
ATOM     10  C16 UNL     1      14.130  13.175  33.984  0.00  0.00    +0.028 A 
ATOM     11  C17 UNL     1      13.492  12.903  35.208  0.00  0.00    +0.019 A 
ATOM     12 BR1  UNL     1      14.511  12.261  36.688  0.00  0.00    -0.050 Br
ATOM     13  C18 UNL     1      12.100  13.102  35.343  0.00  0.00    +0.015 A 
ATOM     14  C19 UNL     1      11.339  13.570  34.258  0.00  0.00    +0.007 A 
ATOM     15  C20 UNL     1      11.988  13.829  33.050  0.00  0.00    -0.013 A 
ATOM     16  C21 UNL     1      11.391  14.315  31.753  0.00  0.00    +0.125 C 
ATOM     17  C22 UNL     1      10.408  13.297  31.159  0.00  0.00    +0.135 C 
ENDROOT
BRANCH   2  18
ATOM     18  C2  UNL     1       8.696  12.871  27.770  0.00  0.00    +0.131 C 
BRANCH  18  19
ATOM     19  C3  UNL     1       8.316  11.416  27.860  0.00  0.00    -0.038 A 
ATOM     20  C4  UNL     1       8.178  10.651  26.690  0.00  0.00    +0.008 A 
ATOM     21  C5  UNL     1       7.866   9.292  26.770  0.00  0.00    +0.046 A 
ATOM     22  C6  UNL     1       7.696   8.681  28.016  0.00  0.00    +0.124 A 
ATOM     23  C7  UNL     1       7.817   9.441  29.195  0.00  0.00    -0.005 A 
ATOM     24  C8  UNL     1       8.149  10.801  29.112  0.00  0.00    +0.011 A 
ATOM     25  C9  UNL     1       7.662   8.777  30.541  0.00  0.00    +0.042 C 
ATOM     26  C10 UNL     1       6.835   7.488  30.443  0.00  0.00    +0.046 C 
ATOM     27  C11 UNL     1       7.371   6.601  29.317  0.00  0.00    +0.229 C 
ATOM     28  O2  UNL     1       7.381   7.318  28.082  0.00  0.00    -0.492 OA
ENDBRANCH  18  19
ENDBRANCH   2  18
TORSDOF 2
ENDMDL
MODEL 4
REMARK VINA RESULT:    -7.131     13.629     15.719
REMARK INTER + INTRA:          -8.419
REMARK INTER:                  -8.029
REMARK INTRA:                  -0.390
REMARK UNBOUND:                -0.454
REMARK  Name = /home/qwerty/github/datacon2025hack/step_04_hit_selection/docking/ligands/lig_653.pdb
REMARK  2 active torsions:
REMARK  status: ('A' for Active; 'I' for Inactive)
REMARK    1  A    between atoms: C1_2  and  C2_3
REMARK    2  A    between atoms: C2_3  and  C3_4
REMARK                            x       y       z     vdW  Elec       q    Type
REMARK                         _______ _______ _______ _____ _____    ______ ____
ROOT
ATOM      1  O1  UNL     1       7.709  13.609  27.360  0.00  0.00    -0.275 OA
ATOM      2  C1  UNL     1       8.200  12.889  28.274  0.00  0.00    +0.220 C 
ATOM      3  N1  UNL     1       8.184  11.455  28.129  0.00  0.00    -0.298 N 
ATOM      4  C12 UNL     1       8.146  10.570  29.305  0.00  0.00    +0.127 C 
ATOM      5  C13 UNL     1       7.179   9.407  29.067  0.00  0.00    +0.127 C 
ATOM      6  N2  UNL     1       7.403   8.854  27.737  0.00  0.00    -0.287 N 
ATOM      7  C14 UNL     1       7.902   7.555  27.430  0.00  0.00    +0.248 C 
ATOM      8  O3  UNL     1       8.005   6.614  28.261  0.00  0.00    -0.270 OA
ATOM      9  C15 UNL     1       8.280   7.501  26.039  0.00  0.00    +0.043 A 
ATOM     10  C16 UNL     1       8.798   6.453  25.282  0.00  0.00    +0.028 A 
ATOM     11  C17 UNL     1       9.080   6.693  23.926  0.00  0.00    +0.019 A 
ATOM     12 BR1  UNL     1       9.795   5.294  22.842  0.00  0.00    -0.050 Br
ATOM     13  C18 UNL     1       8.835   7.965  23.364  0.00  0.00    +0.015 A 
ATOM     14  C19 UNL     1       8.313   9.004  24.153  0.00  0.00    +0.007 A 
ATOM     15  C20 UNL     1       8.045   8.749  25.499  0.00  0.00    -0.013 A 
ATOM     16  C21 UNL     1       7.505   9.696  26.541  0.00  0.00    +0.125 C 
ATOM     17  C22 UNL     1       8.471  10.857  26.816  0.00  0.00    +0.135 C 
ENDROOT
BRANCH   2  18
ATOM     18  C2  UNL     1       8.748  13.546  29.515  0.00  0.00    +0.131 C 
BRANCH  18  19
ATOM     19  C3  UNL     1      10.239  13.735  29.419  0.00  0.00    -0.038 A 
ATOM     20  C4  UNL     1      11.051  13.510  30.543  0.00  0.00    +0.008 A 
ATOM     21  C5  UNL     1      12.439  13.644  30.448  0.00  0.00    +0.046 A 
ATOM     22  C6  UNL     1      13.030  13.997  29.232  0.00  0.00    +0.124 A 
ATOM     23  C7  UNL     1      12.225  14.239  28.102  0.00  0.00    -0.005 A 
ATOM     24  C8  UNL     1      10.835  14.086  28.196  0.00  0.00    +0.011 A 
ATOM     25  C9  UNL     1      12.864  14.593  26.781  0.00  0.00    +0.042 C 
ATOM     26  C10 UNL     1      14.263  15.195  26.973  0.00  0.00    +0.046 C 
ATOM     27  C11 UNL     1      15.095  14.311  27.905  0.00  0.00    +0.229 C 
ATOM     28  O2  UNL     1      14.421  14.130  29.151  0.00  0.00    -0.492 OA
ENDBRANCH  18  19
ENDBRANCH   2  18
TORSDOF 2
ENDMDL
MODEL 5
REMARK VINA RESULT:    -7.080      7.527     12.081
REMARK INTER + INTRA:          -8.362
REMARK INTER:                  -8.147
REMARK INTRA:                  -0.215
REMARK UNBOUND:                -0.454
REMARK  Name = /home/qwerty/github/datacon2025hack/step_04_hit_selection/docking/ligands/lig_653.pdb
REMARK  2 active torsions:
REMARK  status: ('A' for Active; 'I' for Inactive)
REMARK    1  A    between atoms: C1_2  and  C2_3
REMARK    2  A    between atoms: C2_3  and  C3_4
REMARK                            x       y       z     vdW  Elec       q    Type
REMARK                         _______ _______ _______ _____ _____    ______ ____
ROOT
ATOM      1  O1  UNL     1      17.021  11.349  34.683  0.00  0.00    -0.275 OA
ATOM      2  C1  UNL     1      17.571  11.412  35.817  0.00  0.00    +0.220 C 
ATOM      3  N1  UNL     1      18.525  10.401  36.197  0.00  0.00    -0.298 N 
ATOM      4  C12 UNL     1      18.733  10.038  37.609  0.00  0.00    +0.127 C 
ATOM      5  C13 UNL     1      18.864   8.520  37.757  0.00  0.00    +0.127 C 
ATOM      6  N2  UNL     1      19.760   8.008  36.727  0.00  0.00    -0.287 N 
ATOM      7  C14 UNL     1      21.039   7.414  36.932  0.00  0.00    +0.248 C 
ATOM      8  O3  UNL     1      21.481   7.036  38.050  0.00  0.00    -0.270 OA
ATOM      9  C15 UNL     1      21.740   7.333  35.675  0.00  0.00    +0.043 A 
ATOM     10  C16 UNL     1      23.000   6.822  35.372  0.00  0.00    +0.028 A 
ATOM     11  C17 UNL     1      23.433   6.879  34.035  0.00  0.00    +0.019 A 
ATOM     12 BR1  UNL     1      25.152   6.197  33.563  0.00  0.00    -0.050 Br
ATOM     13  C18 UNL     1      22.600   7.441  33.042  0.00  0.00    +0.015 A 
ATOM     14  C19 UNL     1      21.335   7.951  33.379  0.00  0.00    +0.007 A 
ATOM     15  C20 UNL     1      20.924   7.890  34.712  0.00  0.00    -0.013 A 
ATOM     16  C21 UNL     1      19.632   8.382  35.315  0.00  0.00    +0.125 C 
ATOM     17  C22 UNL     1      19.491   9.906  35.202  0.00  0.00    +0.135 C 
ENDROOT
BRANCH   2  18
ATOM     18  C2  UNL     1      17.181  12.517  36.764  0.00  0.00    +0.131 C 
BRANCH  18  19
ATOM     19  C3  UNL     1      15.752  12.943  36.548  0.00  0.00    -0.038 A 
ATOM     20  C4  UNL     1      15.470  14.196  35.981  0.00  0.00    +0.008 A 
ATOM     21  C5  UNL     1      14.148  14.580  35.741  0.00  0.00    +0.046 A 
ATOM     22  C6  UNL     1      13.096  13.714  36.056  0.00  0.00    +0.124 A 
ATOM     23  C7  UNL     1      13.366  12.460  36.637  0.00  0.00    -0.005 A 
ATOM     24  C8  UNL     1      14.695  12.072  36.860  0.00  0.00    +0.011 A 
ATOM     25  C9  UNL     1      12.235  11.514  36.952  0.00  0.00    +0.042 C 
ATOM     26  C10 UNL     1      10.905  12.261  37.122  0.00  0.00    +0.046 C 
ATOM     27  C11 UNL     1      10.676  13.209  35.943  0.00  0.00    +0.229 C 
ATOM     28  O2  UNL     1      11.776  14.111  35.812  0.00  0.00    -0.492 OA
ENDBRANCH  18  19
ENDBRANCH   2  18
TORSDOF 2
ENDMDL
MODEL 6
REMARK VINA RESULT:    -6.934     12.817     15.687
REMARK INTER + INTRA:          -8.199
REMARK INTER:                  -7.935
REMARK INTRA:                  -0.264
REMARK UNBOUND:                -0.454
REMARK  Name = /home/qwerty/github/datacon2025hack/step_04_hit_selection/docking/ligands/lig_653.pdb
REMARK  2 active torsions:
REMARK  status: ('A' for Active; 'I' for Inactive)
REMARK    1  A    between atoms: C1_2  and  C2_3
REMARK    2  A    between atoms: C2_3  and  C3_4
REMARK                            x       y       z     vdW  Elec       q    Type
REMARK                         _______ _______ _______ _____ _____    ______ ____
ROOT
ATOM      1  O1  UNL     1       9.087   8.967  20.655  0.00  0.00    -0.275 OA
ATOM      2  C1  UNL     1       8.777   8.217  21.622  0.00  0.00    +0.220 C 
ATOM      3  N1  UNL     1       9.217   6.845  21.623  0.00  0.00    -0.298 N 
ATOM      4  C12 UNL     1       8.449   5.796  22.313  0.00  0.00    +0.127 C 
ATOM      5  C13 UNL     1       8.391   4.526  21.460  0.00  0.00    +0.127 C 
ATOM      6  N2  UNL     1       9.718   4.237  20.930  0.00  0.00    -0.287 N 
ATOM      7  C14 UNL     1      10.536   3.116  21.253  0.00  0.00    +0.248 C 
ATOM      8  O3  UNL     1      10.135   2.092  21.869  0.00  0.00    -0.270 OA
ATOM      9  C15 UNL     1      11.879   3.348  20.783  0.00  0.00    +0.043 A 
ATOM     10  C16 UNL     1      13.014   2.544  20.851  0.00  0.00    +0.028 A 
ATOM     11  C17 UNL     1      14.210   3.039  20.301  0.00  0.00    +0.019 A 
ATOM     12 BR1  UNL     1      15.797   1.981  20.371  0.00  0.00    -0.050 Br
ATOM     13  C18 UNL     1      14.239   4.316  19.700  0.00  0.00    +0.015 A 
ATOM     14  C19 UNL     1      13.078   5.106  19.647  0.00  0.00    +0.007 A 
ATOM     15  C20 UNL     1      11.902   4.600  20.203  0.00  0.00    -0.013 A 
ATOM     16  C21 UNL     1      10.548   5.259  20.283  0.00  0.00    +0.125 C 
ATOM     17  C22 UNL     1      10.575   6.520  21.157  0.00  0.00    +0.135 C 
ENDROOT
BRANCH   2  18
ATOM     18  C2  UNL     1       7.913   8.763  22.730  0.00  0.00    +0.131 C 
BRANCH  18  19
ATOM     19  C3  UNL     1       8.749   9.388  23.817  0.00  0.00    -0.038 A 
ATOM     20  C4  UNL     1      10.123   9.593  23.617  0.00  0.00    +0.008 A 
ATOM     21  C5  UNL     1      10.895  10.210  24.606  0.00  0.00    +0.046 A 
ATOM     22  C6  UNL     1      10.302  10.634  25.798  0.00  0.00    +0.124 A 
ATOM     23  C7  UNL     1       8.927  10.422  26.015  0.00  0.00    -0.005 A 
ATOM     24  C8  UNL     1       8.152   9.819  25.013  0.00  0.00    +0.011 A 
ATOM     25  C9  UNL     1       8.279  10.905  27.289  0.00  0.00    +0.042 C 
ATOM     26  C10 UNL     1       9.305  11.057  28.421  0.00  0.00    +0.046 C 
ATOM     27  C11 UNL     1      10.512  11.862  27.936  0.00  0.00    +0.229 C 
ATOM     28  O2  UNL     1      11.086  11.249  26.781  0.00  0.00    -0.492 OA
ENDBRANCH  18  19
ENDBRANCH   2  18
TORSDOF 2
ENDMDL
MODEL 7
REMARK VINA RESULT:    -6.794     11.414     13.549
REMARK INTER + INTRA:          -8.043
REMARK INTER:                  -7.616
REMARK INTRA:                  -0.427
REMARK UNBOUND:                -0.454
REMARK  Name = /home/qwerty/github/datacon2025hack/step_04_hit_selection/docking/ligands/lig_653.pdb
REMARK  2 active torsions:
REMARK  status: ('A' for Active; 'I' for Inactive)
REMARK    1  A    between atoms: C1_2  and  C2_3
REMARK    2  A    between atoms: C2_3  and  C3_4
REMARK                            x       y       z     vdW  Elec       q    Type
REMARK                         _______ _______ _______ _____ _____    ______ ____
ROOT
ATOM      1  O1  UNL     1      19.176  13.747  20.479  0.00  0.00    -0.275 OA
ATOM      2  C1  UNL     1      20.405  13.694  20.195  0.00  0.00    +0.220 C 
ATOM      3  N1  UNL     1      21.375  14.115  21.175  0.00  0.00    -0.298 N 
ATOM      4  C12 UNL     1      22.683  14.659  20.771  0.00  0.00    +0.127 C 
ATOM      5  C13 UNL     1      23.052  15.864  21.640  0.00  0.00    +0.127 C 
ATOM      6  N2  UNL     1      22.785  15.554  23.039  0.00  0.00    -0.287 N 
ATOM      7  C14 UNL     1      23.750  15.422  24.079  0.00  0.00    +0.248 C 
ATOM      8  O3  UNL     1      24.954  15.781  23.987  0.00  0.00    -0.270 OA
ATOM      9  C15 UNL     1      23.137  14.805  25.230  0.00  0.00    +0.043 A 
ATOM     10  C16 UNL     1      23.669  14.488  26.477  0.00  0.00    +0.028 A 
ATOM     11  C17 UNL     1      22.823  13.877  27.420  0.00  0.00    +0.019 A 
ATOM     12 BR1  UNL     1      23.499  13.417  29.145  0.00  0.00    -0.050 Br
ATOM     13  C18 UNL     1      21.476  13.604  27.095  0.00  0.00    +0.015 A 
ATOM     14  C19 UNL     1      20.968  13.934  25.827  0.00  0.00    +0.007 A 
ATOM     15  C20 UNL     1      21.824  14.534  24.901  0.00  0.00    -0.013 A 
ATOM     16  C21 UNL     1      21.521  14.961  23.487  0.00  0.00    +0.125 C 
ATOM     17  C22 UNL     1      21.174  13.764  22.590  0.00  0.00    +0.135 C 
ENDROOT
BRANCH   2  18
ATOM     18  C2  UNL     1      20.826  13.236  18.823  0.00  0.00    +0.131 C 
BRANCH  18  19
ATOM     19  C3  UNL     1      21.070  11.750  18.794  0.00  0.00    -0.038 A 
ATOM     20  C4  UNL     1      22.383  11.252  18.770  0.00  0.00    +0.008 A 
ATOM     21  C5  UNL     1      22.616   9.875  18.785  0.00  0.00    +0.046 A 
ATOM     22  C6  UNL     1      21.542   8.980  18.831  0.00  0.00    +0.124 A 
ATOM     23  C7  UNL     1      20.220   9.468  18.841  0.00  0.00    -0.005 A 
ATOM     24  C8  UNL     1      19.992  10.851  18.845  0.00  0.00    +0.011 A 
ATOM     25  C9  UNL     1      19.061   8.505  18.920  0.00  0.00    +0.042 C 
ATOM     26  C10 UNL     1      19.449   7.111  18.409  0.00  0.00    +0.046 C 
ATOM     27  C11 UNL     1      20.749   6.648  19.070  0.00  0.00    +0.229 C 
ATOM     28  O2  UNL     1      21.788   7.603  18.844  0.00  0.00    -0.492 OA
ENDBRANCH  18  19
ENDBRANCH   2  18
TORSDOF 2
ENDMDL
MODEL 8
REMARK VINA RESULT:    -6.752      4.408      6.793
REMARK INTER + INTRA:          -7.995
REMARK INTER:                  -7.576
REMARK INTRA:                  -0.419
REMARK UNBOUND:                -0.454
REMARK  Name = /home/qwerty/github/datacon2025hack/step_04_hit_selection/docking/ligands/lig_653.pdb
REMARK  2 active torsions:
REMARK  status: ('A' for Active; 'I' for Inactive)
REMARK    1  A    between atoms: C1_2  and  C2_3
REMARK    2  A    between atoms: C2_3  and  C3_4
REMARK                            x       y       z     vdW  Elec       q    Type
REMARK                         _______ _______ _______ _____ _____    ______ ____
ROOT
ATOM      1  O1  UNL     1      24.435   8.268  33.527  0.00  0.00    -0.275 OA
ATOM      2  C1  UNL     1      23.701   7.330  33.945  0.00  0.00    +0.220 C 
ATOM      3  N1  UNL     1      22.594   7.634  34.816  0.00  0.00    -0.298 N 
ATOM      4  C12 UNL     1      22.101   6.651  35.796  0.00  0.00    +0.127 C 
ATOM      5  C13 UNL     1      21.788   7.336  37.129  0.00  0.00    +0.127 C 
ATOM      6  N2  UNL     1      21.041   8.564  36.879  0.00  0.00    -0.287 N 
ATOM      7  C14 UNL     1      19.692   8.828  37.252  0.00  0.00    +0.248 C 
ATOM      8  O3  UNL     1      19.020   8.125  38.054  0.00  0.00    -0.270 OA
ATOM      9  C15 UNL     1      19.221  10.002  36.559  0.00  0.00    +0.043 A 
ATOM     10  C16 UNL     1      17.990  10.650  36.609  0.00  0.00    +0.028 A 
ATOM     11  C17 UNL     1      17.810  11.792  35.808  0.00  0.00    +0.019 A 
ATOM     12 BR1  UNL     1      16.141  12.718  35.834  0.00  0.00    -0.050 Br
ATOM     13  C18 UNL     1      18.861  12.254  34.985  0.00  0.00    +0.015 A 
ATOM     14  C19 UNL     1      20.092  11.578  34.954  0.00  0.00    +0.007 A 
ATOM     15  C20 UNL     1      20.250  10.443  35.752  0.00  0.00    -0.013 A 
ATOM     16  C21 UNL     1      21.458   9.549  35.876  0.00  0.00    +0.125 C 
ATOM     17  C22 UNL     1      21.775   8.829  34.558  0.00  0.00    +0.135 C 
ENDROOT
BRANCH   2  18
ATOM     18  C2  UNL     1      24.029   5.910  33.560  0.00  0.00    +0.131 C 
BRANCH  18  19
ATOM     19  C3  UNL     1      23.065   5.389  32.526  0.00  0.00    -0.038 A 
ATOM     20  C4  UNL     1      22.538   6.254  31.554  0.00  0.00    +0.008 A 
ATOM     21  C5  UNL     1      21.676   5.767  30.568  0.00  0.00    +0.046 A 
ATOM     22  C6  UNL     1      21.337   4.411  30.538  0.00  0.00    +0.124 A 
ATOM     23  C7  UNL     1      21.848   3.535  31.516  0.00  0.00    -0.005 A 
ATOM     24  C8  UNL     1      22.728   4.025  32.492  0.00  0.00    +0.011 A 
ATOM     25  C9  UNL     1      21.506   2.067  31.468  0.00  0.00    +0.042 C 
ATOM     26  C10 UNL     1      20.201   1.816  30.701  0.00  0.00    +0.046 C 
ATOM     27  C11 UNL     1      20.230   2.541  29.354  0.00  0.00    +0.229 C 
ATOM     28  O2  UNL     1      20.471   3.935  29.546  0.00  0.00    -0.492 OA
ENDBRANCH  18  19
ENDBRANCH   2  18
TORSDOF 2
ENDMDL
MODEL 9
REMARK VINA RESULT:    -6.425      4.014      9.200
REMARK INTER + INTRA:          -7.630
REMARK INTER:                  -7.189
REMARK INTRA:                  -0.441
REMARK UNBOUND:                -0.454
REMARK  Name = /home/qwerty/github/datacon2025hack/step_04_hit_selection/docking/ligands/lig_653.pdb
REMARK  2 active torsions:
REMARK  status: ('A' for Active; 'I' for Inactive)
REMARK    1  A    between atoms: C1_2  and  C2_3
REMARK    2  A    between atoms: C2_3  and  C3_4
REMARK                            x       y       z     vdW  Elec       q    Type
REMARK                         _______ _______ _______ _____ _____    ______ ____
ROOT
ATOM      1  O1  UNL     1      17.475   3.657  33.534  0.00  0.00    -0.275 OA
ATOM      2  C1  UNL     1      18.519   3.015  33.834  0.00  0.00    +0.220 C 
ATOM      3  N1  UNL     1      19.331   2.455  32.782  0.00  0.00    -0.298 N 
ATOM      4  C12 UNL     1      20.146   1.249  33.007  0.00  0.00    +0.127 C 
ATOM      5  C13 UNL     1      20.052   0.309  31.802  0.00  0.00    +0.127 C 
ATOM      6  N2  UNL     1      20.201   1.079  30.573  0.00  0.00    -0.287 N 
ATOM      7  C14 UNL     1      21.276   0.994  29.641  0.00  0.00    +0.248 C 
ATOM      8  O3  UNL     1      22.140   0.077  29.628  0.00  0.00    -0.270 OA
ATOM      9  C15 UNL     1      21.225   2.121  28.743  0.00  0.00    +0.043 A 
ATOM     10  C16 UNL     1      22.045   2.460  27.669  0.00  0.00    +0.028 A 
ATOM     11  C17 UNL     1      21.753   3.639  26.961  0.00  0.00    +0.019 A 
ATOM     12 BR1  UNL     1      22.846   4.155  25.484  0.00  0.00    -0.050 Br
ATOM     13  C18 UNL     1      20.655   4.442  27.341  0.00  0.00    +0.015 A 
ATOM     14  C19 UNL     1      19.846   4.075  28.430  0.00  0.00    +0.007 A 
ATOM     15  C20 UNL     1      20.155   2.904  29.124  0.00  0.00    -0.013 A 
ATOM     16  C21 UNL     1      19.454   2.317  30.323  0.00  0.00    +0.125 C 
ATOM     17  C22 UNL     1      19.559   3.230  31.552  0.00  0.00    +0.135 C 
ENDROOT
BRANCH   2  18
ATOM     18  C2  UNL     1      18.867   2.810  35.286  0.00  0.00    +0.131 C 
BRANCH  18  19
ATOM     19  C3  UNL     1      17.790   2.037  36.001  0.00  0.00    -0.038 A 
ATOM     20  C4  UNL     1      17.020   2.660  36.996  0.00  0.00    +0.008 A 
ATOM     21  C5  UNL     1      15.992   1.961  37.634  0.00  0.00    +0.046 A 
ATOM     22  C6  UNL     1      15.718   0.636  37.281  0.00  0.00    +0.124 A 
ATOM     23  C7  UNL     1      16.493  -0.004  36.294  0.00  0.00    -0.005 A 
ATOM     24  C8  UNL     1      17.511   0.707  35.643  0.00  0.00    +0.011 A 
ATOM     25  C9  UNL     1      16.181  -1.424  35.892  0.00  0.00    +0.042 C 
ATOM     26  C10 UNL     1      15.430  -2.173  37.001  0.00  0.00    +0.046 C 
ATOM     27  C11 UNL     1      14.244  -1.340  37.493  0.00  0.00    +0.229 C 
ATOM     28  O2  UNL     1      14.687  -0.055  37.929  0.00  0.00    -0.492 OA
ENDBRANCH  18  19
ENDBRANCH   2  18
TORSDOF 2
ENDMDL
