REMARK  Name = /home/qwerty/github/datacon2025hack/step_04_hit_selection/docking/ligands/lig_343.pdb
REMARK  4 active torsions:
REMARK  status: ('A' for Active; 'I' for Inactive)
REMARK    1  A    between atoms: C1_1  and  C2_2
REMARK    2  A    between atoms: C4_4  and  C5_5
REMARK    3  A    between atoms: C8_10  and  N2_11
REMARK    4  A    between atoms: C9_12  and  C10_14
REMARK                            x       y       z     vdW  Elec       q    Type
REMARK                         _______ _______ _______ _____ _____    ______ ____
ROOT
ATOM      1  C5  UNL     1       3.264  -0.306   0.709  0.00  0.00    +0.267 C 
ATOM      2  O1  UNL     1       3.001  -1.000   1.729  0.00  0.00    -0.268 OA
ATOM      3  N1  UNL     1       2.186   0.351   0.013  0.00  0.00    -0.294 N 
ATOM      4  C6  UNL     1       2.292   0.992  -1.289  0.00  0.00    +0.110 C 
ATOM      5  C7  UNL     1       0.861   1.283  -1.720  0.00  0.00    +0.043 C 
ATOM      6  C8  UNL     1       0.042   1.267  -0.425  0.00  0.00    +0.092 C 
ATOM      7  C18 UNL     1       0.825   0.364   0.524  0.00  0.00    +0.130 C 
ENDROOT
BRANCH   1  11
ATOM      8  C1  UNL     1       8.255  -0.834   0.375  0.00  0.00    +0.065 C 
ATOM      9  C2  UNL     1       6.834  -0.443   0.130  0.00  0.00    +0.034 A 
ATOM     10  C3  UNL     1       5.739  -0.881   0.841  0.00  0.00    +0.057 A 
ATOM     11  C4  UNL     1       4.674  -0.196   0.278  0.00  0.00    +0.147 A 
ATOM     12  N4  UNL     1       5.125   0.616  -0.700  0.00  0.00    -0.169 NA
ATOM     13  N5  UNL     1       6.436   0.462  -0.781  0.00  0.00    -0.281 N 
ATOM     14  H19 UNL     1       7.047   0.978  -1.453  0.00  0.00    +0.189 HD
ENDBRANCH   1  11
BRANCH   6  15
ATOM     15  N2  UNL     1      -1.325   0.779  -0.635  0.00  0.00    -0.307 N 
ATOM     16  C9  UNL     1      -2.305   0.810   0.418  0.00  0.00    +0.244 C 
ATOM     17  O2  UNL     1      -2.039   1.410   1.496  0.00  0.00    -0.270 OA
ATOM     18  H10 UNL     1      -1.623   0.490  -1.593  0.00  0.00    +0.149 HD
BRANCH  16  19
ATOM     19  C10 UNL     1      -3.631   0.167   0.253  0.00  0.00    +0.037 A 
ATOM     20  C11 UNL     1      -3.823  -0.891  -0.677  0.00  0.00    +0.015 A 
ATOM     21  C12 UNL     1      -5.083  -1.500  -0.827  0.00  0.00    +0.027 A 
ATOM     22  C13 UNL     1      -6.128  -1.040  -0.031  0.00  0.00    +0.046 A 
ATOM     23  N3  UNL     1      -7.395  -1.485  -0.011  0.00  0.00    -0.361 N 
ATOM     24  C14 UNL     1      -8.031  -0.744   0.926  0.00  0.00    +0.083 A 
ATOM     25  C15 UNL     1      -7.160   0.175   1.503  0.00  0.00    +0.027 A 
ATOM     26  C16 UNL     1      -5.951  -0.033   0.877  0.00  0.00    +0.000 A 
ATOM     27  C17 UNL     1      -4.720   0.594   1.051  0.00  0.00    +0.023 A 
ATOM     28  H13 UNL     1      -7.808  -2.246  -0.594  0.00  0.00    +0.165 HD
ENDBRANCH  16  19
ENDBRANCH   6  15
TORSDOF 3
