MODEL 1
REMARK VINA RESULT:    -6.758      0.000      0.000
REMARK INTER + INTRA:          -7.875
REMARK INTER:                  -7.548
REMARK INTRA:                  -0.327
REMARK UNBOUND:                -0.327
REMARK  Name = /home/qwerty/github/datacon2025hack/step_04_hit_selection/docking/ligands/lig_229.pdb
REMARK  2 active torsions:
REMARK  status: ('A' for Active; 'I' for Inactive)
REMARK    1  A    between atoms: C1_2  and  C10_14
REMARK    2  A    between atoms: N1_3  and  C2_4
REMARK                            x       y       z     vdW  Elec       q    Type
REMARK                         _______ _______ _______ _____ _____    ______ ____
ROOT
ATOM      1  O1  UNL     1      21.518   5.222  31.687  0.00  0.00    -0.270 OA
ATOM      2  C1  UNL     1      22.553   4.867  32.314  0.00  0.00    +0.250 C 
ATOM      3  N1  UNL     1      22.771   3.478  32.598  0.00  0.00    -0.281 N 
ATOM      4  H1  UNL     1      23.328   3.222  33.444  0.00  0.00    +0.155 HD
ENDROOT
BRANCH   3   5
ATOM      5  C2  UNL     1      22.064   2.431  31.920  0.00  0.00    +0.041 A 
ATOM      6  C3  UNL     1      22.469   2.027  30.632  0.00  0.00    +0.024 A 
ATOM      7  C4  UNL     1      21.759   1.031  29.935  0.00  0.00    +0.003 A 
ATOM      8  C5  UNL     1      20.618   0.442  30.505  0.00  0.00    +0.015 A 
ATOM      9  C6  UNL     1      20.228   0.869  31.772  0.00  0.00    +0.067 A 
ATOM     10  C7  UNL     1      20.920   1.830  32.473  0.00  0.00    +0.025 A 
ATOM     11  C8  UNL     1      20.195   2.150  33.754  0.00  0.00    +0.270 C 
ATOM     12  O2  UNL     1      19.053   1.288  33.715  0.00  0.00    -0.456 OA
ATOM     13  C9  UNL     1      19.069   0.528  32.555  0.00  0.00    +0.340 C 
ATOM     14  O3  UNL     1      18.185  -0.313  32.245  0.00  0.00    -0.245 OA
ENDBRANCH   3   5
BRANCH   2  15
ATOM     15  C10 UNL     1      23.515   5.887  32.777  0.00  0.00    +0.067 A 
ATOM     16  C11 UNL     1      24.411   5.768  33.846  0.00  0.00    +0.127 A 
ATOM     17  N2  UNL     1      25.179   6.878  34.007  0.00  0.00    -0.237 NA
ATOM     18  C12 UNL     1      24.773   7.711  33.035  0.00  0.00    +0.141 A 
ATOM     19  N3  UNL     1      25.248   8.953  32.786  0.00  0.00    -0.330 N 
ATOM     20  C13 UNL     1      24.710   9.656  31.743  0.00  0.00    +0.197 A 
ATOM     21  N4  UNL     1      23.712   9.117  30.969  0.00  0.00    -0.245 NA
ATOM     22  C14 UNL     1      23.208   7.867  31.192  0.00  0.00    +0.124 A 
ATOM     23  C15 UNL     1      23.741   7.137  32.243  0.00  0.00    +0.049 A 
ATOM     24  H8  UNL     1      26.008   9.364  33.373  0.00  0.00    +0.168 HD
ENDBRANCH   2  15
TORSDOF 2
ENDMDL
MODEL 2
REMARK VINA RESULT:    -6.372      7.388     11.272
REMARK INTER + INTRA:          -7.444
REMARK INTER:                  -6.995
REMARK INTRA:                  -0.449
REMARK UNBOUND:                -0.327
REMARK  Name = /home/qwerty/github/datacon2025hack/step_04_hit_selection/docking/ligands/lig_229.pdb
REMARK  2 active torsions:
REMARK  status: ('A' for Active; 'I' for Inactive)
REMARK    1  A    between atoms: C1_2  and  C10_14
REMARK    2  A    between atoms: N1_3  and  C2_4
REMARK                            x       y       z     vdW  Elec       q    Type
REMARK                         _______ _______ _______ _____ _____    ______ ____
ROOT
ATOM      1  O1  UNL     1      17.815   1.684  25.709  0.00  0.00    -0.270 OA
ATOM      2  C1  UNL     1      18.264   0.632  25.180  0.00  0.00    +0.250 C 
ATOM      3  N1  UNL     1      19.681   0.458  25.031  0.00  0.00    -0.281 N 
ATOM      4  H1  UNL     1      20.032  -0.135  24.246  0.00  0.00    +0.155 HD
ENDROOT
BRANCH   3   5
ATOM      5  C2  UNL     1      20.635   1.247  25.753  0.00  0.00    +0.041 A 
ATOM      6  C3  UNL     1      21.012   0.874  27.059  0.00  0.00    +0.024 A 
ATOM      7  C4  UNL     1      21.915   1.663  27.799  0.00  0.00    +0.003 A 
ATOM      8  C5  UNL     1      22.435   2.847  27.253  0.00  0.00    +0.015 A 
ATOM      9  C6  UNL     1      22.035   3.203  25.967  0.00  0.00    +0.067 A 
ATOM     10  C7  UNL     1      21.166   2.436  25.225  0.00  0.00    +0.025 A 
ATOM     11  C8  UNL     1      20.846   3.134  23.928  0.00  0.00    +0.270 C 
ATOM     12  O2  UNL     1      21.610   4.341  24.003  0.00  0.00    -0.456 OA
ATOM     13  C9  UNL     1      22.316   4.386  25.196  0.00  0.00    +0.340 C 
ATOM     14  O3  UNL     1      23.068   5.335  25.541  0.00  0.00    -0.245 OA
ENDBRANCH   3   5
BRANCH   2  15
ATOM     15  C10 UNL     1      17.327  -0.398  24.689  0.00  0.00    +0.067 A 
ATOM     16  C11 UNL     1      17.361  -1.036  23.443  0.00  0.00    +0.127 A 
ATOM     17  N2  UNL     1      16.368  -1.953  23.301  0.00  0.00    -0.237 NA
ATOM     18  C12 UNL     1      15.696  -1.903  24.462  0.00  0.00    +0.141 A 
ATOM     19  N3  UNL     1      14.614  -2.642  24.801  0.00  0.00    -0.330 N 
ATOM     20  C13 UNL     1      14.063  -2.454  26.039  0.00  0.00    +0.197 A 
ATOM     21  N4  UNL     1      14.591  -1.539  26.915  0.00  0.00    -0.245 NA
ATOM     22  C14 UNL     1      15.682  -0.777  26.607  0.00  0.00    +0.124 A 
ATOM     23  C15 UNL     1      16.257  -0.952  25.358  0.00  0.00    +0.049 A 
ATOM     24  H8  UNL     1      14.211  -3.339  24.136  0.00  0.00    +0.168 HD
ENDBRANCH   2  15
TORSDOF 2
ENDMDL
MODEL 3
REMARK VINA RESULT:    -6.344     15.733     16.903
REMARK INTER + INTRA:          -7.413
REMARK INTER:                  -7.088
REMARK INTRA:                  -0.325
REMARK UNBOUND:                -0.327
REMARK  Name = /home/qwerty/github/datacon2025hack/step_04_hit_selection/docking/ligands/lig_229.pdb
REMARK  2 active torsions:
REMARK  status: ('A' for Active; 'I' for Inactive)
REMARK    1  A    between atoms: C1_2  and  C10_14
REMARK    2  A    between atoms: N1_3  and  C2_4
REMARK                            x       y       z     vdW  Elec       q    Type
REMARK                         _______ _______ _______ _____ _____    ______ ____
ROOT
ATOM      1  O1  UNL     1       9.959   9.339  25.267  0.00  0.00    -0.270 OA
ATOM      2  C1  UNL     1       8.999   9.902  24.675  0.00  0.00    +0.250 C 
ATOM      3  N1  UNL     1       7.870  10.365  25.429  0.00  0.00    -0.281 N 
ATOM      4  H1  UNL     1       6.938  10.408  24.959  0.00  0.00    +0.155 HD
ENDROOT
BRANCH   3   5
ATOM      5  C2  UNL     1       7.912  10.540  26.851  0.00  0.00    +0.041 A 
ATOM      6  C3  UNL     1       8.360  11.759  27.398  0.00  0.00    +0.024 A 
ATOM      7  C4  UNL     1       8.448  11.932  28.794  0.00  0.00    +0.003 A 
ATOM      8  C5  UNL     1       8.114  10.879  29.661  0.00  0.00    +0.015 A 
ATOM      9  C6  UNL     1       7.690   9.679  29.097  0.00  0.00    +0.067 A 
ATOM     10  C7  UNL     1       7.583   9.499  27.737  0.00  0.00    +0.025 A 
ATOM     11  C8  UNL     1       7.205   8.071  27.437  0.00  0.00    +0.270 C 
ATOM     12  O2  UNL     1       7.102   7.476  28.733  0.00  0.00    -0.456 OA
ATOM     13  C9  UNL     1       7.380   8.416  29.714  0.00  0.00    +0.340 C 
ATOM     14  O3  UNL     1       7.374   8.176  30.950  0.00  0.00    -0.245 OA
ENDBRANCH   3   5
BRANCH   2  15
ATOM     15  C10 UNL     1       9.030  10.050  23.206  0.00  0.00    +0.067 A 
ATOM     16  C11 UNL     1       7.927  10.173  22.352  0.00  0.00    +0.127 A 
ATOM     17  N2  UNL     1       8.290  10.314  21.050  0.00  0.00    -0.237 NA
ATOM     18  C12 UNL     1       9.632  10.282  21.070  0.00  0.00    +0.141 A 
ATOM     19  N3  UNL     1      10.458  10.389  20.003  0.00  0.00    -0.330 N 
ATOM     20  C13 UNL     1      11.807  10.338  20.221  0.00  0.00    +0.197 A 
ATOM     21  N4  UNL     1      12.313  10.183  21.487  0.00  0.00    -0.245 NA
ATOM     22  C14 UNL     1      11.510  10.073  22.587  0.00  0.00    +0.124 A 
ATOM     23  C15 UNL     1      10.138  10.123  22.389  0.00  0.00    +0.049 A 
ATOM     24  H8  UNL     1      10.075  10.507  19.039  0.00  0.00    +0.168 HD
ENDBRANCH   2  15
TORSDOF 2
ENDMDL
MODEL 4
REMARK VINA RESULT:    -6.304     15.105     16.914
REMARK INTER + INTRA:          -7.368
REMARK INTER:                  -6.867
REMARK INTRA:                  -0.500
REMARK UNBOUND:                -0.327
REMARK  Name = /home/qwerty/github/datacon2025hack/step_04_hit_selection/docking/ligands/lig_229.pdb
REMARK  2 active torsions:
REMARK  status: ('A' for Active; 'I' for Inactive)
REMARK    1  A    between atoms: C1_2  and  C10_14
REMARK    2  A    between atoms: N1_3  and  C2_4
REMARK                            x       y       z     vdW  Elec       q    Type
REMARK                         _______ _______ _______ _____ _____    ______ ____
ROOT
ATOM      1  O1  UNL     1      11.904   4.603  22.168  0.00  0.00    -0.270 OA
ATOM      2  C1  UNL     1      12.086   4.598  20.921  0.00  0.00    +0.250 C 
ATOM      3  N1  UNL     1      11.008   4.949  20.043  0.00  0.00    -0.281 N 
ATOM      4  H1  UNL     1      10.991   4.539  19.082  0.00  0.00    +0.155 HD
ENDROOT
BRANCH   3   5
ATOM      5  C2  UNL     1       9.834   5.636  20.498  0.00  0.00    +0.041 A 
ATOM      6  C3  UNL     1       8.651   4.914  20.754  0.00  0.00    +0.024 A 
ATOM      7  C4  UNL     1       7.477   5.580  21.159  0.00  0.00    +0.003 A 
ATOM      8  C5  UNL     1       7.463   6.978  21.289  0.00  0.00    +0.015 A 
ATOM      9  C6  UNL     1       8.639   7.671  21.014  0.00  0.00    +0.067 A 
ATOM     10  C7  UNL     1       9.799   7.035  20.632  0.00  0.00    +0.025 A 
ATOM     11  C8  UNL     1      10.858   8.055  20.305  0.00  0.00    +0.270 C 
ATOM     12  O2  UNL     1      10.202   9.304  20.542  0.00  0.00    -0.456 OA
ATOM     13  C9  UNL     1       8.899   9.086  20.965  0.00  0.00    +0.340 C 
ATOM     14  O3  UNL     1       8.079  10.000  21.241  0.00  0.00    -0.245 OA
ENDBRANCH   3   5
BRANCH   2  15
ATOM     15  C10 UNL     1      13.399   4.202  20.374  0.00  0.00    +0.067 A 
ATOM     16  C11 UNL     1      14.364   5.048  19.815  0.00  0.00    +0.127 A 
ATOM     17  N2  UNL     1      15.478   4.377  19.419  0.00  0.00    -0.237 NA
ATOM     18  C12 UNL     1      15.225   3.095  19.727  0.00  0.00    +0.141 A 
ATOM     19  N3  UNL     1      16.046   2.039  19.522  0.00  0.00    -0.330 N 
ATOM     20  C13 UNL     1      15.615   0.799  19.907  0.00  0.00    +0.197 A 
ATOM     21  N4  UNL     1      14.382   0.629  20.485  0.00  0.00    -0.245 NA
ATOM     22  C14 UNL     1      13.527   1.671  20.707  0.00  0.00    +0.124 A 
ATOM     23  C15 UNL     1      13.945   2.937  20.325  0.00  0.00    +0.049 A 
ATOM     24  H8  UNL     1      16.985   2.167  19.083  0.00  0.00    +0.168 HD
ENDBRANCH   2  15
TORSDOF 2
ENDMDL
MODEL 5
REMARK VINA RESULT:    -6.294      6.456      8.714
REMARK INTER + INTRA:          -7.357
REMARK INTER:                  -6.936
REMARK INTRA:                  -0.422
REMARK UNBOUND:                -0.327
REMARK  Name = /home/qwerty/github/datacon2025hack/step_04_hit_selection/docking/ligands/lig_229.pdb
REMARK  2 active torsions:
REMARK  status: ('A' for Active; 'I' for Inactive)
REMARK    1  A    between atoms: C1_2  and  C10_14
REMARK    2  A    between atoms: N1_3  and  C2_4
REMARK                            x       y       z     vdW  Elec       q    Type
REMARK                         _______ _______ _______ _____ _____    ______ ____
ROOT
ATOM      1  O1  UNL     1      19.748   8.291  34.986  0.00  0.00    -0.270 OA
ATOM      2  C1  UNL     1      20.598   8.444  35.904  0.00  0.00    +0.250 C 
ATOM      3  N1  UNL     1      20.390   9.446  36.909  0.00  0.00    -0.281 N 
ATOM      4  H1  UNL     1      21.225   9.875  37.368  0.00  0.00    +0.155 HD
ENDROOT
BRANCH   3   5
ATOM      5  C2  UNL     1      19.113  10.057  37.136  0.00  0.00    +0.041 A 
ATOM      6  C3  UNL     1      18.163   9.417  37.957  0.00  0.00    +0.024 A 
ATOM      7  C4  UNL     1      16.888   9.983  38.156  0.00  0.00    +0.003 A 
ATOM      8  C5  UNL     1      16.537  11.182  37.516  0.00  0.00    +0.015 A 
ATOM      9  C6  UNL     1      17.486  11.788  36.696  0.00  0.00    +0.067 A 
ATOM     10  C7  UNL     1      18.742  11.257  36.504  0.00  0.00    +0.025 A 
ATOM     11  C8  UNL     1      19.494  12.076  35.488  0.00  0.00    +0.270 C 
ATOM     12  O2  UNL     1      18.566  13.107  35.138  0.00  0.00    -0.456 OA
ATOM     13  C9  UNL     1      17.385  12.946  35.849  0.00  0.00    +0.340 C 
ATOM     14  O3  UNL     1      16.383  13.701  35.740  0.00  0.00    -0.245 OA
ENDBRANCH   3   5
BRANCH   2  15
ATOM     15  C10 UNL     1      21.817   7.610  35.919  0.00  0.00    +0.067 A 
ATOM     16  C11 UNL     1      22.396   6.993  37.034  0.00  0.00    +0.127 A 
ATOM     17  N2  UNL     1      23.505   6.275  36.715  0.00  0.00    -0.237 NA
ATOM     18  C12 UNL     1      23.637   6.433  35.388  0.00  0.00    +0.141 A 
ATOM     19  N3  UNL     1      24.602   5.901  34.604  0.00  0.00    -0.330 N 
ATOM     20  C13 UNL     1      24.571   6.171  33.263  0.00  0.00    +0.197 A 
ATOM     21  N4  UNL     1      23.586   6.962  32.726  0.00  0.00    -0.245 NA
ATOM     22  C14 UNL     1      22.595   7.515  33.487  0.00  0.00    +0.124 A 
ATOM     23  C15 UNL     1      22.608   7.253  34.848  0.00  0.00    +0.049 A 
ATOM     24  H8  UNL     1      25.353   5.299  35.010  0.00  0.00    +0.168 HD
ENDBRANCH   2  15
TORSDOF 2
ENDMDL
MODEL 6
REMARK VINA RESULT:    -6.248     13.372     14.900
REMARK INTER + INTRA:          -7.306
REMARK INTER:                  -6.828
REMARK INTRA:                  -0.477
REMARK UNBOUND:                -0.327
REMARK  Name = /home/qwerty/github/datacon2025hack/step_04_hit_selection/docking/ligands/lig_229.pdb
REMARK  2 active torsions:
REMARK  status: ('A' for Active; 'I' for Inactive)
REMARK    1  A    between atoms: C1_2  and  C10_14
REMARK    2  A    between atoms: N1_3  and  C2_4
REMARK                            x       y       z     vdW  Elec       q    Type
REMARK                         _______ _______ _______ _____ _____    ______ ____
ROOT
ATOM      1  O1  UNL     1      12.778  11.992  32.053  0.00  0.00    -0.270 OA
ATOM      2  C1  UNL     1      12.312  12.950  32.725  0.00  0.00    +0.250 C 
ATOM      3  N1  UNL     1      11.737  14.080  32.053  0.00  0.00    -0.281 N 
ATOM      4  H1  UNL     1      11.767  15.011  32.525  0.00  0.00    +0.155 HD
ENDROOT
BRANCH   3   5
ATOM      5  C2  UNL     1      11.347  14.040  30.674  0.00  0.00    +0.041 A 
ATOM      6  C3  UNL     1      10.085  13.527  30.314  0.00  0.00    +0.024 A 
ATOM      7  C4  UNL     1       9.704  13.440  28.960  0.00  0.00    +0.003 A 
ATOM      8  C5  UNL     1      10.589  13.842  27.947  0.00  0.00    +0.015 A 
ATOM      9  C6  UNL     1      11.837  14.331  28.326  0.00  0.00    +0.067 A 
ATOM     10  C7  UNL     1      12.219  14.436  29.645  0.00  0.00    +0.025 A 
ATOM     11  C8  UNL     1      13.652  14.894  29.728  0.00  0.00    +0.270 C 
ATOM     12  O2  UNL     1      14.034  15.042  28.357  0.00  0.00    -0.456 OA
ATOM     13  C9  UNL     1      12.970  14.718  27.527  0.00  0.00    +0.340 C 
ATOM     14  O3  UNL     1      13.015  14.748  26.270  0.00  0.00    -0.245 OA
ENDBRANCH   3   5
BRANCH   2  15
ATOM     15  C10 UNL     1      12.390  12.916  34.200  0.00  0.00    +0.067 A 
ATOM     16  C11 UNL     1      12.939  13.898  35.032  0.00  0.00    +0.127 A 
ATOM     17  N2  UNL     1      12.840  13.579  36.349  0.00  0.00    -0.237 NA
ATOM     18  C12 UNL     1      12.223  12.386  36.361  0.00  0.00    +0.141 A 
ATOM     19  N3  UNL     1      11.898  11.655  37.452  0.00  0.00    -0.330 N 
ATOM     20  C13 UNL     1      11.265  10.457  37.265  0.00  0.00    +0.197 A 
ATOM     21  N4  UNL     1      10.967  10.006  36.003  0.00  0.00    -0.245 NA
ATOM     22  C14 UNL     1      11.280  10.717  34.879  0.00  0.00    +0.124 A 
ATOM     23  C15 UNL     1      11.921  11.935  35.046  0.00  0.00    +0.049 A 
ATOM     24  H8  UNL     1      12.123  11.997  38.413  0.00  0.00    +0.168 HD
ENDBRANCH   2  15
TORSDOF 2
ENDMDL
MODEL 7
REMARK VINA RESULT:    -6.222     16.061     17.014
REMARK INTER + INTRA:          -7.276
REMARK INTER:                  -6.822
REMARK INTRA:                  -0.455
REMARK UNBOUND:                -0.327
REMARK  Name = /home/qwerty/github/datacon2025hack/step_04_hit_selection/docking/ligands/lig_229.pdb
REMARK  2 active torsions:
REMARK  status: ('A' for Active; 'I' for Inactive)
REMARK    1  A    between atoms: C1_2  and  C10_14
REMARK    2  A    between atoms: N1_3  and  C2_4
REMARK                            x       y       z     vdW  Elec       q    Type
REMARK                         _______ _______ _______ _____ _____    ______ ____
ROOT
ATOM      1  O1  UNL     1      10.284   9.324  25.287  0.00  0.00    -0.270 OA
ATOM      2  C1  UNL     1       9.227   9.473  24.617  0.00  0.00    +0.250 C 
ATOM      3  N1  UNL     1       7.983   9.710  25.292  0.00  0.00    -0.281 N 
ATOM      4  H1  UNL     1       7.098   9.398  24.832  0.00  0.00    +0.155 HD
ENDROOT
BRANCH   3   5
ATOM      5  C2  UNL     1       7.915  10.128  26.661  0.00  0.00    +0.041 A 
ATOM      6  C3  UNL     1       8.290  11.439  27.016  0.00  0.00    +0.024 A 
ATOM      7  C4  UNL     1       8.271  11.852  28.363  0.00  0.00    +0.003 A 
ATOM      8  C5  UNL     1       7.901  10.953  29.376  0.00  0.00    +0.015 A 
ATOM      9  C6  UNL     1       7.551   9.657  29.002  0.00  0.00    +0.067 A 
ATOM     10  C7  UNL     1       7.549   9.242  27.690  0.00  0.00    +0.025 A 
ATOM     11  C8  UNL     1       7.232   7.771  27.618  0.00  0.00    +0.270 C 
ATOM     12  O2  UNL     1       7.049   7.404  28.989  0.00  0.00    -0.456 OA
ATOM     13  C9  UNL     1       7.230   8.509  29.808  0.00  0.00    +0.340 C 
ATOM     14  O3  UNL     1       7.139   8.484  31.063  0.00  0.00    -0.245 OA
ENDBRANCH   3   5
BRANCH   2  15
ATOM     15  C10 UNL     1       9.273   9.373  23.144  0.00  0.00    +0.067 A 
ATOM     16  C11 UNL     1       8.995  10.393  22.226  0.00  0.00    +0.127 A 
ATOM     17  N2  UNL     1       9.147   9.988  20.938  0.00  0.00    -0.237 NA
ATOM     18  C12 UNL     1       9.524   8.702  21.031  0.00  0.00    +0.141 A 
ATOM     19  N3  UNL     1       9.799   7.865  20.005  0.00  0.00    -0.330 N 
ATOM     20  C13 UNL     1      10.174   6.583  20.297  0.00  0.00    +0.197 A 
ATOM     21  N4  UNL     1      10.269   6.154  21.598  0.00  0.00    -0.245 NA
ATOM     22  C14 UNL     1      10.000   6.972  22.659  0.00  0.00    +0.124 A 
ATOM     23  C15 UNL     1       9.619   8.276  22.385  0.00  0.00    +0.049 A 
ATOM     24  H8  UNL     1       9.727   8.189  19.014  0.00  0.00    +0.168 HD
ENDBRANCH   2  15
TORSDOF 2
ENDMDL
MODEL 8
REMARK VINA RESULT:    -6.093     14.591     16.279
REMARK INTER + INTRA:          -7.133
REMARK INTER:                  -6.555
REMARK INTRA:                  -0.578
REMARK UNBOUND:                -0.327
REMARK  Name = /home/qwerty/github/datacon2025hack/step_04_hit_selection/docking/ligands/lig_229.pdb
REMARK  2 active torsions:
REMARK  status: ('A' for Active; 'I' for Inactive)
REMARK    1  A    between atoms: C1_2  and  C10_14
REMARK    2  A    between atoms: N1_3  and  C2_4
REMARK                            x       y       z     vdW  Elec       q    Type
REMARK                         _______ _______ _______ _____ _____    ______ ____
ROOT
ATOM      1  O1  UNL     1      13.104   6.379  21.986  0.00  0.00    -0.270 OA
ATOM      2  C1  UNL     1      12.438   6.241  20.925  0.00  0.00    +0.250 C 
ATOM      3  N1  UNL     1      13.024   5.574  19.798  0.00  0.00    -0.281 N 
ATOM      4  H1  UNL     1      12.701   5.834  18.839  0.00  0.00    +0.155 HD
ENDROOT
BRANCH   3   5
ATOM      5  C2  UNL     1      14.193   4.751  19.910  0.00  0.00    +0.041 A 
ATOM      6  C3  UNL     1      15.462   5.288  19.616  0.00  0.00    +0.024 A 
ATOM      7  C4  UNL     1      16.615   4.481  19.679  0.00  0.00    +0.003 A 
ATOM      8  C5  UNL     1      16.512   3.121  20.012  0.00  0.00    +0.015 A 
ATOM      9  C6  UNL     1      15.245   2.609  20.281  0.00  0.00    +0.067 A 
ATOM     10  C7  UNL     1      14.110   3.387  20.239  0.00  0.00    +0.025 A 
ATOM     11  C8  UNL     1      12.893   2.530  20.471  0.00  0.00    +0.270 C 
ATOM     12  O2  UNL     1      13.438   1.220  20.652  0.00  0.00    -0.456 OA
ATOM     13  C9  UNL     1      14.821   1.260  20.548  0.00  0.00    +0.340 C 
ATOM     14  O3  UNL     1      15.570   0.254  20.655  0.00  0.00    -0.245 OA
ENDBRANCH   3   5
BRANCH   2  15
ATOM     15  C10 UNL     1      11.072   6.795  20.840  0.00  0.00    +0.067 A 
ATOM     16  C11 UNL     1      10.720   8.147  20.746  0.00  0.00    +0.127 A 
ATOM     17  N2  UNL     1       9.377   8.331  20.665  0.00  0.00    -0.237 NA
ATOM     18  C12 UNL     1       8.864   7.091  20.706  0.00  0.00    +0.141 A 
ATOM     19  N3  UNL     1       7.555   6.756  20.653  0.00  0.00    -0.330 N 
ATOM     20  C13 UNL     1       7.222   5.430  20.705  0.00  0.00    +0.197 A 
ATOM     21  N4  UNL     1       8.191   4.463  20.809  0.00  0.00    -0.245 NA
ATOM     22  C14 UNL     1       9.522   4.764  20.865  0.00  0.00    +0.124 A 
ATOM     23  C15 UNL     1       9.881   6.102  20.812  0.00  0.00    +0.049 A 
ATOM     24  H8  UNL     1       6.816   7.490  20.573  0.00  0.00    +0.168 HD
ENDBRANCH   2  15
TORSDOF 2
ENDMDL
MODEL 9
REMARK VINA RESULT:    -6.019      9.978     11.630
REMARK INTER + INTRA:          -7.050
REMARK INTER:                  -6.593
REMARK INTRA:                  -0.457
REMARK UNBOUND:                -0.327
REMARK  Name = /home/qwerty/github/datacon2025hack/step_04_hit_selection/docking/ligands/lig_229.pdb
REMARK  2 active torsions:
REMARK  status: ('A' for Active; 'I' for Inactive)
REMARK    1  A    between atoms: C1_2  and  C10_14
REMARK    2  A    between atoms: N1_3  and  C2_4
REMARK                            x       y       z     vdW  Elec       q    Type
REMARK                         _______ _______ _______ _____ _____    ______ ____
ROOT
ATOM      1  O1  UNL     1      17.082  10.804  35.360  0.00  0.00    -0.270 OA
ATOM      2  C1  UNL     1      16.899  10.510  36.571  0.00  0.00    +0.250 C 
ATOM      3  N1  UNL     1      16.248  11.447  37.441  0.00  0.00    -0.281 N 
ATOM      4  H1  UNL     1      16.481  11.430  38.459  0.00  0.00    +0.155 HD
ENDROOT
BRANCH   3   5
ATOM      5  C2  UNL     1      15.483  12.555  36.948  0.00  0.00    +0.041 A 
ATOM      6  C3  UNL     1      16.108  13.800  36.731  0.00  0.00    +0.024 A 
ATOM      7  C4  UNL     1      15.362  14.910  36.288  0.00  0.00    +0.003 A 
ATOM      8  C5  UNL     1      13.978  14.798  36.082  0.00  0.00    +0.015 A 
ATOM      9  C6  UNL     1      13.380  13.563  36.319  0.00  0.00    +0.067 A 
ATOM     10  C7  UNL     1      14.097  12.464  36.737  0.00  0.00    +0.025 A 
ATOM     11  C8  UNL     1      13.161  11.315  37.008  0.00  0.00    +0.270 C 
ATOM     12  O2  UNL     1      11.872  11.856  36.702  0.00  0.00    -0.456 OA
ATOM     13  C9  UNL     1      11.994  13.176  36.291  0.00  0.00    +0.340 C 
ATOM     14  O3  UNL     1      11.025  13.910  35.964  0.00  0.00    -0.245 OA
ENDBRANCH   3   5
BRANCH   2  15
ATOM     15  C10 UNL     1      17.386   9.217  37.093  0.00  0.00    +0.067 A 
ATOM     16  C11 UNL     1      16.605   8.168  37.593  0.00  0.00    +0.127 A 
ATOM     17  N2  UNL     1      17.353   7.101  37.979  0.00  0.00    -0.237 NA
ATOM     18  C12 UNL     1      18.619   7.468  37.724  0.00  0.00    +0.141 A 
ATOM     19  N3  UNL     1      19.732   6.731  37.941  0.00  0.00    -0.330 N 
ATOM     20  C13 UNL     1      20.944   7.274  37.612  0.00  0.00    +0.197 A 
ATOM     21  N4  UNL     1      21.030   8.536  37.078  0.00  0.00    -0.245 NA
ATOM     22  C14 UNL     1      19.928   9.308  36.845  0.00  0.00    +0.124 A 
ATOM     23  C15 UNL     1      18.689   8.776  37.169  0.00  0.00    +0.049 A 
ATOM     24  H8  UNL     1      19.670   5.771  38.347  0.00  0.00    +0.168 HD
ENDBRANCH   2  15
TORSDOF 2
ENDMDL
