REMARK  Name = /home/qwerty/github/datacon2025hack/step_04_hit_selection/docking/ligands/lig_304.pdb
REMARK  4 active torsions:
REMARK  status: ('A' for Active; 'I' for Inactive)
REMARK    1  A    between atoms: C1_2  and  C2_3
REMARK    2  A    between atoms: C2_3  and  C3_4
REMARK    3  A    between atoms: N1_14  and  C13_15
REMARK    4  A    between atoms: C17_20  and  C18_21
REMARK                            x       y       z     vdW  Elec       q    Type
REMARK                         _______ _______ _______ _____ _____    ______ ____
ROOT
ATOM      1  C13 UNL     1       1.156   1.665   0.467  0.00  0.00    +0.036 A 
ATOM      2  C14 UNL     1       1.750   2.602  -0.424  0.00  0.00    +0.025 A 
ATOM      3  C15 UNL     1       3.047   2.390  -0.929  0.00  0.00    +0.029 A 
ATOM      4  C16 UNL     1       3.721   1.245  -0.514  0.00  0.00    +0.067 A 
ATOM      5  N2  UNL     1       4.953   0.841  -0.844  0.00  0.00    -0.338 N 
ATOM      6  C17 UNL     1       5.118  -0.316  -0.146  0.00  0.00    +0.139 A 
ATOM      7  N3  UNL     1       4.032  -0.644   0.608  0.00  0.00    -0.228 NA
ATOM      8  C24 UNL     1       3.171   0.356   0.354  0.00  0.00    +0.091 A 
ATOM      9  C25 UNL     1       1.892   0.530   0.875  0.00  0.00    +0.053 A 
ATOM     10  H17 UNL     1       5.620   1.328  -1.482  0.00  0.00    +0.167 HD
ENDROOT
BRANCH   6  11
ATOM     11  C18 UNL     1       6.349  -1.146  -0.177  0.00  0.00    +0.020 A 
ATOM     12  C19 UNL     1       6.481  -2.236   0.704  0.00  0.00    +0.012 A 
ATOM     13  C20 UNL     1       7.633  -3.027   0.689  0.00  0.00    +0.003 A 
ATOM     14  C21 UNL     1       8.666  -2.743  -0.207  0.00  0.00    +0.038 A 
ATOM     15  C22 UNL     1       8.548  -1.668  -1.090  0.00  0.00    +0.124 A 
ATOM     16  F1  UNL     1       9.550  -1.396  -1.962  0.00  0.00    -0.205 F 
ATOM     17  C23 UNL     1       7.397  -0.872  -1.078  0.00  0.00    +0.049 A 
ENDBRANCH   6  11
BRANCH   1  20
ATOM     18  O1  UNL     1      -1.141   2.725  -0.945  0.00  0.00    -0.275 OA
ATOM     19  C1  UNL     1      -1.242   2.486   0.289  0.00  0.00    +0.222 C 
ATOM     20  N1  UNL     1      -0.159   1.877   1.010  0.00  0.00    -0.285 N 
ATOM     21  H14 UNL     1      -0.368   1.475   1.952  0.00  0.00    +0.155 HD
BRANCH  19  22
ATOM     22  C2  UNL     1      -2.541   2.760   0.983  0.00  0.00    +0.131 C 
BRANCH  22  23
ATOM     23  C3  UNL     1      -3.446   1.564   0.872  0.00  0.00    -0.038 A 
ATOM     24  C4  UNL     1      -3.396   0.546   1.834  0.00  0.00    +0.004 A 
ATOM     25  C5  UNL     1      -4.201  -0.587   1.705  0.00  0.00    +0.004 A 
ATOM     26  C6  UNL     1      -5.057  -0.732   0.603  0.00  0.00    -0.044 A 
ATOM     27  C7  UNL     1      -5.126   0.298  -0.365  0.00  0.00    -0.044 A 
ATOM     28  C8  UNL     1      -4.301   1.427  -0.233  0.00  0.00    +0.008 A 
ATOM     29  C9  UNL     1      -5.981   0.162  -1.604  0.00  0.00    +0.035 C 
ATOM     30  C10 UNL     1      -7.094  -0.878  -1.440  0.00  0.00    +0.005 C 
ATOM     31  C11 UNL     1      -6.527  -2.178  -0.869  0.00  0.00    +0.005 C 
ATOM     32  C12 UNL     1      -5.961  -1.942   0.535  0.00  0.00    +0.035 C 
ENDBRANCH  22  23
ENDBRANCH  19  22
ENDBRANCH   1  20
TORSDOF 4
