REMARK  Name = /home/qwerty/github/datacon2025hack/step_04_hit_selection/docking/ligands/lig_182.pdb
REMARK  4 active torsions:
REMARK  status: ('A' for Active; 'I' for Inactive)
REMARK    1  A    between atoms: C1_1  and  C2_2
REMARK    2  A    between atoms: C4_4  and  N1_5
REMARK    3  A    between atoms: C5_6  and  C6_8
REMARK    4  A    between atoms: C14_18  and  C15_20
REMARK                            x       y       z     vdW  Elec       q    Type
REMARK                         _______ _______ _______ _____ _____    ______ ____
ROOT
ATOM      1  C1  UNL     1       3.057  -0.378  -3.529  0.00  0.00    +0.028 C 
ATOM      2  C2  UNL     1       2.367  -1.216  -2.450  0.00  0.00    +0.075 C 
ATOM      3  C3  UNL     1       0.848  -1.029  -2.464  0.00  0.00    +0.046 C 
ATOM      4  C4  UNL     1       0.550  -0.040  -1.331  0.00  0.00    +0.092 C 
ATOM      5  C13 UNL     1       1.711  -0.197  -0.352  0.00  0.00    +0.130 C 
ATOM      6  N3  UNL     1       2.797  -0.777  -1.129  0.00  0.00    -0.292 N 
ATOM      7  C14 UNL     1       4.048  -1.176  -0.544  0.00  0.00    +0.263 C 
ATOM      8  O2  UNL     1       4.565  -2.280  -0.870  0.00  0.00    -0.268 OA
ENDROOT
BRANCH   7   9
ATOM      9  C15 UNL     1       4.746  -0.319   0.430  0.00  0.00    +0.102 A 
ATOM     10  C16 UNL     1       5.643  -0.762   1.384  0.00  0.00    +0.032 A 
ATOM     11  C17 UNL     1       6.100   0.365   2.037  0.00  0.00    +0.020 A 
ATOM     12  C18 UNL     1       5.476   1.444   1.445  0.00  0.00    +0.083 A 
ATOM     13  N4  UNL     1       4.657   1.024   0.464  0.00  0.00    -0.357 N 
ATOM     14  H22 UNL     1       4.109   1.638  -0.179  0.00  0.00    +0.165 HD
ENDBRANCH   7   9
BRANCH   4  15
ATOM     15  N1  UNL     1      -0.743  -0.300  -0.688  0.00  0.00    -0.306 N 
ATOM     16  C5  UNL     1      -1.299   0.601   0.283  0.00  0.00    +0.261 C 
ATOM     17  O1  UNL     1      -0.633   1.601   0.665  0.00  0.00    -0.269 OA
ATOM     18  H8  UNL     1      -1.289  -1.145  -0.964  0.00  0.00    +0.149 HD
BRANCH  16  19
ATOM     19  C6  UNL     1      -2.642   0.373   0.853  0.00  0.00    +0.102 A 
ATOM     20  C7  UNL     1      -3.589  -0.540   0.381  0.00  0.00    +0.036 A 
ATOM     21  C8  UNL     1      -4.699  -0.317   1.165  0.00  0.00    -0.026 A 
ATOM     22  C9  UNL     1      -4.418   0.675   2.014  0.00  0.00    +0.020 A 
ATOM     23  N2  UNL     1      -3.171   1.140   1.838  0.00  0.00    -0.354 N 
ATOM     24  C10 UNL     1      -5.613   1.348   2.552  0.00  0.00    +0.054 C 
ATOM     25  C11 UNL     1      -6.765   0.482   1.976  0.00  0.00    +0.011 C 
ATOM     26  C12 UNL     1      -6.146  -0.516   0.961  0.00  0.00    +0.037 C 
ATOM     27  H10 UNL     1      -2.750   1.987   2.283  0.00  0.00    +0.166 HD
ENDBRANCH  16  19
ENDBRANCH   4  15
TORSDOF 3
