REMARK  Name = /home/qwerty/github/datacon2025hack/step_04_hit_selection/docking/ligands/lig_520.pdb
REMARK  8 active torsions:
REMARK  status: ('A' for Active; 'I' for Inactive)
REMARK    1  A    between atoms: C1_1  and  C2_2
REMARK    2  A    between atoms: C2_2  and  C3_3
REMARK    3  A    between atoms: C2_2  and  C4_4
REMARK    4  A    between atoms: C7_7  and  N1_8
REMARK    5  A    between atoms: C10_12  and  S1_13
REMARK    6  A    between atoms: S1_13  and  C11_14
REMARK    7  A    between atoms: C11_14  and  C12_15
REMARK    8  A    between atoms: N3_17  and  C13_18
REMARK                            x       y       z     vdW  Elec       q    Type
REMARK                         _______ _______ _______ _____ _____    ______ ____
ROOT
ATOM      1  C11 UNL     1       0.877  -0.372   4.526  0.00  0.00    +0.173 C 
ENDROOT
BRANCH   1   2
ATOM      2  C12 UNL     1       1.450  -0.491   3.145  0.00  0.00    +0.228 C 
ATOM      3  O1  UNL     1       2.604  -0.031   2.926  0.00  0.00    -0.275 OA
ATOM      4  N3  UNL     1       0.742  -1.215   2.122  0.00  0.00    -0.284 N 
ATOM      5  H14 UNL     1      -0.125  -1.721   2.409  0.00  0.00    +0.155 HD
BRANCH   4   6
ATOM      6  C13 UNL     1       1.221  -1.394   0.773  0.00  0.00    +0.056 A 
ATOM      7  C14 UNL     1       1.914  -0.362   0.108  0.00  0.00    +0.074 A 
ATOM      8  C15 UNL     1       2.342  -0.532  -1.212  0.00  0.00    +0.164 A 
ATOM      9  C16 UNL     1       2.063  -1.720  -1.894  0.00  0.00    +0.164 A 
ATOM     10  C17 UNL     1       1.381  -2.754  -1.248  0.00  0.00    +0.071 A 
ATOM     11  C18 UNL     1       0.953  -2.595   0.078  0.00  0.00    +0.066 A 
ATOM     12 CL1  UNL     1       0.092  -3.926   0.842  0.00  0.00    -0.082 Cl
ATOM     13  O2  UNL     1       2.479  -1.855  -3.224  0.00  0.00    -0.485 OA
ATOM     14  C19 UNL     1       2.937  -0.725  -3.975  0.00  0.00    +0.270 C 
ATOM     15  C20 UNL     1       3.763   0.210  -3.080  0.00  0.00    +0.270 C 
ATOM     16  O3  UNL     1       3.055   0.477  -1.866  0.00  0.00    -0.485 OA
ENDBRANCH   4   6
ENDBRANCH   1   2
BRANCH   1  17
ATOM     17  S1  UNL     1      -0.875   0.138   4.505  0.00  0.00    -0.078 S 
BRANCH  17  22
ATOM     18  N1  UNL     1      -0.663   2.276   2.698  0.00  0.00    -0.295 N 
ATOM     19  C8  UNL     1      -0.289   3.569   2.757  0.00  0.00    +0.113 A 
ATOM     20  C9  UNL     1       0.029   3.871   4.062  0.00  0.00    +0.131 A 
ATOM     21  N2  UNL     1      -0.136   2.777   4.832  0.00  0.00    -0.230 NA
ATOM     22  C10 UNL     1      -0.551   1.822   3.969  0.00  0.00    +0.174 A 
BRANCH  18  26
ATOM     23  C4  UNL     1      -1.948   0.227  -0.818  0.00  0.00    -0.045 A 
ATOM     24  C5  UNL     1      -0.901   1.159  -0.873  0.00  0.00    +0.006 A 
ATOM     25  C6  UNL     1      -0.487   1.831   0.281  0.00  0.00    +0.026 A 
ATOM     26  C7  UNL     1      -1.104   1.580   1.516  0.00  0.00    +0.048 A 
ATOM     27  C21 UNL     1      -2.183   0.683   1.563  0.00  0.00    +0.026 A 
ATOM     28  C22 UNL     1      -2.598   0.012   0.411  0.00  0.00    +0.006 A 
BRANCH  23  30
ATOM     29  C1  UNL     1      -3.770   0.044  -2.530  0.00  0.00    +0.012 C 
ATOM     30  C2  UNL     1      -2.402  -0.477  -2.083  0.00  0.00    +0.013 C 
ATOM     31  C3  UNL     1      -2.423  -2.002  -1.910  0.00  0.00    +0.012 C 
ENDBRANCH  23  30
ENDBRANCH  18  26
ENDBRANCH  17  22
ENDBRANCH   1  17
TORSDOF 6
