REMARK  Name = /home/qwerty/github/datacon2025hack/step_04_hit_selection/docking/ligands/lig_231.pdb
REMARK  11 active torsions:
REMARK  status: ('A' for Active; 'I' for Inactive)
REMARK    1  A    between atoms: C1_1  and  O1_2
REMARK    2  A    between atoms: O1_2  and  C2_3
REMARK    3  A    between atoms: C4_5  and  C5_6
REMARK    4  A    between atoms: N1_8  and  C6_9
REMARK    5  A    between atoms: C8_11  and  C9_12
REMARK    6  A    between atoms: C12_15  and  N2_16
REMARK    7  A    between atoms: C13_17  and  C14_19
REMARK    8  A    between atoms: C23_29  and  O5_30
REMARK    9  A    between atoms: O5_30  and  C24_31
REMARK   10  A    between atoms: C25_32  and  O6_33
REMARK   11  A    between atoms: O6_33  and  C26_34
REMARK                            x       y       z     vdW  Elec       q    Type
REMARK                         _______ _______ _______ _____ _____    ______ ____
ROOT
ATOM      1  C6  UNL     1       0.882  -0.091   3.532  0.00  0.00    +0.055 A 
ATOM      2  C7  UNL     1       0.753  -0.411   4.892  0.00  0.00    +0.028 A 
ATOM      3  C8  UNL     1       1.768  -0.090   5.803  0.00  0.00    -0.049 A 
ATOM      4  C9  UNL     1       1.591  -0.398   7.261  0.00  0.00    +0.044 C 
ATOM      5  C10 UNL     1       2.912   0.582   5.353  0.00  0.00    +0.005 A 
ATOM      6  C11 UNL     1       3.067   0.877   3.997  0.00  0.00    +0.025 A 
ATOM      7  C12 UNL     1       2.078   0.515   3.070  0.00  0.00    +0.055 A 
ENDROOT
BRANCH   1  10
ATOM      8  C5  UNL     1      -0.722   0.574   1.706  0.00  0.00    +0.249 C 
ATOM      9  O2  UNL     1      -0.550   1.803   1.936  0.00  0.00    -0.270 OA
ATOM     10  N1  UNL     1      -0.212  -0.388   2.646  0.00  0.00    -0.280 N 
ATOM     11  H5  UNL     1      -0.703  -1.304   2.784  0.00  0.00    +0.155 HD
BRANCH   8  14
ATOM     12  C2  UNL     1      -2.521  -1.513  -0.947  0.00  0.00    +0.166 A 
ATOM     13  C3  UNL     1      -1.937  -1.122   0.273  0.00  0.00    +0.062 A 
ATOM     14  C4  UNL     1      -1.382   0.159   0.437  0.00  0.00    +0.044 A 
ATOM     15  C22 UNL     1      -1.424   1.056  -0.641  0.00  0.00    +0.062 A 
ATOM     16  C23 UNL     1      -2.002   0.685  -1.868  0.00  0.00    +0.166 A 
ATOM     17  C25 UNL     1      -2.548  -0.597  -2.028  0.00  0.00    +0.204 A 
BRANCH  12  19
ATOM     18  C1  UNL     1      -3.049  -3.826  -0.120  0.00  0.00    +0.277 C 
ATOM     19  O1  UNL     1      -3.067  -2.799  -1.106  0.00  0.00    -0.491 OA
ENDBRANCH  12  19
BRANCH  16  20
ATOM     20  O5  UNL     1      -2.059   1.568  -2.958  0.00  0.00    -0.491 OA
ATOM     21  C24 UNL     1      -1.629   2.927  -2.922  0.00  0.00    +0.277 C 
ENDBRANCH  16  20
BRANCH  17  22
ATOM     22  O6  UNL     1      -3.094  -0.900  -3.291  0.00  0.00    -0.488 OA
ATOM     23  C26 UNL     1      -3.895  -2.028  -3.615  0.00  0.00    +0.277 C 
ENDBRANCH  17  22
ENDBRANCH   8  14
ENDBRANCH   1  10
BRANCH   7  24
ATOM     24  N2  UNL     1       2.316   0.772   1.675  0.00  0.00    -0.277 N 
ATOM     25  C13 UNL     1       2.088  -0.207   0.649  0.00  0.00    +0.284 C 
ATOM     26  O3  UNL     1       1.948  -1.423   0.954  0.00  0.00    -0.266 OA
ATOM     27  H12 UNL     1       2.825   1.648   1.422  0.00  0.00    +0.155 HD
BRANCH  25  28
ATOM     28  C14 UNL     1       1.999   0.187  -0.766  0.00  0.00    +0.191 A 
ATOM     29  C15 UNL     1       2.134   1.482  -1.269  0.00  0.00    +0.063 A 
ATOM     30  C16 UNL     1       1.963   1.336  -2.627  0.00  0.00    +0.021 A 
ATOM     31  C17 UNL     1       1.996   2.276  -3.655  0.00  0.00    +0.011 A 
ATOM     32  C18 UNL     1       1.777   1.816  -4.968  0.00  0.00    +0.001 A 
ATOM     33  C19 UNL     1       1.531   0.444  -5.215  0.00  0.00    +0.004 A 
ATOM     34  C20 UNL     1       1.505  -0.479  -4.153  0.00  0.00    +0.047 A 
ATOM     35  C21 UNL     1       1.730   0.007  -2.865  0.00  0.00    +0.136 A 
ATOM     36  O4  UNL     1       1.756  -0.672  -1.744  0.00  0.00    -0.450 OA
ENDBRANCH  25  28
ENDBRANCH   7  24
TORSDOF 7
