MODEL 1
REMARK VINA RESULT:    -8.206      0.000      0.000
REMARK INTER + INTRA:          -9.540
REMARK INTER:                  -9.166
REMARK INTRA:                  -0.374
REMARK UNBOUND:                -0.374
REMARK  Name = /home/qwerty/github/datacon2025hack/step_04_hit_selection/docking/ligands/lig_607.pdb
REMARK  2 active torsions:
REMARK  status: ('A' for Active; 'I' for Inactive)
REMARK    1  A    between atoms: C4_6  and  C5_7
REMARK    2  A    between atoms: N4_15  and  C11_16
REMARK                            x       y       z     vdW  Elec       q    Type
REMARK                         _______ _______ _______ _____ _____    ______ ____
ROOT
ATOM      1  O1  UNL     1      20.661   4.252  34.205  0.00  0.00    -0.252 OA
ATOM      2  C1  UNL     1      21.835   3.993  33.825  0.00  0.00    +0.309 C 
ATOM      3  N1  UNL     1      22.934   4.813  34.252  0.00  0.00    -0.253 N 
ATOM      4  C2  UNL     1      22.792   6.056  34.956  0.00  0.00    +0.148 A 
ATOM      5  C3  UNL     1      21.678   6.879  34.973  0.00  0.00    +0.068 A 
ATOM      6  C4  UNL     1      22.071   7.945  35.758  0.00  0.00    +0.041 A 
ATOM      7  N2  UNL     1      23.339   7.746  36.171  0.00  0.00    -0.280 N 
ATOM      8  N3  UNL     1      23.789   6.604  35.678  0.00  0.00    -0.158 NA
ATOM      9  N4  UNL     1      22.094   2.828  33.027  0.00  0.00    -0.269 N 
ATOM     10  H1  UNL     1      23.903   4.454  34.101  0.00  0.00    +0.158 HD
ATOM     11  H14 UNL     1      23.900   8.377  36.783  0.00  0.00    +0.189 HD
ATOM     12  H15 UNL     1      23.089   2.530  32.916  0.00  0.00    +0.156 HD
ENDROOT
BRANCH   9  13
ATOM     13  C11 UNL     1      21.066   1.986  32.475  0.00  0.00    +0.040 A 
ATOM     14  C12 UNL     1      20.193   1.243  33.298  0.00  0.00    +0.024 A 
ATOM     15  C13 UNL     1      19.189   0.437  32.729  0.00  0.00    +0.002 A 
ATOM     16  C14 UNL     1      19.034   0.372  31.337  0.00  0.00    +0.005 A 
ATOM     17  C15 UNL     1      19.888   1.130  30.537  0.00  0.00    -0.024 A 
ATOM     18  C16 UNL     1      20.872   1.922  31.087  0.00  0.00    -0.004 A 
ATOM     19  C17 UNL     1      21.650   2.602  30.018  0.00  0.00    +0.144 C 
ATOM     20  N5  UNL     1      21.016   2.123  28.791  0.00  0.00    -0.301 N 
ATOM     21  C18 UNL     1      21.447   2.504  27.479  0.00  0.00    +0.161 A 
ATOM     22  N6  UNL     1      22.498   3.320  27.252  0.00  0.00    -0.233 NA
ATOM     23  C19 UNL     1      22.704   3.517  25.923  0.00  0.00    +0.120 A 
ATOM     24  C20 UNL     1      21.816   2.853  25.083  0.00  0.00    +0.068 A 
ATOM     25  S1  UNL     1      20.736   1.989  26.042  0.00  0.00    -0.061 S 
ATOM     26  C21 UNL     1      19.909   1.205  29.055  0.00  0.00    +0.142 C 
ENDBRANCH   9  13
BRANCH   6  27
ATOM     27  C5  UNL     1      21.212   9.127  36.134  0.00  0.00    +0.037 C 
ATOM     28  C6  UNL     1      20.111   8.707  37.138  0.00  0.00    +0.010 C 
ATOM     29  C7  UNL     1      18.983   9.741  37.175  0.00  0.00    +0.001 C 
ATOM     30  C8  UNL     1      18.282   9.873  35.807  0.00  0.00    +0.000 C 
ATOM     31  C9  UNL     1      19.179   9.491  34.612  0.00  0.00    +0.001 C 
ATOM     32  C10 UNL     1      20.651   9.835  34.873  0.00  0.00    +0.010 C 
ENDBRANCH   6  27
TORSDOF 2
ENDMDL
MODEL 2
REMARK VINA RESULT:    -8.099      5.963     11.792
REMARK INTER + INTRA:          -9.419
REMARK INTER:                  -9.023
REMARK INTRA:                  -0.397
REMARK UNBOUND:                -0.374
REMARK  Name = /home/qwerty/github/datacon2025hack/step_04_hit_selection/docking/ligands/lig_607.pdb
REMARK  2 active torsions:
REMARK  status: ('A' for Active; 'I' for Inactive)
REMARK    1  A    between atoms: C4_6  and  C5_7
REMARK    2  A    between atoms: N4_15  and  C11_16
REMARK                            x       y       z     vdW  Elec       q    Type
REMARK                         _______ _______ _______ _____ _____    ______ ____
ROOT
ATOM      1  O1  UNL     1      18.546   1.845  23.986  0.00  0.00    -0.252 OA
ATOM      2  C1  UNL     1      19.069   0.754  24.341  0.00  0.00    +0.309 C 
ATOM      3  N1  UNL     1      18.469  -0.495  23.966  0.00  0.00    -0.253 N 
ATOM      4  C2  UNL     1      17.178  -0.622  23.351  0.00  0.00    +0.148 A 
ATOM      5  C3  UNL     1      16.142   0.296  23.397  0.00  0.00    +0.068 A 
ATOM      6  C4  UNL     1      15.129  -0.317  22.686  0.00  0.00    +0.041 A 
ATOM      7  N2  UNL     1      15.560  -1.520  22.252  0.00  0.00    -0.280 N 
ATOM      8  N3  UNL     1      16.802  -1.717  22.663  0.00  0.00    -0.158 NA
ATOM      9  N4  UNL     1      20.315   0.751  25.055  0.00  0.00    -0.269 N 
ATOM     10  H1  UNL     1      19.033  -1.366  24.085  0.00  0.00    +0.158 HD
ATOM     11  H14 UNL     1      15.019  -2.206  21.683  0.00  0.00    +0.189 HD
ATOM     12  H15 UNL     1      20.821  -0.158  25.139  0.00  0.00    +0.156 HD
ENDROOT
BRANCH   9  13
ATOM     13  C11 UNL     1      20.960   1.937  25.553  0.00  0.00    +0.040 A 
ATOM     14  C12 UNL     1      21.508   2.905  24.684  0.00  0.00    +0.024 A 
ATOM     15  C13 UNL     1      22.122   4.062  25.201  0.00  0.00    +0.002 A 
ATOM     16  C14 UNL     1      22.187   4.273  26.585  0.00  0.00    +0.005 A 
ATOM     17  C15 UNL     1      21.621   3.320  27.431  0.00  0.00    -0.024 A 
ATOM     18  C16 UNL     1      21.016   2.187  26.932  0.00  0.00    -0.004 A 
ATOM     19  C17 UNL     1      20.519   1.332  28.042  0.00  0.00    +0.144 C 
ATOM     20  N5  UNL     1      20.896   2.086  29.236  0.00  0.00    -0.301 N 
ATOM     21  C18 UNL     1      20.631   1.637  30.570  0.00  0.00    +0.161 A 
ATOM     22  N6  UNL     1      20.033   0.459  30.850  0.00  0.00    -0.233 NA
ATOM     23  C19 UNL     1      19.907   0.265  32.189  0.00  0.00    +0.120 A 
ATOM     24  C20 UNL     1      20.410   1.290  32.984  0.00  0.00    +0.068 A 
ATOM     25  S1  UNL     1      21.034   2.479  31.971  0.00  0.00    -0.061 S 
ATOM     26  C21 UNL     1      21.583   3.336  28.914  0.00  0.00    +0.142 C 
ENDBRANCH   9  13
BRANCH   6  27
ATOM     27  C5  UNL     1      13.772   0.272  22.397  0.00  0.00    +0.037 C 
ATOM     28  C6  UNL     1      13.836   1.227  21.180  0.00  0.00    +0.010 C 
ATOM     29  C7  UNL     1      12.624   2.162  21.155  0.00  0.00    +0.001 C 
ATOM     30  C8  UNL     1      12.574   3.068  22.403  0.00  0.00    +0.000 C 
ATOM     31  C9  UNL     1      13.282   2.466  23.634  0.00  0.00    +0.001 C 
ATOM     32  C10 UNL     1      13.169   0.937  23.664  0.00  0.00    +0.010 C 
ENDBRANCH   6  27
TORSDOF 2
ENDMDL
MODEL 3
REMARK VINA RESULT:    -7.543      4.036      8.418
REMARK INTER + INTRA:          -8.799
REMARK INTER:                  -8.167
REMARK INTRA:                  -0.632
REMARK UNBOUND:                -0.374
REMARK  Name = /home/qwerty/github/datacon2025hack/step_04_hit_selection/docking/ligands/lig_607.pdb
REMARK  2 active torsions:
REMARK  status: ('A' for Active; 'I' for Inactive)
REMARK    1  A    between atoms: C4_6  and  C5_7
REMARK    2  A    between atoms: N4_15  and  C11_16
REMARK                            x       y       z     vdW  Elec       q    Type
REMARK                         _______ _______ _______ _____ _____    ______ ____
ROOT
ATOM      1  O1  UNL     1      23.071   5.212  31.937  0.00  0.00    -0.252 OA
ATOM      2  C1  UNL     1      22.423   5.508  32.978  0.00  0.00    +0.309 C 
ATOM      3  N1  UNL     1      21.603   4.523  33.626  0.00  0.00    -0.253 N 
ATOM      4  C2  UNL     1      21.298   3.233  33.077  0.00  0.00    +0.148 A 
ATOM      5  C3  UNL     1      21.343   2.867  31.742  0.00  0.00    +0.068 A 
ATOM      6  C4  UNL     1      20.930   1.549  31.750  0.00  0.00    +0.041 A 
ATOM      7  N2  UNL     1      20.664   1.177  33.019  0.00  0.00    -0.280 N 
ATOM      8  N3  UNL     1      20.874   2.200  33.831  0.00  0.00    -0.158 NA
ATOM      9  N4  UNL     1      22.565   6.808  33.571  0.00  0.00    -0.269 N 
ATOM     10  H1  UNL     1      21.257   4.730  34.590  0.00  0.00    +0.158 HD
ATOM     11  H14 UNL     1      20.341   0.238  33.337  0.00  0.00    +0.189 HD
ATOM     12  H15 UNL     1      22.191   6.942  34.536  0.00  0.00    +0.156 HD
ENDROOT
BRANCH   9  13
ATOM     13  C11 UNL     1      23.291   7.893  32.966  0.00  0.00    +0.040 A 
ATOM     14  C12 UNL     1      24.645   8.145  33.276  0.00  0.00    +0.024 A 
ATOM     15  C13 UNL     1      25.333   9.207  32.658  0.00  0.00    +0.002 A 
ATOM     16  C14 UNL     1      24.685  10.020  31.718  0.00  0.00    +0.005 A 
ATOM     17  C15 UNL     1      23.355   9.746  31.404  0.00  0.00    -0.024 A 
ATOM     18  C16 UNL     1      22.676   8.707  32.003  0.00  0.00    -0.004 A 
ATOM     19  C17 UNL     1      21.276   8.648  31.509  0.00  0.00    +0.144 C 
ATOM     20  N5  UNL     1      21.211   9.759  30.561  0.00  0.00    -0.301 N 
ATOM     21  C18 UNL     1      20.028  10.109  29.833  0.00  0.00    +0.161 A 
ATOM     22  N6  UNL     1      18.852   9.462  29.977  0.00  0.00    -0.233 NA
ATOM     23  C19 UNL     1      17.886   9.993  29.182  0.00  0.00    +0.120 A 
ATOM     24  C20 UNL     1      18.289  11.072  28.403  0.00  0.00    +0.068 A 
ATOM     25  S1  UNL     1      19.914  11.369  28.723  0.00  0.00    -0.061 S 
ATOM     26  C21 UNL     1      22.481  10.476  30.453  0.00  0.00    +0.142 C 
ENDBRANCH   9  13
BRANCH   6  27
ATOM     27  C5  UNL     1      20.830   0.648  30.545  0.00  0.00    +0.037 C 
ATOM     28  C6  UNL     1      22.173   0.613  29.774  0.00  0.00    +0.010 C 
ATOM     29  C7  UNL     1      21.969   0.100  28.346  0.00  0.00    +0.001 C 
ATOM     30  C8  UNL     1      21.037   1.022  27.533  0.00  0.00    +0.000 C 
ATOM     31  C9  UNL     1      20.047   1.823  28.402  0.00  0.00    +0.001 C 
ATOM     32  C10 UNL     1      19.623   1.040  29.651  0.00  0.00    +0.010 C 
ENDBRANCH   6  27
TORSDOF 2
ENDMDL
MODEL 4
REMARK VINA RESULT:    -7.492      3.157      5.630
REMARK INTER + INTRA:          -8.741
REMARK INTER:                  -8.295
REMARK INTRA:                  -0.447
REMARK UNBOUND:                -0.374
REMARK  Name = /home/qwerty/github/datacon2025hack/step_04_hit_selection/docking/ligands/lig_607.pdb
REMARK  2 active torsions:
REMARK  status: ('A' for Active; 'I' for Inactive)
REMARK    1  A    between atoms: C4_6  and  C5_7
REMARK    2  A    between atoms: N4_15  and  C11_16
REMARK                            x       y       z     vdW  Elec       q    Type
REMARK                         _______ _______ _______ _____ _____    ______ ____
ROOT
ATOM      1  O1  UNL     1      21.481   4.097  29.400  0.00  0.00    -0.252 OA
ATOM      2  C1  UNL     1      21.671   2.878  29.660  0.00  0.00    +0.309 C 
ATOM      3  N1  UNL     1      21.875   2.448  31.014  0.00  0.00    -0.253 N 
ATOM      4  C2  UNL     1      22.069   3.335  32.126  0.00  0.00    +0.148 A 
ATOM      5  C3  UNL     1      22.514   4.646  32.075  0.00  0.00    +0.068 A 
ATOM      6  C4  UNL     1      22.557   5.029  33.402  0.00  0.00    +0.041 A 
ATOM      7  N2  UNL     1      22.158   3.996  34.172  0.00  0.00    -0.280 N 
ATOM      8  N3  UNL     1      21.871   2.958  33.404  0.00  0.00    -0.158 NA
ATOM      9  N4  UNL     1      21.603   1.899  28.612  0.00  0.00    -0.269 N 
ATOM     10  H1  UNL     1      21.813   1.426  31.220  0.00  0.00    +0.158 HD
ATOM     11  H14 UNL     1      22.080   3.990  35.212  0.00  0.00    +0.189 HD
ATOM     12  H15 UNL     1      21.548   0.894  28.893  0.00  0.00    +0.156 HD
ENDROOT
BRANCH   9  13
ATOM     13  C11 UNL     1      21.487   2.221  27.215  0.00  0.00    +0.040 A 
ATOM     14  C12 UNL     1      22.486   2.951  26.535  0.00  0.00    +0.024 A 
ATOM     15  C13 UNL     1      22.351   3.241  25.164  0.00  0.00    +0.002 A 
ATOM     16  C14 UNL     1      21.226   2.798  24.453  0.00  0.00    +0.005 A 
ATOM     17  C15 UNL     1      20.259   2.058  25.131  0.00  0.00    -0.024 A 
ATOM     18  C16 UNL     1      20.386   1.769  26.472  0.00  0.00    -0.004 A 
ATOM     19  C17 UNL     1      19.212   0.992  26.949  0.00  0.00    +0.144 C 
ATOM     20  N5  UNL     1      18.391   0.859  25.748  0.00  0.00    -0.301 N 
ATOM     21  C18 UNL     1      17.127   0.184  25.725  0.00  0.00    +0.161 A 
ATOM     22  N6  UNL     1      16.563  -0.368  26.820  0.00  0.00    -0.233 NA
ATOM     23  C19 UNL     1      15.363  -0.937  26.533  0.00  0.00    +0.120 A 
ATOM     24  C20 UNL     1      14.963  -0.837  25.205  0.00  0.00    +0.068 A 
ATOM     25  S1  UNL     1      16.158  -0.005  24.361  0.00  0.00    -0.061 S 
ATOM     26  C21 UNL     1      18.997   1.502  24.583  0.00  0.00    +0.142 C 
ENDBRANCH   9  13
BRANCH   6  27
ATOM     27  C5  UNL     1      22.945   6.392  33.914  0.00  0.00    +0.037 C 
ATOM     28  C6  UNL     1      22.349   7.505  33.017  0.00  0.00    +0.010 C 
ATOM     29  C7  UNL     1      23.084   8.831  33.231  0.00  0.00    +0.001 C 
ATOM     30  C8  UNL     1      24.575   8.729  32.846  0.00  0.00    +0.000 C 
ATOM     31  C9  UNL     1      25.146   7.301  32.955  0.00  0.00    +0.001 C 
ATOM     32  C10 UNL     1      24.484   6.508  34.089  0.00  0.00    +0.010 C 
ENDBRANCH   6  27
TORSDOF 2
ENDMDL
MODEL 5
REMARK VINA RESULT:    -7.488     12.333     16.825
REMARK INTER + INTRA:          -8.737
REMARK INTER:                  -8.159
REMARK INTRA:                  -0.579
REMARK UNBOUND:                -0.374
REMARK  Name = /home/qwerty/github/datacon2025hack/step_04_hit_selection/docking/ligands/lig_607.pdb
REMARK  2 active torsions:
REMARK  status: ('A' for Active; 'I' for Inactive)
REMARK    1  A    between atoms: C4_6  and  C5_7
REMARK    2  A    between atoms: N4_15  and  C11_16
REMARK                            x       y       z     vdW  Elec       q    Type
REMARK                         _______ _______ _______ _____ _____    ______ ____
ROOT
ATOM      1  O1  UNL     1      20.358  12.067  20.035  0.00  0.00    -0.252 OA
ATOM      2  C1  UNL     1      19.480  12.808  19.517  0.00  0.00    +0.309 C 
ATOM      3  N1  UNL     1      18.173  12.289  19.224  0.00  0.00    -0.253 N 
ATOM      4  C2  UNL     1      17.815  10.902  19.305  0.00  0.00    +0.148 A 
ATOM      5  C3  UNL     1      18.674   9.817  19.245  0.00  0.00    +0.068 A 
ATOM      6  C4  UNL     1      17.831   8.726  19.333  0.00  0.00    +0.041 A 
ATOM      7  N2  UNL     1      16.559   9.159  19.441  0.00  0.00    -0.280 N 
ATOM      8  N3  UNL     1      16.539  10.482  19.412  0.00  0.00    -0.158 NA
ATOM      9  N4  UNL     1      19.753  14.199  19.290  0.00  0.00    -0.269 N 
ATOM     10  H1  UNL     1      17.413  12.970  19.001  0.00  0.00    +0.158 HD
ATOM     11  H14 UNL     1      15.705   8.567  19.531  0.00  0.00    +0.189 HD
ATOM     12  H15 UNL     1      18.943  14.820  19.066  0.00  0.00    +0.156 HD
ENDROOT
BRANCH   9  13
ATOM     13  C11 UNL     1      21.045  14.805  19.467  0.00  0.00    +0.040 A 
ATOM     14  C12 UNL     1      21.976  14.892  18.410  0.00  0.00    +0.024 A 
ATOM     15  C13 UNL     1      23.229  15.502  18.610  0.00  0.00    +0.002 A 
ATOM     16  C14 UNL     1      23.563  16.043  19.860  0.00  0.00    +0.005 A 
ATOM     17  C15 UNL     1      22.625  15.971  20.889  0.00  0.00    -0.024 A 
ATOM     18  C16 UNL     1      21.397  15.377  20.699  0.00  0.00    -0.004 A 
ATOM     19  C17 UNL     1      20.602  15.415  21.954  0.00  0.00    +0.144 C 
ATOM     20  N5  UNL     1      21.495  16.092  22.892  0.00  0.00    -0.301 N 
ATOM     21  C18 UNL     1      21.157  16.347  24.261  0.00  0.00    +0.161 A 
ATOM     22  N6  UNL     1      19.992  15.958  24.821  0.00  0.00    -0.233 NA
ATOM     23  C19 UNL     1      19.922  16.312  26.131  0.00  0.00    +0.120 A 
ATOM     24  C20 UNL     1      21.037  16.983  26.623  0.00  0.00    +0.068 A 
ATOM     25  S1  UNL     1      22.149  17.136  25.370  0.00  0.00    -0.061 S 
ATOM     26  C21 UNL     1      22.770  16.465  22.280  0.00  0.00    +0.142 C 
ENDBRANCH   9  13
BRANCH   6  27
ATOM     27  C5  UNL     1      18.259   7.280  19.351  0.00  0.00    +0.037 C 
ATOM     28  C6  UNL     1      18.158   6.696  20.781  0.00  0.00    +0.010 C 
ATOM     29  C7  UNL     1      18.995   5.421  20.911  0.00  0.00    +0.001 C 
ATOM     30  C8  UNL     1      20.495   5.694  20.669  0.00  0.00    +0.000 C 
ATOM     31  C9  UNL     1      20.764   6.918  19.770  0.00  0.00    +0.001 C 
ATOM     32  C10 UNL     1      19.665   7.104  18.717  0.00  0.00    +0.010 C 
ENDBRANCH   6  27
TORSDOF 2
ENDMDL
MODEL 6
REMARK VINA RESULT:    -7.318     10.294     13.112
REMARK INTER + INTRA:          -8.548
REMARK INTER:                  -7.952
REMARK INTRA:                  -0.596
REMARK UNBOUND:                -0.374
REMARK  Name = /home/qwerty/github/datacon2025hack/step_04_hit_selection/docking/ligands/lig_607.pdb
REMARK  2 active torsions:
REMARK  status: ('A' for Active; 'I' for Inactive)
REMARK    1  A    between atoms: C4_6  and  C5_7
REMARK    2  A    between atoms: N4_15  and  C11_16
REMARK                            x       y       z     vdW  Elec       q    Type
REMARK                         _______ _______ _______ _____ _____    ______ ____
ROOT
ATOM      1  O1  UNL     1      13.734  13.512  31.975  0.00  0.00    -0.252 OA
ATOM      2  C1  UNL     1      12.767  14.283  32.220  0.00  0.00    +0.309 C 
ATOM      3  N1  UNL     1      12.426  14.612  33.576  0.00  0.00    -0.253 N 
ATOM      4  C2  UNL     1      12.995  13.978  34.731  0.00  0.00    +0.148 A 
ATOM      5  C3  UNL     1      13.592  12.729  34.784  0.00  0.00    +0.068 A 
ATOM      6  C4  UNL     1      13.932  12.585  36.115  0.00  0.00    +0.041 A 
ATOM      7  N2  UNL     1      13.553  13.690  36.789  0.00  0.00    -0.280 N 
ATOM      8  N3  UNL     1      12.972  14.537  35.956  0.00  0.00    -0.158 NA
ATOM      9  N4  UNL     1      12.049  14.904  31.143  0.00  0.00    -0.269 N 
ATOM     10  H1  UNL     1      11.772  15.409  33.738  0.00  0.00    +0.158 HD
ATOM     11  H14 UNL     1      13.685  13.872  37.808  0.00  0.00    +0.189 HD
ATOM     12  H15 UNL     1      11.408  15.693  31.381  0.00  0.00    +0.156 HD
ENDROOT
BRANCH   9  13
ATOM     13  C11 UNL     1      12.249  14.586  29.754  0.00  0.00    +0.040 A 
ATOM     14  C12 UNL     1      13.250  15.217  28.984  0.00  0.00    +0.024 A 
ATOM     15  C13 UNL     1      13.430  14.876  27.630  0.00  0.00    +0.002 A 
ATOM     16  C14 UNL     1      12.625  13.896  27.032  0.00  0.00    +0.005 A 
ATOM     17  C15 UNL     1      11.656  13.265  27.810  0.00  0.00    -0.024 A 
ATOM     18  C16 UNL     1      11.476  13.592  29.136  0.00  0.00    -0.004 A 
ATOM     19  C17 UNL     1      10.370  12.790  29.723  0.00  0.00    +0.144 C 
ATOM     20  N5  UNL     1       9.928  11.964  28.601  0.00  0.00    -0.301 N 
ATOM     21  C18 UNL     1       8.850  11.024  28.690  0.00  0.00    +0.161 A 
ATOM     22  N6  UNL     1       8.122  10.836  29.811  0.00  0.00    -0.233 NA
ATOM     23  C19 UNL     1       7.155   9.898  29.630  0.00  0.00    +0.120 A 
ATOM     24  C20 UNL     1       7.106   9.337  28.358  0.00  0.00    +0.068 A 
ATOM     25  S1  UNL     1       8.318  10.043  27.429  0.00  0.00    -0.061 S 
ATOM     26  C21 UNL     1      10.697  12.216  27.384  0.00  0.00    +0.142 C 
ENDBRANCH   9  13
BRANCH   6  27
ATOM     27  C5  UNL     1      14.649  11.404  36.719  0.00  0.00    +0.037 C 
ATOM     28  C6  UNL     1      15.987  11.846  37.362  0.00  0.00    +0.010 C 
ATOM     29  C7  UNL     1      16.919  10.648  37.561  0.00  0.00    +0.001 C 
ATOM     30  C8  UNL     1      17.292   9.982  36.219  0.00  0.00    +0.000 C 
ATOM     31  C9  UNL     1      16.239  10.191  35.112  0.00  0.00    +0.001 C 
ATOM     32  C10 UNL     1      14.818  10.261  35.682  0.00  0.00    +0.010 C 
ENDBRANCH   6  27
TORSDOF 2
ENDMDL
MODEL 7
REMARK VINA RESULT:    -7.309      3.164      5.791
REMARK INTER + INTRA:          -8.538
REMARK INTER:                  -8.015
REMARK INTRA:                  -0.523
REMARK UNBOUND:                -0.374
REMARK  Name = /home/qwerty/github/datacon2025hack/step_04_hit_selection/docking/ligands/lig_607.pdb
REMARK  2 active torsions:
REMARK  status: ('A' for Active; 'I' for Inactive)
REMARK    1  A    between atoms: C4_6  and  C5_7
REMARK    2  A    between atoms: N4_15  and  C11_16
REMARK                            x       y       z     vdW  Elec       q    Type
REMARK                         _______ _______ _______ _____ _____    ______ ____
ROOT
ATOM      1  O1  UNL     1      20.551   8.433  34.786  0.00  0.00    -0.252 OA
ATOM      2  C1  UNL     1      20.780   7.852  35.881  0.00  0.00    +0.309 C 
ATOM      3  N1  UNL     1      20.039   8.206  37.059  0.00  0.00    -0.253 N 
ATOM      4  C2  UNL     1      19.152   9.330  37.151  0.00  0.00    +0.148 A 
ATOM      5  C3  UNL     1      19.163  10.465  36.357  0.00  0.00    +0.068 A 
ATOM      6  C4  UNL     1      18.143  11.238  36.877  0.00  0.00    +0.041 A 
ATOM      7  N2  UNL     1      17.576  10.584  37.911  0.00  0.00    -0.280 N 
ATOM      8  N3  UNL     1      18.192   9.427  38.092  0.00  0.00    -0.158 NA
ATOM      9  N4  UNL     1      21.726   6.773  35.941  0.00  0.00    -0.269 N 
ATOM     10  H1  UNL     1      20.096   7.569  37.885  0.00  0.00    +0.158 HD
ATOM     11  H14 UNL     1      16.777  10.916  38.494  0.00  0.00    +0.189 HD
ATOM     12  H15 UNL     1      21.728   6.180  36.800  0.00  0.00    +0.156 HD
ENDROOT
BRANCH   9  13
ATOM     13  C11 UNL     1      22.580   6.390  34.848  0.00  0.00    +0.040 A 
ATOM     14  C12 UNL     1      23.745   7.118  34.526  0.00  0.00    +0.024 A 
ATOM     15  C13 UNL     1      24.569   6.711  33.459  0.00  0.00    +0.002 A 
ATOM     16  C14 UNL     1      24.248   5.570  32.710  0.00  0.00    +0.005 A 
ATOM     17  C15 UNL     1      23.107   4.848  33.054  0.00  0.00    -0.024 A 
ATOM     18  C16 UNL     1      22.298   5.238  34.098  0.00  0.00    -0.004 A 
ATOM     19  C17 UNL     1      21.144   4.312  34.237  0.00  0.00    +0.144 C 
ATOM     20  N5  UNL     1      21.366   3.343  33.165  0.00  0.00    -0.301 N 
ATOM     21  C18 UNL     1      20.483   2.247  32.895  0.00  0.00    +0.161 A 
ATOM     22  N6  UNL     1      19.346   2.025  33.587  0.00  0.00    -0.233 NA
ATOM     23  C19 UNL     1      18.685   0.930  33.129  0.00  0.00    +0.120 A 
ATOM     24  C20 UNL     1      19.293   0.275  32.063  0.00  0.00    +0.068 A 
ATOM     25  S1  UNL     1      20.710   1.101  31.683  0.00  0.00    -0.061 S 
ATOM     26  C21 UNL     1      22.578   3.626  32.398  0.00  0.00    +0.142 C 
ENDBRANCH   9  13
BRANCH   6  27
ATOM     27  C5  UNL     1      17.700  12.580  36.353  0.00  0.00    +0.037 C 
ATOM     28  C6  UNL     1      16.333  12.982  36.959  0.00  0.00    +0.010 C 
ATOM     29  C7  UNL     1      15.664  14.075  36.122  0.00  0.00    +0.001 C 
ATOM     30  C8  UNL     1      15.367  13.597  34.686  0.00  0.00    +0.000 C 
ATOM     31  C9  UNL     1      16.305  12.473  34.201  0.00  0.00    +0.001 C 
ATOM     32  C10 UNL     1      17.710  12.607  34.800  0.00  0.00    +0.010 C 
ENDBRANCH   6  27
TORSDOF 2
ENDMDL
MODEL 8
REMARK VINA RESULT:    -7.263      3.303      9.226
REMARK INTER + INTRA:          -8.486
REMARK INTER:                  -7.973
REMARK INTRA:                  -0.513
REMARK UNBOUND:                -0.374
REMARK  Name = /home/qwerty/github/datacon2025hack/step_04_hit_selection/docking/ligands/lig_607.pdb
REMARK  2 active torsions:
REMARK  status: ('A' for Active; 'I' for Inactive)
REMARK    1  A    between atoms: C4_6  and  C5_7
REMARK    2  A    between atoms: N4_15  and  C11_16
REMARK                            x       y       z     vdW  Elec       q    Type
REMARK                         _______ _______ _______ _____ _____    ______ ____
ROOT
ATOM      1  O1  UNL     1      20.691   3.352  28.598  0.00  0.00    -0.252 OA
ATOM      2  C1  UNL     1      21.727   2.648  28.452  0.00  0.00    +0.309 C 
ATOM      3  N1  UNL     1      22.491   2.725  27.238  0.00  0.00    -0.253 N 
ATOM      4  C2  UNL     1      22.070   3.424  26.058  0.00  0.00    +0.148 A 
ATOM      5  C3  UNL     1      20.771   3.756  25.708  0.00  0.00    +0.068 A 
ATOM      6  C4  UNL     1      20.911   4.379  24.483  0.00  0.00    +0.041 A 
ATOM      7  N2  UNL     1      22.218   4.405  24.148  0.00  0.00    -0.280 N 
ATOM      8  N3  UNL     1      22.928   3.816  25.096  0.00  0.00    -0.158 NA
ATOM      9  N4  UNL     1      22.197   1.823  29.529  0.00  0.00    -0.269 N 
ATOM     10  H1  UNL     1      23.446   2.302  27.232  0.00  0.00    +0.158 HD
ATOM     11  H14 UNL     1      22.630   4.818  23.284  0.00  0.00    +0.189 HD
ATOM     12  H15 UNL     1      23.161   1.430  29.452  0.00  0.00    +0.156 HD
ENDROOT
BRANCH   9  13
ATOM     13  C11 UNL     1      21.471   1.607  30.752  0.00  0.00    +0.040 A 
ATOM     14  C12 UNL     1      20.641   0.479  30.934  0.00  0.00    +0.024 A 
ATOM     15  C13 UNL     1      19.953   0.287  32.147  0.00  0.00    +0.002 A 
ATOM     16  C14 UNL     1      20.093   1.208  33.196  0.00  0.00    +0.005 A 
ATOM     17  C15 UNL     1      20.934   2.304  33.011  0.00  0.00    -0.024 A 
ATOM     18  C16 UNL     1      21.612   2.497  31.828  0.00  0.00    -0.004 A 
ATOM     19  C17 UNL     1      22.417   3.745  31.887  0.00  0.00    +0.144 C 
ATOM     20  N5  UNL     1      22.136   4.257  33.227  0.00  0.00    -0.301 N 
ATOM     21  C18 UNL     1      22.690   5.474  33.740  0.00  0.00    +0.161 A 
ATOM     22  N6  UNL     1      23.501   6.279  33.021  0.00  0.00    -0.233 NA
ATOM     23  C19 UNL     1      23.881   7.374  33.732  0.00  0.00    +0.120 A 
ATOM     24  C20 UNL     1      23.369   7.447  35.023  0.00  0.00    +0.068 A 
ATOM     25  S1  UNL     1      22.406   6.091  35.281  0.00  0.00    -0.061 S 
ATOM     26  C21 UNL     1      21.220   3.396  33.974  0.00  0.00    +0.142 C 
ENDBRANCH   9  13
BRANCH   6  27
ATOM     27  C5  UNL     1      19.795   4.975  23.664  0.00  0.00    +0.037 C 
ATOM     28  C6  UNL     1      19.413   4.037  22.493  0.00  0.00    +0.010 C 
ATOM     29  C7  UNL     1      18.636   4.798  21.415  0.00  0.00    +0.001 C 
ATOM     30  C8  UNL     1      19.480   5.931  20.793  0.00  0.00    +0.000 C 
ATOM     31  C9  UNL     1      20.576   6.473  21.733  0.00  0.00    +0.001 C 
ATOM     32  C10 UNL     1      20.145   6.415  23.203  0.00  0.00    +0.010 C 
ENDBRANCH   6  27
TORSDOF 2
ENDMDL
MODEL 9
REMARK VINA RESULT:    -7.228      9.123     13.312
REMARK INTER + INTRA:          -8.447
REMARK INTER:                  -7.929
REMARK INTRA:                  -0.518
REMARK UNBOUND:                -0.374
REMARK  Name = /home/qwerty/github/datacon2025hack/step_04_hit_selection/docking/ligands/lig_607.pdb
REMARK  2 active torsions:
REMARK  status: ('A' for Active; 'I' for Inactive)
REMARK    1  A    between atoms: C4_6  and  C5_7
REMARK    2  A    between atoms: N4_15  and  C11_16
REMARK                            x       y       z     vdW  Elec       q    Type
REMARK                         _______ _______ _______ _____ _____    ______ ____
ROOT
ATOM      1  O1  UNL     1      14.315   1.314  23.012  0.00  0.00    -0.252 OA
ATOM      2  C1  UNL     1      14.930   1.237  21.914  0.00  0.00    +0.309 C 
ATOM      3  N1  UNL     1      14.465   1.967  20.768  0.00  0.00    -0.253 N 
ATOM      4  C2  UNL     1      13.212   2.663  20.704  0.00  0.00    +0.148 A 
ATOM      5  C3  UNL     1      12.090   2.428  21.483  0.00  0.00    +0.068 A 
ATOM      6  C4  UNL     1      11.163   3.332  21.002  0.00  0.00    +0.041 A 
ATOM      7  N2  UNL     1      11.721   4.048  20.005  0.00  0.00    -0.280 N 
ATOM      8  N3  UNL     1      12.963   3.639  19.809  0.00  0.00    -0.158 NA
ATOM      9  N4  UNL     1      16.149   0.484  21.823  0.00  0.00    -0.269 N 
ATOM     10  H1  UNL     1      15.107   2.055  19.948  0.00  0.00    +0.158 HD
ATOM     11  H14 UNL     1      11.265   4.810  19.456  0.00  0.00    +0.189 HD
ATOM     12  H15 UNL     1      16.738   0.620  20.971  0.00  0.00    +0.156 HD
ENDROOT
BRANCH   9  13
ATOM     13  C11 UNL     1      16.662  -0.348  22.878  0.00  0.00    +0.040 A 
ATOM     14  C12 UNL     1      16.156  -1.645  23.114  0.00  0.00    +0.024 A 
ATOM     15  C13 UNL     1      16.687  -2.441  24.146  0.00  0.00    +0.002 A 
ATOM     16  C14 UNL     1      17.734  -1.961  24.946  0.00  0.00    +0.005 A 
ATOM     17  C15 UNL     1      18.239  -0.688  24.688  0.00  0.00    -0.024 A 
ATOM     18  C16 UNL     1      17.726   0.096  23.678  0.00  0.00    -0.004 A 
ATOM     19  C17 UNL     1      18.426   1.406  23.631  0.00  0.00    +0.144 C 
ATOM     20  N5  UNL     1      19.397   1.302  24.718  0.00  0.00    -0.301 N 
ATOM     21  C18 UNL     1      20.305   2.354  25.069  0.00  0.00    +0.161 A 
ATOM     22  N6  UNL     1      20.326   3.553  24.447  0.00  0.00    -0.233 NA
ATOM     23  C19 UNL     1      21.271   4.375  24.975  0.00  0.00    +0.120 A 
ATOM     24  C20 UNL     1      22.005   3.835  26.026  0.00  0.00    +0.068 A 
ATOM     25  S1  UNL     1      21.449   2.271  26.302  0.00  0.00    -0.061 S 
ATOM     26  C21 UNL     1      19.328   0.016  25.408  0.00  0.00    +0.142 C 
ENDBRANCH   9  13
BRANCH   6  27
ATOM     27  C5  UNL     1       9.764   3.525  21.531  0.00  0.00    +0.037 C 
ATOM     28  C6  UNL     1       9.026   4.631  20.737  0.00  0.00    +0.010 C 
ATOM     29  C7  UNL     1       7.819   5.152  21.521  0.00  0.00    +0.001 C 
ATOM     30  C8  UNL     1       8.239   5.798  22.858  0.00  0.00    +0.000 C 
ATOM     31  C9  UNL     1       9.569   5.253  23.417  0.00  0.00    +0.001 C 
ATOM     32  C10 UNL     1       9.773   3.775  23.063  0.00  0.00    +0.010 C 
ENDBRANCH   6  27
TORSDOF 2
ENDMDL
