REMARK  Name = /home/qwerty/github/datacon2025hack/step_04_hit_selection/docking/ligands/lig_484.pdb
REMARK  4 active torsions:
REMARK  status: ('A' for Active; 'I' for Inactive)
REMARK    1  A    between atoms: C1_2  and  C8_12
REMARK    2  A    between atoms: N1_3  and  C2_4
REMARK    3  A    between atoms: C11_17  and  O3_18
REMARK    4  A    between atoms: O3_18  and  C12_19
REMARK                            x       y       z     vdW  Elec       q    Type
REMARK                         _______ _______ _______ _____ _____    ______ ____
ROOT
ATOM      1  C8  UNL     1      -1.110   1.259  -0.344  0.00  0.00    +0.302 C 
ATOM      2  O2  UNL     1      -1.186   2.506  -0.167  0.00  0.00    -0.265 OA
ATOM      3  N2  UNL     1       0.192   0.654  -0.481  0.00  0.00    -0.290 N 
ATOM      4  C9  UNL     1       0.464  -0.774  -0.428  0.00  0.00    +0.112 C 
ATOM      5  C10 UNL     1       1.977  -0.903  -0.317  0.00  0.00    +0.065 C 
ATOM      6  C11 UNL     1       2.541   0.445  -0.772  0.00  0.00    +0.192 C 
ATOM      7  C17 UNL     1       1.409   1.445  -0.566  0.00  0.00    +0.152 C 
ENDROOT
BRANCH   1   9
ATOM      8  O1  UNL     1      -2.342  -0.732  -0.771  0.00  0.00    -0.265 OA
ATOM      9  C1  UNL     1      -2.366   0.474  -0.406  0.00  0.00    +0.303 C 
ATOM     10  N1  UNL     1      -3.624   1.100  -0.100  0.00  0.00    -0.277 N 
ATOM     11  H1  UNL     1      -3.662   2.142  -0.041  0.00  0.00    +0.155 HD
BRANCH  10  12
ATOM     12  C2  UNL     1      -4.851   0.367   0.069  0.00  0.00    +0.051 A 
ATOM     13  C3  UNL     1      -4.863  -0.852   0.771  0.00  0.00    +0.062 A 
ATOM     14  C4  UNL     1      -6.059  -1.549   0.960  0.00  0.00    +0.125 A 
ATOM     15  F1  UNL     1      -6.059  -2.724   1.638  0.00  0.00    -0.205 F 
ATOM     16  C5  UNL     1      -7.256  -1.033   0.460  0.00  0.00    +0.039 A 
ATOM     17  C6  UNL     1      -7.260   0.183  -0.226  0.00  0.00    +0.020 A 
ATOM     18  C7  UNL     1      -6.066   0.889  -0.420  0.00  0.00    +0.039 A 
ATOM     19 BR1  UNL     1      -6.132   2.539  -1.394  0.00  0.00    -0.048 Br
ENDBRANCH  10  12
ENDBRANCH   1   9
BRANCH   6  20
ATOM     20  O3  UNL     1       3.683   0.825  -0.001  0.00  0.00    -0.487 OA
BRANCH  20  21
ATOM     21  C12 UNL     1       4.954   0.235  -0.086  0.00  0.00    +0.124 A 
ATOM     22  C13 UNL     1       5.274  -0.753  -1.036  0.00  0.00    +0.065 A 
ATOM     23  C14 UNL     1       6.562  -1.293  -1.058  0.00  0.00    +0.114 A 
ATOM     24  N3  UNL     1       7.498  -0.866  -0.170  0.00  0.00    -0.263 NA
ATOM     25  C15 UNL     1       7.216   0.088   0.756  0.00  0.00    +0.114 A 
ATOM     26  C16 UNL     1       5.941   0.655   0.812  0.00  0.00    +0.065 A 
ENDBRANCH  20  21
ENDBRANCH   6  20
TORSDOF 4
