MODEL 1
REMARK VINA RESULT:    -6.331      0.000      0.000
REMARK INTER + INTRA:          -8.506
REMARK INTER:                  -7.812
REMARK INTRA:                  -0.694
REMARK UNBOUND:                -0.694
REMARK  Name = /home/qwerty/github/datacon2025hack/step_04_hit_selection/docking/ligands/lig_200.pdb
REMARK  5 active torsions:
REMARK  status: ('A' for Active; 'I' for Inactive)
REMARK    1  A    between atoms: C1_1  and  N1_2
REMARK    2  A    between atoms: C3_4  and  C4_5
REMARK    3  A    between atoms: C8_11  and  C9_12
REMARK    4  A    between atoms: C9_12  and  N3_13
REMARK    5  A    between atoms: C10_14  and  C11_16
REMARK                            x       y       z     vdW  Elec       q    Type
REMARK                         _______ _______ _______ _____ _____    ______ ____
ROOT
ATOM      1  C4  UNL     1      22.559   1.204  29.489  0.00  0.00    +0.250 C 
ATOM      2  O1  UNL     1      23.681   0.648  29.619  0.00  0.00    -0.270 OA
ATOM      3  N2  UNL     1      21.736   1.407  30.642  0.00  0.00    -0.293 N 
ATOM      4  C5  UNL     1      20.759   0.420  31.062  0.00  0.00    +0.108 C 
ATOM      5  C6  UNL     1      19.753   1.184  31.914  0.00  0.00    +0.021 C 
ATOM      6  C7  UNL     1      20.457   2.475  32.323  0.00  0.00    +0.025 C 
ATOM      7  C8  UNL     1      21.529   2.711  31.254  0.00  0.00    +0.093 C 
ENDROOT
BRANCH   1  11
ATOM      8  C1  UNL     1      20.177   1.430  25.105  0.00  0.00    +0.172 C 
ATOM      9  N1  UNL     1      21.043   1.748  26.232  0.00  0.00    -0.274 N 
ATOM     10  C2  UNL     1      21.130   1.047  27.376  0.00  0.00    +0.121 A 
ATOM     11  C3  UNL     1      22.101   1.636  28.160  0.00  0.00    +0.074 A 
ATOM     12  C17 UNL     1      22.578   2.697  27.412  0.00  0.00    +0.147 A 
ATOM     13  N6  UNL     1      21.921   2.741  26.236  0.00  0.00    -0.179 NA
ENDBRANCH   1  11
BRANCH   7  14
ATOM     14  C9  UNL     1      22.842   3.254  31.843  0.00  0.00    +0.127 C 
BRANCH  14  15
ATOM     15  N3  UNL     1      22.595   3.905  33.129  0.00  0.00    -0.309 N 
ATOM     16  C10 UNL     1      22.803   5.309  33.345  0.00  0.00    +0.247 C 
ATOM     17  O2  UNL     1      23.082   6.060  32.375  0.00  0.00    -0.270 OA
ATOM     18  H14 UNL     1      22.321   3.296  33.931  0.00  0.00    +0.149 HD
BRANCH  16  19
ATOM     19  C11 UNL     1      22.689   5.891  34.694  0.00  0.00    +0.077 A 
ATOM     20  C12 UNL     1      23.709   6.256  35.583  0.00  0.00    +0.147 A 
ATOM     21  N4  UNL     1      23.178   6.865  36.673  0.00  0.00    -0.179 NA
ATOM     22  N5  UNL     1      21.870   6.833  36.492  0.00  0.00    -0.268 N 
ATOM     23  C13 UNL     1      21.545   6.295  35.344  0.00  0.00    +0.051 A 
ATOM     24  C14 UNL     1      20.125   6.469  34.984  0.00  0.00    +0.057 C 
ATOM     25  C15 UNL     1      19.580   7.236  36.224  0.00  0.00    +0.029 C 
ATOM     26  C16 UNL     1      20.790   7.515  37.156  0.00  0.00    +0.144 C 
ENDBRANCH  16  19
ENDBRANCH  14  15
ENDBRANCH   7  14
TORSDOF 4
ENDMDL
MODEL 2
REMARK VINA RESULT:    -6.201      3.684     10.523
REMARK INTER + INTRA:          -8.345
REMARK INTER:                  -7.758
REMARK INTRA:                  -0.587
REMARK UNBOUND:                -0.694
REMARK  Name = /home/qwerty/github/datacon2025hack/step_04_hit_selection/docking/ligands/lig_200.pdb
REMARK  5 active torsions:
REMARK  status: ('A' for Active; 'I' for Inactive)
REMARK    1  A    between atoms: C1_1  and  N1_2
REMARK    2  A    between atoms: C3_4  and  C4_5
REMARK    3  A    between atoms: C8_11  and  C9_12
REMARK    4  A    between atoms: C9_12  and  N3_13
REMARK    5  A    between atoms: C10_14  and  C11_16
REMARK                            x       y       z     vdW  Elec       q    Type
REMARK                         _______ _______ _______ _____ _____    ______ ____
ROOT
ATOM      1  C4  UNL     1      21.948   0.612  28.739  0.00  0.00    +0.250 C 
ATOM      2  O1  UNL     1      22.449  -0.519  28.502  0.00  0.00    -0.270 OA
ATOM      3  N2  UNL     1      21.838   1.569  27.681  0.00  0.00    -0.293 N 
ATOM      4  C5  UNL     1      22.892   2.529  27.412  0.00  0.00    +0.108 C 
ATOM      5  C6  UNL     1      22.219   3.666  26.653  0.00  0.00    +0.021 C 
ATOM      6  C7  UNL     1      20.911   3.088  26.120  0.00  0.00    +0.025 C 
ATOM      7  C8  UNL     1      20.574   1.918  27.050  0.00  0.00    +0.093 C 
ENDROOT
BRANCH   1  11
ATOM      8  C1  UNL     1      21.467   2.746  33.229  0.00  0.00    +0.172 C 
ATOM      9  N1  UNL     1      21.259   1.889  32.070  0.00  0.00    -0.274 N 
ATOM     10  C2  UNL     1      21.935   1.959  30.910  0.00  0.00    +0.121 A 
ATOM     11  C3  UNL     1      21.484   0.942  30.095  0.00  0.00    +0.074 A 
ATOM     12  C17 UNL     1      20.529   0.274  30.841  0.00  0.00    +0.147 A 
ATOM     13  N6  UNL     1      20.414   0.868  32.046  0.00  0.00    -0.179 NA
ENDBRANCH   1  11
BRANCH   7  14
ATOM     14  C9  UNL     1      19.988   0.712  26.295  0.00  0.00    +0.127 C 
BRANCH  14  15
ATOM     15  N3  UNL     1      19.155   1.162  25.179  0.00  0.00    -0.309 N 
ATOM     16  C10 UNL     1      17.844   0.638  24.924  0.00  0.00    +0.247 C 
ATOM     17  O2  UNL     1      17.308  -0.146  25.750  0.00  0.00    -0.270 OA
ATOM     18  H14 UNL     1      19.576   1.846  24.512  0.00  0.00    +0.149 HD
BRANCH  16  19
ATOM     19  C11 UNL     1      17.107   1.008  23.703  0.00  0.00    +0.077 A 
ATOM     20  C12 UNL     1      16.605   2.261  23.325  0.00  0.00    +0.147 A 
ATOM     21  N4  UNL     1      16.092   2.194  22.070  0.00  0.00    -0.179 NA
ATOM     22  N5  UNL     1      16.224   0.933  21.703  0.00  0.00    -0.268 N 
ATOM     23  C13 UNL     1      16.828   0.214  22.614  0.00  0.00    +0.051 A 
ATOM     24  C14 UNL     1      17.226  -1.128  22.149  0.00  0.00    +0.057 C 
ATOM     25  C15 UNL     1      16.687  -1.126  20.689  0.00  0.00    +0.029 C 
ATOM     26  C16 UNL     1      16.099   0.286  20.422  0.00  0.00    +0.144 C 
ENDBRANCH  16  19
ENDBRANCH  14  15
ENDBRANCH   7  14
TORSDOF 4
ENDMDL
MODEL 3
REMARK VINA RESULT:    -6.103      2.821      8.308
REMARK INTER + INTRA:          -8.225
REMARK INTER:                  -7.481
REMARK INTRA:                  -0.744
REMARK UNBOUND:                -0.694
REMARK  Name = /home/qwerty/github/datacon2025hack/step_04_hit_selection/docking/ligands/lig_200.pdb
REMARK  5 active torsions:
REMARK  status: ('A' for Active; 'I' for Inactive)
REMARK    1  A    between atoms: C1_1  and  N1_2
REMARK    2  A    between atoms: C3_4  and  C4_5
REMARK    3  A    between atoms: C8_11  and  C9_12
REMARK    4  A    between atoms: C9_12  and  N3_13
REMARK    5  A    between atoms: C10_14  and  C11_16
REMARK                            x       y       z     vdW  Elec       q    Type
REMARK                         _______ _______ _______ _____ _____    ______ ____
ROOT
ATOM      1  C4  UNL     1      20.726   7.805  34.763  0.00  0.00    +0.250 C 
ATOM      2  O1  UNL     1      20.143   7.072  33.920  0.00  0.00    -0.270 OA
ATOM      3  N2  UNL     1      21.496   7.202  35.807  0.00  0.00    -0.293 N 
ATOM      4  C5  UNL     1      20.909   6.867  37.090  0.00  0.00    +0.108 C 
ATOM      5  C6  UNL     1      22.079   6.789  38.063  0.00  0.00    +0.021 C 
ATOM      6  C7  UNL     1      23.324   6.625  37.196  0.00  0.00    +0.025 C 
ATOM      7  C8  UNL     1      22.951   7.216  35.832  0.00  0.00    +0.093 C 
ENDROOT
BRANCH   1  11
ATOM      8  C1  UNL     1      20.370  12.645  35.944  0.00  0.00    +0.172 C 
ATOM      9  N1  UNL     1      20.464  11.404  35.187  0.00  0.00    -0.274 N 
ATOM     10  C2  UNL     1      20.625  10.176  35.710  0.00  0.00    +0.121 A 
ATOM     11  C3  UNL     1      20.607   9.268  34.672  0.00  0.00    +0.074 A 
ATOM     12  C17 UNL     1      20.414  10.025  33.530  0.00  0.00    +0.147 A 
ATOM     13  N6  UNL     1      20.324  11.326  33.872  0.00  0.00    -0.179 NA
ENDBRANCH   1  11
BRANCH   7  14
ATOM     14  C9  UNL     1      23.527   6.404  34.658  0.00  0.00    +0.127 C 
BRANCH  14  15
ATOM     15  N3  UNL     1      22.829   5.124  34.531  0.00  0.00    -0.309 N 
ATOM     16  C10 UNL     1      22.413   4.585  33.268  0.00  0.00    +0.247 C 
ATOM     17  O2  UNL     1      22.764   5.147  32.198  0.00  0.00    -0.270 OA
ATOM     18  H14 UNL     1      22.571   4.628  35.413  0.00  0.00    +0.149 HD
BRANCH  16  19
ATOM     19  C11 UNL     1      21.580   3.371  33.201  0.00  0.00    +0.077 A 
ATOM     20  C12 UNL     1      20.524   2.982  34.037  0.00  0.00    +0.147 A 
ATOM     21  N4  UNL     1      19.946   1.852  33.557  0.00  0.00    -0.179 NA
ATOM     22  N5  UNL     1      20.651   1.522  32.491  0.00  0.00    -0.268 N 
ATOM     23  C13 UNL     1      21.596   2.390  32.235  0.00  0.00    +0.051 A 
ATOM     24  C14 UNL     1      22.237   2.205  30.920  0.00  0.00    +0.057 C 
ATOM     25  C15 UNL     1      21.490   0.951  30.381  0.00  0.00    +0.029 C 
ATOM     26  C16 UNL     1      20.402   0.584  31.426  0.00  0.00    +0.144 C 
ENDBRANCH  16  19
ENDBRANCH  14  15
ENDBRANCH   7  14
TORSDOF 4
ENDMDL
MODEL 4
REMARK VINA RESULT:    -6.017     14.633     17.527
REMARK INTER + INTRA:          -8.118
REMARK INTER:                  -7.558
REMARK INTRA:                  -0.561
REMARK UNBOUND:                -0.694
REMARK  Name = /home/qwerty/github/datacon2025hack/step_04_hit_selection/docking/ligands/lig_200.pdb
REMARK  5 active torsions:
REMARK  status: ('A' for Active; 'I' for Inactive)
REMARK    1  A    between atoms: C1_1  and  N1_2
REMARK    2  A    between atoms: C3_4  and  C4_5
REMARK    3  A    between atoms: C8_11  and  C9_12
REMARK    4  A    between atoms: C9_12  and  N3_13
REMARK    5  A    between atoms: C10_14  and  C11_16
REMARK                            x       y       z     vdW  Elec       q    Type
REMARK                         _______ _______ _______ _____ _____    ______ ____
ROOT
ATOM      1  C4  UNL     1       8.607  13.129  28.289  0.00  0.00    +0.250 C 
ATOM      2  O1  UNL     1       7.729  13.927  27.866  0.00  0.00    -0.270 OA
ATOM      3  N2  UNL     1       8.289  11.741  28.426  0.00  0.00    -0.293 N 
ATOM      4  C5  UNL     1       7.763  11.199  29.665  0.00  0.00    +0.108 C 
ATOM      5  C6  UNL     1       8.074   9.709  29.620  0.00  0.00    +0.021 C 
ATOM      6  C7  UNL     1       8.349   9.390  28.152  0.00  0.00    +0.025 C 
ATOM      7  C8  UNL     1       8.793  10.715  27.525  0.00  0.00    +0.093 C 
ENDROOT
BRANCH   1  11
ATOM      8  C1  UNL     1      12.648  14.533  30.866  0.00  0.00    +0.172 C 
ATOM      9  N1  UNL     1      11.735  14.234  29.772  0.00  0.00    -0.274 N 
ATOM     10  C2  UNL     1      10.509  13.695  29.899  0.00  0.00    +0.121 A 
ATOM     11  C3  UNL     1       9.945  13.627  28.642  0.00  0.00    +0.074 A 
ATOM     12  C17 UNL     1      10.893  14.163  27.788  0.00  0.00    +0.147 A 
ATOM     13  N6  UNL     1      11.974  14.532  28.504  0.00  0.00    -0.179 NA
ENDBRANCH   1  11
BRANCH   7  14
ATOM     14  C9  UNL     1       8.234  10.913  26.104  0.00  0.00    +0.127 C 
BRANCH  14  15
ATOM     15  N3  UNL     1       8.915  10.028  25.159  0.00  0.00    -0.309 N 
ATOM     16  C10 UNL     1       8.317   9.593  23.929  0.00  0.00    +0.247 C 
ATOM     17  O2  UNL     1       7.217  10.080  23.558  0.00  0.00    -0.270 OA
ATOM     18  H14 UNL     1       9.847   9.652  25.439  0.00  0.00    +0.149 HD
BRANCH  16  19
ATOM     19  C11 UNL     1       8.975   8.581  23.084  0.00  0.00    +0.077 A 
ATOM     20  C12 UNL     1       8.790   7.192  23.069  0.00  0.00    +0.147 A 
ATOM     21  N4  UNL     1       9.507   6.640  22.058  0.00  0.00    -0.179 NA
ATOM     22  N5  UNL     1      10.156   7.645  21.497  0.00  0.00    -0.268 N 
ATOM     23  C13 UNL     1       9.859   8.793  22.049  0.00  0.00    +0.051 A 
ATOM     24  C14 UNL     1      10.354   9.962  21.299  0.00  0.00    +0.057 C 
ATOM     25  C15 UNL     1      11.098   9.281  20.114  0.00  0.00    +0.029 C 
ATOM     26  C16 UNL     1      10.874   7.751  20.254  0.00  0.00    +0.144 C 
ENDBRANCH  16  19
ENDBRANCH  14  15
ENDBRANCH   7  14
TORSDOF 4
ENDMDL
MODEL 5
REMARK VINA RESULT:    -6.012     13.123     14.710
REMARK INTER + INTRA:          -8.112
REMARK INTER:                  -7.470
REMARK INTRA:                  -0.642
REMARK UNBOUND:                -0.694
REMARK  Name = /home/qwerty/github/datacon2025hack/step_04_hit_selection/docking/ligands/lig_200.pdb
REMARK  5 active torsions:
REMARK  status: ('A' for Active; 'I' for Inactive)
REMARK    1  A    between atoms: C1_1  and  N1_2
REMARK    2  A    between atoms: C3_4  and  C4_5
REMARK    3  A    between atoms: C8_11  and  C9_12
REMARK    4  A    between atoms: C9_12  and  N3_13
REMARK    5  A    between atoms: C10_14  and  C11_16
REMARK                            x       y       z     vdW  Elec       q    Type
REMARK                         _______ _______ _______ _____ _____    ______ ____
ROOT
ATOM      1  C4  UNL     1       9.278  12.891  27.940  0.00  0.00    +0.250 C 
ATOM      2  O1  UNL     1       8.674  13.939  27.590  0.00  0.00    -0.270 OA
ATOM      3  N2  UNL     1      10.698  12.922  28.114  0.00  0.00    -0.293 N 
ATOM      4  C5  UNL     1      11.605  12.609  27.026  0.00  0.00    +0.108 C 
ATOM      5  C6  UNL     1      12.915  12.211  27.693  0.00  0.00    +0.021 C 
ATOM      6  C7  UNL     1      12.837  12.761  29.115  0.00  0.00    +0.025 C 
ATOM      7  C8  UNL     1      11.341  12.891  29.419  0.00  0.00    +0.093 C 
ENDROOT
BRANCH   1  11
ATOM      8  C1  UNL     1       6.794   9.142  30.112  0.00  0.00    +0.172 C 
ATOM      9  N1  UNL     1       7.417   9.999  29.113  0.00  0.00    -0.274 N 
ATOM     10  C2  UNL     1       8.010  11.181  29.355  0.00  0.00    +0.121 A 
ATOM     11  C3  UNL     1       8.525  11.647  28.163  0.00  0.00    +0.074 A 
ATOM     12  C17 UNL     1       8.216  10.676  27.228  0.00  0.00    +0.147 A 
ATOM     13  N6  UNL     1       7.544   9.676  27.835  0.00  0.00    -0.179 NA
ENDBRANCH   1  11
BRANCH   7  14
ATOM     14  C9  UNL     1      11.009  14.160  30.223  0.00  0.00    +0.127 C 
BRANCH  14  15
ATOM     15  N3  UNL     1      10.981  13.865  31.656  0.00  0.00    -0.309 N 
ATOM     16  C10 UNL     1      11.776  14.578  32.615  0.00  0.00    +0.247 C 
ATOM     17  O2  UNL     1      12.435  15.589  32.258  0.00  0.00    -0.270 OA
ATOM     18  H14 UNL     1      10.402  13.055  31.968  0.00  0.00    +0.149 HD
BRANCH  16  19
ATOM     19  C11 UNL     1      11.831  14.146  34.022  0.00  0.00    +0.077 A 
ATOM     20  C12 UNL     1      10.776  13.807  34.881  0.00  0.00    +0.147 A 
ATOM     21  N4  UNL     1      11.267  13.350  36.060  0.00  0.00    -0.179 NA
ATOM     22  N5  UNL     1      12.579  13.450  35.958  0.00  0.00    -0.268 N 
ATOM     23  C13 UNL     1      12.950  13.888  34.782  0.00  0.00    +0.051 A 
ATOM     24  C14 UNL     1      14.399  13.772  34.532  0.00  0.00    +0.057 C 
ATOM     25  C15 UNL     1      14.903  13.175  35.877  0.00  0.00    +0.029 C 
ATOM     26  C16 UNL     1      13.650  12.913  36.757  0.00  0.00    +0.144 C 
ENDBRANCH  16  19
ENDBRANCH  14  15
ENDBRANCH   7  14
TORSDOF 4
ENDMDL
MODEL 6
REMARK VINA RESULT:    -5.949      7.741     10.936
REMARK INTER + INTRA:          -8.034
REMARK INTER:                  -7.352
REMARK INTRA:                  -0.682
REMARK UNBOUND:                -0.694
REMARK  Name = /home/qwerty/github/datacon2025hack/step_04_hit_selection/docking/ligands/lig_200.pdb
REMARK  5 active torsions:
REMARK  status: ('A' for Active; 'I' for Inactive)
REMARK    1  A    between atoms: C1_1  and  N1_2
REMARK    2  A    between atoms: C3_4  and  C4_5
REMARK    3  A    between atoms: C8_11  and  C9_12
REMARK    4  A    between atoms: C9_12  and  N3_13
REMARK    5  A    between atoms: C10_14  and  C11_16
REMARK                            x       y       z     vdW  Elec       q    Type
REMARK                         _______ _______ _______ _____ _____    ______ ____
ROOT
ATOM      1  C4  UNL     1      19.226   9.272  36.880  0.00  0.00    +0.250 C 
ATOM      2  O1  UNL     1      18.746   9.210  38.043  0.00  0.00    -0.270 OA
ATOM      3  N2  UNL     1      18.483   9.922  35.845  0.00  0.00    -0.293 N 
ATOM      4  C5  UNL     1      17.559   9.191  34.999  0.00  0.00    +0.108 C 
ATOM      5  C6  UNL     1      17.408  10.036  33.740  0.00  0.00    +0.021 C 
ATOM      6  C7  UNL     1      17.892  11.433  34.121  0.00  0.00    +0.025 C 
ATOM      7  C8  UNL     1      18.841  11.226  35.306  0.00  0.00    +0.093 C 
ENDROOT
BRANCH   1  11
ATOM      8  C1  UNL     1      23.341   6.452  37.130  0.00  0.00    +0.172 C 
ATOM      9  N1  UNL     1      22.350   7.424  36.692  0.00  0.00    -0.274 N 
ATOM     10  C2  UNL     1      21.152   7.637  37.266  0.00  0.00    +0.121 A 
ATOM     11  C3  UNL     1      20.540   8.675  36.595  0.00  0.00    +0.074 A 
ATOM     12  C17 UNL     1      21.441   9.059  35.618  0.00  0.00    +0.147 A 
ATOM     13  N6  UNL     1      22.542   8.285  35.702  0.00  0.00    -0.179 NA
ENDBRANCH   1  11
BRANCH   7  14
ATOM     14  C9  UNL     1      18.696  12.319  36.378  0.00  0.00    +0.127 C 
BRANCH  14  15
ATOM     15  N3  UNL     1      17.410  13.004  36.240  0.00  0.00    -0.309 N 
ATOM     16  C10 UNL     1      16.232  12.602  36.953  0.00  0.00    +0.247 C 
ATOM     17  O2  UNL     1      16.306  11.711  37.839  0.00  0.00    -0.270 OA
ATOM     18  H14 UNL     1      17.349  13.774  35.538  0.00  0.00    +0.149 HD
BRANCH  16  19
ATOM     19  C11 UNL     1      14.926  13.222  36.667  0.00  0.00    +0.077 A 
ATOM     20  C12 UNL     1      14.650  14.503  36.171  0.00  0.00    +0.147 A 
ATOM     21  N4  UNL     1      13.320  14.634  35.941  0.00  0.00    -0.179 NA
ATOM     22  N5  UNL     1      12.781  13.493  36.330  0.00  0.00    -0.268 N 
ATOM     23  C13 UNL     1      13.682  12.637  36.738  0.00  0.00    +0.051 A 
ATOM     24  C14 UNL     1      13.160  11.271  36.937  0.00  0.00    +0.057 C 
ATOM     25  C15 UNL     1      11.655  11.457  36.588  0.00  0.00    +0.029 C 
ATOM     26  C16 UNL     1      11.473  12.928  36.123  0.00  0.00    +0.144 C 
ENDBRANCH  16  19
ENDBRANCH  14  15
ENDBRANCH   7  14
TORSDOF 4
ENDMDL
MODEL 7
REMARK VINA RESULT:    -5.859      2.105      8.680
REMARK INTER + INTRA:          -7.923
REMARK INTER:                  -7.354
REMARK INTRA:                  -0.569
REMARK UNBOUND:                -0.694
REMARK  Name = /home/qwerty/github/datacon2025hack/step_04_hit_selection/docking/ligands/lig_200.pdb
REMARK  5 active torsions:
REMARK  status: ('A' for Active; 'I' for Inactive)
REMARK    1  A    between atoms: C1_1  and  N1_2
REMARK    2  A    between atoms: C3_4  and  C4_5
REMARK    3  A    between atoms: C8_11  and  C9_12
REMARK    4  A    between atoms: C9_12  and  N3_13
REMARK    5  A    between atoms: C10_14  and  C11_16
REMARK                            x       y       z     vdW  Elec       q    Type
REMARK                         _______ _______ _______ _____ _____    ______ ____
ROOT
ATOM      1  C4  UNL     1      23.019   6.803  35.302  0.00  0.00    +0.250 C 
ATOM      2  O1  UNL     1      23.760   6.081  36.019  0.00  0.00    -0.270 OA
ATOM      3  N2  UNL     1      23.249   6.867  33.892  0.00  0.00    -0.293 N 
ATOM      4  C5  UNL     1      24.123   7.867  33.307  0.00  0.00    +0.108 C 
ATOM      5  C6  UNL     1      23.694   7.977  31.850  0.00  0.00    +0.021 C 
ATOM      6  C7  UNL     1      22.905   6.704  31.555  0.00  0.00    +0.025 C 
ATOM      7  C8  UNL     1      22.384   6.225  32.913  0.00  0.00    +0.093 C 
ENDROOT
BRANCH   1  11
ATOM      8  C1  UNL     1      18.917   8.070  37.855  0.00  0.00    +0.172 C 
ATOM      9  N1  UNL     1      20.130   8.143  37.052  0.00  0.00    -0.274 N 
ATOM     10  C2  UNL     1      20.924   7.106  36.733  0.00  0.00    +0.121 A 
ATOM     11  C3  UNL     1      21.930   7.578  35.916  0.00  0.00    +0.074 A 
ATOM     12  C17 UNL     1      21.673   8.929  35.767  0.00  0.00    +0.147 A 
ATOM     13  N6  UNL     1      20.565   9.249  36.465  0.00  0.00    -0.179 NA
ENDBRANCH   1  11
BRANCH   7  14
ATOM     14  C9  UNL     1      22.434   4.694  33.060  0.00  0.00    +0.127 C 
BRANCH  14  15
ATOM     15  N3  UNL     1      22.394   4.053  31.745  0.00  0.00    -0.309 N 
ATOM     16  C10 UNL     1      21.805   2.763  31.525  0.00  0.00    +0.247 C 
ATOM     17  O2  UNL     1      21.174   2.193  32.452  0.00  0.00    -0.270 OA
ATOM     18  H14 UNL     1      22.878   4.539  30.959  0.00  0.00    +0.149 HD
BRANCH  16  19
ATOM     19  C11 UNL     1      21.924   2.090  30.219  0.00  0.00    +0.077 A 
ATOM     20  C12 UNL     1      22.005   0.719  29.940  0.00  0.00    +0.147 A 
ATOM     21  N4  UNL     1      21.985   0.518  28.598  0.00  0.00    -0.179 NA
ATOM     22  N5  UNL     1      21.947   1.724  28.062  0.00  0.00    -0.268 N 
ATOM     23  C13 UNL     1      21.888   2.665  28.968  0.00  0.00    +0.051 A 
ATOM     24  C14 UNL     1      21.585   4.002  28.423  0.00  0.00    +0.057 C 
ATOM     25  C15 UNL     1      21.496   3.705  26.898  0.00  0.00    +0.029 C 
ATOM     26  C16 UNL     1      21.670   2.172  26.721  0.00  0.00    +0.144 C 
ENDBRANCH  16  19
ENDBRANCH  14  15
ENDBRANCH   7  14
TORSDOF 4
ENDMDL
MODEL 8
REMARK VINA RESULT:    -5.858     14.655     17.450
REMARK INTER + INTRA:          -7.922
REMARK INTER:                  -7.318
REMARK INTRA:                  -0.604
REMARK UNBOUND:                -0.694
REMARK  Name = /home/qwerty/github/datacon2025hack/step_04_hit_selection/docking/ligands/lig_200.pdb
REMARK  5 active torsions:
REMARK  status: ('A' for Active; 'I' for Inactive)
REMARK    1  A    between atoms: C1_1  and  N1_2
REMARK    2  A    between atoms: C3_4  and  C4_5
REMARK    3  A    between atoms: C8_11  and  C9_12
REMARK    4  A    between atoms: C9_12  and  N3_13
REMARK    5  A    between atoms: C10_14  and  C11_16
REMARK                            x       y       z     vdW  Elec       q    Type
REMARK                         _______ _______ _______ _____ _____    ______ ____
ROOT
ATOM      1  C4  UNL     1       8.601  13.062  28.006  0.00  0.00    +0.250 C 
ATOM      2  O1  UNL     1       7.768  13.788  27.401  0.00  0.00    -0.270 OA
ATOM      3  N2  UNL     1       8.244  11.722  28.357  0.00  0.00    -0.293 N 
ATOM      4  C5  UNL     1       7.635  11.407  29.635  0.00  0.00    +0.108 C 
ATOM      5  C6  UNL     1       7.913   9.927  29.862  0.00  0.00    +0.021 C 
ATOM      6  C7  UNL     1       8.266   9.359  28.490  0.00  0.00    +0.025 C 
ATOM      7  C8  UNL     1       8.775  10.551  27.675  0.00  0.00    +0.093 C 
ENDROOT
BRANCH   1  11
ATOM      8  C1  UNL     1      13.235  14.899  27.685  0.00  0.00    +0.172 C 
ATOM      9  N1  UNL     1      11.966  14.419  28.214  0.00  0.00    -0.274 N 
ATOM     10  C2  UNL     1      10.904  14.037  27.482  0.00  0.00    +0.121 A 
ATOM     11  C3  UNL     1       9.928  13.596  28.350  0.00  0.00    +0.074 A 
ATOM     12  C17 UNL     1      10.477  13.727  29.613  0.00  0.00    +0.147 A 
ATOM     13  N6  UNL     1      11.725  14.226  29.503  0.00  0.00    -0.179 NA
ENDBRANCH   1  11
BRANCH   7  14
ATOM     14  C9  UNL     1       8.304  10.511  26.210  0.00  0.00    +0.127 C 
BRANCH  14  15
ATOM     15  N3  UNL     1       8.214   9.128  25.740  0.00  0.00    -0.309 N 
ATOM     16  C10 UNL     1       8.937   8.644  24.599  0.00  0.00    +0.247 C 
ATOM     17  O2  UNL     1       9.791   9.378  24.038  0.00  0.00    -0.270 OA
ATOM     18  H14 UNL     1       7.538   8.499  26.227  0.00  0.00    +0.149 HD
BRANCH  16  19
ATOM     19  C11 UNL     1       8.697   7.290  24.071  0.00  0.00    +0.077 A 
ATOM     20  C12 UNL     1       8.676   6.069  24.758  0.00  0.00    +0.147 A 
ATOM     21  N4  UNL     1       8.301   5.071  23.919  0.00  0.00    -0.179 NA
ATOM     22  N5  UNL     1       8.147   5.643  22.739  0.00  0.00    -0.268 N 
ATOM     23  C13 UNL     1       8.345   6.935  22.788  0.00  0.00    +0.051 A 
ATOM     24  C14 UNL     1       7.935   7.649  21.564  0.00  0.00    +0.057 C 
ATOM     25  C15 UNL     1       7.445   6.476  20.667  0.00  0.00    +0.029 C 
ATOM     26  C16 UNL     1       7.537   5.181  21.519  0.00  0.00    +0.144 C 
ENDBRANCH  16  19
ENDBRANCH  14  15
ENDBRANCH   7  14
TORSDOF 4
ENDMDL
MODEL 9
REMARK VINA RESULT:    -5.715      5.518      9.183
REMARK INTER + INTRA:          -7.745
REMARK INTER:                  -7.047
REMARK INTRA:                  -0.699
REMARK UNBOUND:                -0.694
REMARK  Name = /home/qwerty/github/datacon2025hack/step_04_hit_selection/docking/ligands/lig_200.pdb
REMARK  5 active torsions:
REMARK  status: ('A' for Active; 'I' for Inactive)
REMARK    1  A    between atoms: C1_1  and  N1_2
REMARK    2  A    between atoms: C3_4  and  C4_5
REMARK    3  A    between atoms: C8_11  and  C9_12
REMARK    4  A    between atoms: C9_12  and  N3_13
REMARK    5  A    between atoms: C10_14  and  C11_16
REMARK                            x       y       z     vdW  Elec       q    Type
REMARK                         _______ _______ _______ _____ _____    ______ ____
ROOT
ATOM      1  C4  UNL     1      16.188  -0.723  22.305  0.00  0.00    +0.250 C 
ATOM      2  O1  UNL     1      16.885  -1.313  21.438  0.00  0.00    -0.270 OA
ATOM      3  N2  UNL     1      16.506  -0.880  23.691  0.00  0.00    -0.293 N 
ATOM      4  C5  UNL     1      15.908  -1.930  24.495  0.00  0.00    +0.108 C 
ATOM      5  C6  UNL     1      16.033  -1.456  25.937  0.00  0.00    +0.021 C 
ATOM      6  C7  UNL     1      17.111  -0.375  25.923  0.00  0.00    +0.025 C 
ATOM      7  C8  UNL     1      17.126   0.166  24.490  0.00  0.00    +0.093 C 
ENDROOT
BRANCH   1  11
ATOM      8  C1  UNL     1      11.741   1.546  22.138  0.00  0.00    +0.172 C 
ATOM      9  N1  UNL     1      13.100   1.131  21.819  0.00  0.00    -0.274 N 
ATOM     10  C2  UNL     1      13.863   0.307  22.560  0.00  0.00    +0.121 A 
ATOM     11  C3  UNL     1      15.054   0.117  21.891  0.00  0.00    +0.074 A 
ATOM     12  C17 UNL     1      14.939   0.855  20.726  0.00  0.00    +0.147 A 
ATOM     13  N6  UNL     1      13.734   1.459  20.703  0.00  0.00    -0.179 NA
ENDBRANCH   1  11
BRANCH   7  14
ATOM     14  C9  UNL     1      18.548   0.469  23.987  0.00  0.00    +0.127 C 
BRANCH  14  15
ATOM     15  N3  UNL     1      19.471   0.606  25.115  0.00  0.00    -0.309 N 
ATOM     16  C10 UNL     1      20.060   1.859  25.491  0.00  0.00    +0.247 C 
ATOM     17  O2  UNL     1      19.688   2.923  24.932  0.00  0.00    -0.270 OA
ATOM     18  H14 UNL     1      19.753  -0.266  25.613  0.00  0.00    +0.149 HD
BRANCH  16  19
ATOM     19  C11 UNL     1      21.100   1.922  26.533  0.00  0.00    +0.077 A 
ATOM     20  C12 UNL     1      22.380   2.490  26.466  0.00  0.00    +0.147 A 
ATOM     21  N4  UNL     1      22.975   2.437  27.684  0.00  0.00    -0.179 NA
ATOM     22  N5  UNL     1      22.116   1.812  28.468  0.00  0.00    -0.268 N 
ATOM     23  C13 UNL     1      21.005   1.514  27.845  0.00  0.00    +0.051 A 
ATOM     24  C14 UNL     1      19.926   1.051  28.737  0.00  0.00    +0.057 C 
ATOM     25  C15 UNL     1      20.631   1.082  30.124  0.00  0.00    +0.029 C 
ATOM     26  C16 UNL     1      22.054   1.662  29.899  0.00  0.00    +0.144 C 
ENDBRANCH  16  19
ENDBRANCH  14  15
ENDBRANCH   7  14
TORSDOF 4
ENDMDL
