MODEL 1
REMARK VINA RESULT:    -5.599      0.000      0.000
REMARK INTER + INTRA:          -8.699
REMARK INTER:                  -7.890
REMARK INTRA:                  -0.809
REMARK UNBOUND:                -0.809
REMARK  Name = /home/qwerty/github/datacon2025hack/step_04_hit_selection/docking/ligands/lig_186.pdb
REMARK  11 active torsions:
REMARK  status: ('A' for Active; 'I' for Inactive)
REMARK    1  A    between atoms: C1_1  and  C2_2
REMARK    2  A    between atoms: C4_4  and  C5_5
REMARK    3  A    between atoms: N1_7  and  C6_8
REMARK    4  A    between atoms: C8_10  and  C9_11
REMARK    5  A    between atoms: C9_11  and  N2_12
REMARK    6  A    between atoms: C10_13  and  C11_15
REMARK    7  A    between atoms: C11_15  and  C12_16
REMARK    8  A    between atoms: C12_16  and  C13_17
REMARK    9  A    between atoms: C12_16  and  C14_18
REMARK   10  A    between atoms: C14_18  and  C15_19
REMARK   11  A    between atoms: C14_18  and  C16_20
REMARK                            x       y       z     vdW  Elec       q    Type
REMARK                         _______ _______ _______ _____ _____    ______ ____
ROOT
ATOM      1  C6  UNL     1      23.224   6.220  34.732  0.00  0.00    +0.074 C 
ATOM      2  C7  UNL     1      23.643   6.306  36.200  0.00  0.00    +0.027 C 
ATOM      3  C8  UNL     1      22.655   7.451  36.414  0.00  0.00    +0.010 C 
ATOM      4  C17 UNL     1      22.244   7.370  34.943  0.00  0.00    +0.027 C 
ENDROOT
BRANCH   1   7
ATOM      5  C5  UNL     1      22.459   4.493  33.049  0.00  0.00    +0.282 C 
ATOM      6  O1  UNL     1      22.979   5.161  32.115  0.00  0.00    -0.267 OA
ATOM      7  N1  UNL     1      22.544   4.965  34.402  0.00  0.00    -0.306 N 
ATOM      8  H5  UNL     1      22.168   4.368  35.170  0.00  0.00    +0.149 HD
BRANCH   5  12
ATOM      9  C1  UNL     1      20.626   0.404  30.766  0.00  0.00    +0.069 C 
ATOM     10  C2  UNL     1      21.007   1.445  31.765  0.00  0.00    +0.081 A 
ATOM     11  C3  UNL     1      21.791   2.554  31.520  0.00  0.00    +0.080 A 
ATOM     12  C4  UNL     1      21.780   3.228  32.725  0.00  0.00    +0.222 A 
ATOM     13  O3  UNL     1      21.041   2.555  33.578  0.00  0.00    -0.350 OA
ATOM     14  N3  UNL     1      20.551   1.478  33.032  0.00  0.00    -0.083 NA
ENDBRANCH   5  12
ENDBRANCH   1   7
BRANCH   3  15
ATOM     15  C9  UNL     1      21.530   7.109  37.402  0.00  0.00    +0.107 C 
BRANCH  15  16
ATOM     16  N2  UNL     1      20.784   8.316  37.747  0.00  0.00    -0.315 N 
ATOM     17  C10 UNL     1      19.525   8.657  37.148  0.00  0.00    +0.213 C 
ATOM     18  O2  UNL     1      18.945   7.847  36.375  0.00  0.00    -0.276 OA
ATOM     19  H12 UNL     1      21.237   9.001  38.389  0.00  0.00    +0.149 HD
BRANCH  17  20
ATOM     20  C11 UNL     1      18.872   9.972  37.462  0.00  0.00    +0.099 C 
BRANCH  20  21
ATOM     21  C12 UNL     1      18.839  10.908  36.231  0.00  0.00    -0.003 C 
ATOM     22  C13 UNL     1      18.029  12.185  36.533  0.00  0.00    +0.008 C 
BRANCH  21  23
ATOM     23  C14 UNL     1      20.281  11.206  35.707  0.00  0.00    -0.014 C 
ATOM     24  C15 UNL     1      20.720  12.668  35.906  0.00  0.00    +0.007 C 
ATOM     25  C16 UNL     1      20.451  10.801  34.235  0.00  0.00    +0.007 C 
ENDBRANCH  21  23
ENDBRANCH  20  21
ENDBRANCH  17  20
ENDBRANCH  15  16
ENDBRANCH   3  15
TORSDOF 7
ENDMDL
MODEL 2
REMARK VINA RESULT:    -5.329      5.495      7.467
REMARK INTER + INTRA:          -8.319
REMARK INTER:                  -7.975
REMARK INTRA:                  -0.343
REMARK UNBOUND:                -0.809
REMARK  Name = /home/qwerty/github/datacon2025hack/step_04_hit_selection/docking/ligands/lig_186.pdb
REMARK  11 active torsions:
REMARK  status: ('A' for Active; 'I' for Inactive)
REMARK    1  A    between atoms: C1_1  and  C2_2
REMARK    2  A    between atoms: C4_4  and  C5_5
REMARK    3  A    between atoms: N1_7  and  C6_8
REMARK    4  A    between atoms: C8_10  and  C9_11
REMARK    5  A    between atoms: C9_11  and  N2_12
REMARK    6  A    between atoms: C10_13  and  C11_15
REMARK    7  A    between atoms: C11_15  and  C12_16
REMARK    8  A    between atoms: C12_16  and  C13_17
REMARK    9  A    between atoms: C12_16  and  C14_18
REMARK   10  A    between atoms: C14_18  and  C15_19
REMARK   11  A    between atoms: C14_18  and  C16_20
REMARK                            x       y       z     vdW  Elec       q    Type
REMARK                         _______ _______ _______ _____ _____    ______ ____
ROOT
ATOM      1  C6  UNL     1      24.564   8.230  32.724  0.00  0.00    +0.074 C 
ATOM      2  C7  UNL     1      24.957   9.640  32.281  0.00  0.00    +0.027 C 
ATOM      3  C8  UNL     1      24.199   9.440  30.970  0.00  0.00    +0.010 C 
ATOM      4  C17 UNL     1      23.814   8.027  31.410  0.00  0.00    +0.027 C 
ENDROOT
BRANCH   1   7
ATOM      5  C5  UNL     1      23.415   7.019  34.624  0.00  0.00    +0.282 C 
ATOM      6  O1  UNL     1      23.973   5.940  34.285  0.00  0.00    -0.267 OA
ATOM      7  N1  UNL     1      23.667   8.222  33.882  0.00  0.00    -0.306 N 
ATOM      8  H5  UNL     1      23.252   9.118  34.215  0.00  0.00    +0.149 HD
BRANCH   5  12
ATOM      9  C1  UNL     1      19.434   7.075  37.696  0.00  0.00    +0.069 C 
ATOM     10  C2  UNL     1      20.813   7.011  37.128  0.00  0.00    +0.081 A 
ATOM     11  C3  UNL     1      21.136   7.011  35.787  0.00  0.00    +0.080 A 
ATOM     12  C4  UNL     1      22.518   7.018  35.790  0.00  0.00    +0.222 A 
ATOM     13  O3  UNL     1      22.936   7.031  37.036  0.00  0.00    -0.350 OA
ATOM     14  N3  UNL     1      21.936   7.035  37.871  0.00  0.00    -0.083 NA
ENDBRANCH   5  12
ENDBRANCH   1   7
BRANCH   3  15
ATOM     15  C9  UNL     1      23.007  10.394  30.805  0.00  0.00    +0.107 C 
BRANCH  15  16
ATOM     16  N2  UNL     1      23.442  11.630  30.160  0.00  0.00    -0.315 N 
ATOM     17  C10 UNL     1      22.528  12.594  29.617  0.00  0.00    +0.213 C 
ATOM     18  O2  UNL     1      21.286  12.466  29.790  0.00  0.00    -0.276 OA
ATOM     19  H12 UNL     1      24.465  11.766  30.010  0.00  0.00    +0.149 HD
BRANCH  17  20
ATOM     20  C11 UNL     1      23.048  13.785  28.863  0.00  0.00    +0.099 C 
BRANCH  20  21
ATOM     21  C12 UNL     1      21.904  14.602  28.216  0.00  0.00    -0.003 C 
ATOM     22  C13 UNL     1      21.560  15.838  29.071  0.00  0.00    +0.008 C 
BRANCH  21  23
ATOM     23  C14 UNL     1      22.231  14.955  26.729  0.00  0.00    -0.014 C 
ATOM     24  C15 UNL     1      23.588  14.408  26.250  0.00  0.00    +0.007 C 
ATOM     25  C16 UNL     1      22.153  16.468  26.469  0.00  0.00    +0.007 C 
ENDBRANCH  21  23
ENDBRANCH  20  21
ENDBRANCH  17  20
ENDBRANCH  15  16
ENDBRANCH   3  15
TORSDOF 7
ENDMDL
MODEL 3
REMARK VINA RESULT:    -5.261     12.829     14.699
REMARK INTER + INTRA:          -8.222
REMARK INTER:                  -7.658
REMARK INTRA:                  -0.565
REMARK UNBOUND:                -0.809
REMARK  Name = /home/qwerty/github/datacon2025hack/step_04_hit_selection/docking/ligands/lig_186.pdb
REMARK  11 active torsions:
REMARK  status: ('A' for Active; 'I' for Inactive)
REMARK    1  A    between atoms: C1_1  and  C2_2
REMARK    2  A    between atoms: C4_4  and  C5_5
REMARK    3  A    between atoms: N1_7  and  C6_8
REMARK    4  A    between atoms: C8_10  and  C9_11
REMARK    5  A    between atoms: C9_11  and  N2_12
REMARK    6  A    between atoms: C10_13  and  C11_15
REMARK    7  A    between atoms: C11_15  and  C12_16
REMARK    8  A    between atoms: C12_16  and  C13_17
REMARK    9  A    between atoms: C12_16  and  C14_18
REMARK   10  A    between atoms: C14_18  and  C15_19
REMARK   11  A    between atoms: C14_18  and  C16_20
REMARK                            x       y       z     vdW  Elec       q    Type
REMARK                         _______ _______ _______ _____ _____    ______ ____
ROOT
ATOM      1  C6  UNL     1       7.969  10.837  28.299  0.00  0.00    +0.074 C 
ATOM      2  C7  UNL     1       7.756  12.170  29.017  0.00  0.00    +0.027 C 
ATOM      3  C8  UNL     1       9.046  11.952  29.805  0.00  0.00    +0.010 C 
ATOM      4  C17 UNL     1       9.253  10.614  29.093  0.00  0.00    +0.027 C 
ENDROOT
BRANCH   1   7
ATOM      5  C5  UNL     1       7.942   9.935  25.936  0.00  0.00    +0.282 C 
ATOM      6  O1  UNL     1       7.461   8.844  26.348  0.00  0.00    -0.267 OA
ATOM      7  N1  UNL     1       8.224  10.992  26.864  0.00  0.00    -0.306 N 
ATOM      8  H5  UNL     1       8.558  11.910  26.499  0.00  0.00    +0.149 HD
BRANCH   5  12
ATOM      9  C1  UNL     1       9.999  10.131  21.351  0.00  0.00    +0.069 C 
ATOM     10  C2  UNL     1       9.056  10.159  22.508  0.00  0.00    +0.081 A 
ATOM     11  C3  UNL     1       9.368   9.842  23.814  0.00  0.00    +0.080 A 
ATOM     12  C4  UNL     1       8.194  10.099  24.495  0.00  0.00    +0.222 A 
ATOM     13  O3  UNL     1       7.297  10.534  23.640  0.00  0.00    -0.350 OA
ATOM     14  N3  UNL     1       7.784  10.592  22.433  0.00  0.00    -0.083 NA
ENDBRANCH   5  12
ENDBRANCH   1   7
BRANCH   3  15
ATOM     15  C9  UNL     1      10.128  12.999  29.504  0.00  0.00    +0.107 C 
BRANCH  15  16
ATOM     16  N2  UNL     1      10.346  13.842  30.676  0.00  0.00    -0.315 N 
ATOM     17  C10 UNL     1      11.240  13.487  31.742  0.00  0.00    +0.213 C 
ATOM     18  O2  UNL     1      11.979  12.470  31.644  0.00  0.00    -0.276 OA
ATOM     19  H12 UNL     1       9.753  14.693  30.781  0.00  0.00    +0.149 HD
BRANCH  17  20
ATOM     20  C11 UNL     1      11.326  14.344  32.972  0.00  0.00    +0.099 C 
BRANCH  20  21
ATOM     21  C12 UNL     1      11.925  13.572  34.172  0.00  0.00    -0.003 C 
ATOM     22  C13 UNL     1      13.083  14.364  34.812  0.00  0.00    +0.008 C 
BRANCH  21  23
ATOM     23  C14 UNL     1      10.816  13.170  35.198  0.00  0.00    -0.014 C 
ATOM     24  C15 UNL     1       9.962  14.356  35.679  0.00  0.00    +0.007 C 
ATOM     25  C16 UNL     1      11.397  12.415  36.404  0.00  0.00    +0.007 C 
ENDBRANCH  21  23
ENDBRANCH  20  21
ENDBRANCH  17  20
ENDBRANCH  15  16
ENDBRANCH   3  15
TORSDOF 7
ENDMDL
MODEL 4
REMARK VINA RESULT:    -5.210      4.404      6.882
REMARK INTER + INTRA:          -8.151
REMARK INTER:                  -7.523
REMARK INTRA:                  -0.628
REMARK UNBOUND:                -0.809
REMARK  Name = /home/qwerty/github/datacon2025hack/step_04_hit_selection/docking/ligands/lig_186.pdb
REMARK  11 active torsions:
REMARK  status: ('A' for Active; 'I' for Inactive)
REMARK    1  A    between atoms: C1_1  and  C2_2
REMARK    2  A    between atoms: C4_4  and  C5_5
REMARK    3  A    between atoms: N1_7  and  C6_8
REMARK    4  A    between atoms: C8_10  and  C9_11
REMARK    5  A    between atoms: C9_11  and  N2_12
REMARK    6  A    between atoms: C10_13  and  C11_15
REMARK    7  A    between atoms: C11_15  and  C12_16
REMARK    8  A    between atoms: C12_16  and  C13_17
REMARK    9  A    between atoms: C12_16  and  C14_18
REMARK   10  A    between atoms: C14_18  and  C15_19
REMARK   11  A    between atoms: C14_18  and  C16_20
REMARK                            x       y       z     vdW  Elec       q    Type
REMARK                         _______ _______ _______ _____ _____    ______ ____
ROOT
ATOM      1  C6  UNL     1      18.705   8.487  37.915  0.00  0.00    +0.074 C 
ATOM      2  C7  UNL     1      17.344   7.909  37.522  0.00  0.00    +0.027 C 
ATOM      3  C8  UNL     1      16.704   9.280  37.725  0.00  0.00    +0.010 C 
ATOM      4  C17 UNL     1      18.063   9.855  38.126  0.00  0.00    +0.027 C 
ENDROOT
BRANCH   1   7
ATOM      5  C5  UNL     1      20.894   7.750  36.885  0.00  0.00    +0.282 C 
ATOM      6  O1  UNL     1      21.162   7.075  37.916  0.00  0.00    -0.267 OA
ATOM      7  N1  UNL     1      19.667   8.490  36.810  0.00  0.00    -0.306 N 
ATOM      8  H5  UNL     1      19.430   8.988  35.925  0.00  0.00    +0.149 HD
BRANCH   5  12
ATOM      9  C1  UNL     1      24.429   6.568  33.509  0.00  0.00    +0.069 C 
ATOM     10  C2  UNL     1      23.354   7.249  34.288  0.00  0.00    +0.081 A 
ATOM     11  C3  UNL     1      22.672   6.716  35.362  0.00  0.00    +0.080 A 
ATOM     12  C4  UNL     1      21.854   7.753  35.769  0.00  0.00    +0.222 A 
ATOM     13  O3  UNL     1      22.067   8.788  34.989  0.00  0.00    -0.350 OA
ATOM     14  N3  UNL     1      22.971   8.524  34.089  0.00  0.00    -0.083 NA
ENDBRANCH   5  12
ENDBRANCH   1   7
BRANCH   3  15
ATOM     15  C9  UNL     1      16.124   9.878  36.435  0.00  0.00    +0.107 C 
BRANCH  15  16
ATOM     16  N2  UNL     1      14.673   9.997  36.548  0.00  0.00    -0.315 N 
ATOM     17  C10 UNL     1      14.017  11.196  36.988  0.00  0.00    +0.213 C 
ATOM     18  O2  UNL     1      14.678  12.252  37.180  0.00  0.00    -0.276 OA
ATOM     19  H12 UNL     1      14.100   9.141  36.389  0.00  0.00    +0.149 HD
BRANCH  17  20
ATOM     20  C11 UNL     1      12.529  11.210  37.195  0.00  0.00    +0.099 C 
BRANCH  20  21
ATOM     21  C12 UNL     1      11.793  10.345  36.143  0.00  0.00    -0.003 C 
ATOM     22  C13 UNL     1      10.831   9.352  36.825  0.00  0.00    +0.008 C 
BRANCH  21  23
ATOM     23  C14 UNL     1      11.094  11.237  35.067  0.00  0.00    -0.014 C 
ATOM     24  C15 UNL     1      11.778  11.192  33.689  0.00  0.00    +0.007 C 
ATOM     25  C16 UNL     1      10.949  12.694  35.535  0.00  0.00    +0.007 C 
ENDBRANCH  21  23
ENDBRANCH  20  21
ENDBRANCH  17  20
ENDBRANCH  15  16
ENDBRANCH   3  15
TORSDOF 7
ENDMDL
MODEL 5
REMARK VINA RESULT:    -5.185      3.332      5.459
REMARK INTER + INTRA:          -8.116
REMARK INTER:                  -7.363
REMARK INTRA:                  -0.752
REMARK UNBOUND:                -0.809
REMARK  Name = /home/qwerty/github/datacon2025hack/step_04_hit_selection/docking/ligands/lig_186.pdb
REMARK  11 active torsions:
REMARK  status: ('A' for Active; 'I' for Inactive)
REMARK    1  A    between atoms: C1_1  and  C2_2
REMARK    2  A    between atoms: C4_4  and  C5_5
REMARK    3  A    between atoms: N1_7  and  C6_8
REMARK    4  A    between atoms: C8_10  and  C9_11
REMARK    5  A    between atoms: C9_11  and  N2_12
REMARK    6  A    between atoms: C10_13  and  C11_15
REMARK    7  A    between atoms: C11_15  and  C12_16
REMARK    8  A    between atoms: C12_16  and  C13_17
REMARK    9  A    between atoms: C12_16  and  C14_18
REMARK   10  A    between atoms: C14_18  and  C15_19
REMARK   11  A    between atoms: C14_18  and  C16_20
REMARK                            x       y       z     vdW  Elec       q    Type
REMARK                         _______ _______ _______ _____ _____    ______ ____
ROOT
ATOM      1  C6  UNL     1      21.813   2.295  31.619  0.00  0.00    +0.074 C 
ATOM      2  C7  UNL     1      20.589   2.576  32.492  0.00  0.00    +0.027 C 
ATOM      3  C8  UNL     1      21.338   3.720  33.173  0.00  0.00    +0.010 C 
ATOM      4  C17 UNL     1      22.564   3.432  32.305  0.00  0.00    +0.027 C 
ENDROOT
BRANCH   1   7
ATOM      5  C5  UNL     1      22.260   1.824  29.175  0.00  0.00    +0.282 C 
ATOM      6  O1  UNL     1      23.080   0.919  29.490  0.00  0.00    -0.267 OA
ATOM      7  N1  UNL     1      21.578   2.563  30.198  0.00  0.00    -0.306 N 
ATOM      8  H5  UNL     1      20.854   3.260  29.921  0.00  0.00    +0.149 HD
BRANCH   5  12
ATOM      9  C1  UNL     1      20.410   1.963  24.500  0.00  0.00    +0.069 C 
ATOM     10  C2  UNL     1      21.214   2.189  25.737  0.00  0.00    +0.081 A 
ATOM     11  C3  UNL     1      20.956   1.650  26.980  0.00  0.00    +0.080 A 
ATOM     12  C4  UNL     1      22.014   2.094  27.749  0.00  0.00    +0.222 A 
ATOM     13  O3  UNL     1      22.809   2.817  26.993  0.00  0.00    -0.350 OA
ATOM     14  N3  UNL     1      22.363   2.890  25.771  0.00  0.00    -0.083 NA
ENDBRANCH   5  12
ENDBRANCH   1   7
BRANCH   3  15
ATOM     15  C9  UNL     1      20.701   5.096  32.926  0.00  0.00    +0.107 C 
BRANCH  15  16
ATOM     16  N2  UNL     1      20.930   5.965  34.076  0.00  0.00    -0.315 N 
ATOM     17  C10 UNL     1      22.073   6.827  34.192  0.00  0.00    +0.213 C 
ATOM     18  O2  UNL     1      22.874   6.959  33.228  0.00  0.00    -0.276 OA
ATOM     19  H12 UNL     1      20.279   5.882  34.887  0.00  0.00    +0.149 HD
BRANCH  17  20
ATOM     20  C11 UNL     1      22.306   7.605  35.456  0.00  0.00    +0.099 C 
BRANCH  20  21
ATOM     21  C12 UNL     1      21.991   6.765  36.716  0.00  0.00    -0.003 C 
ATOM     22  C13 UNL     1      23.250   6.590  37.588  0.00  0.00    +0.008 C 
BRANCH  21  23
ATOM     23  C14 UNL     1      20.777   7.357  37.503  0.00  0.00    -0.014 C 
ATOM     24  C15 UNL     1      19.532   6.453  37.489  0.00  0.00    +0.007 C 
ATOM     25  C16 UNL     1      20.409   8.766  37.013  0.00  0.00    +0.007 C 
ENDBRANCH  21  23
ENDBRANCH  20  21
ENDBRANCH  17  20
ENDBRANCH  15  16
ENDBRANCH   3  15
TORSDOF 7
ENDMDL
MODEL 6
REMARK VINA RESULT:    -5.175      4.402      9.326
REMARK INTER + INTRA:          -8.102
REMARK INTER:                  -7.359
REMARK INTRA:                  -0.743
REMARK UNBOUND:                -0.809
REMARK  Name = /home/qwerty/github/datacon2025hack/step_04_hit_selection/docking/ligands/lig_186.pdb
REMARK  11 active torsions:
REMARK  status: ('A' for Active; 'I' for Inactive)
REMARK    1  A    between atoms: C1_1  and  C2_2
REMARK    2  A    between atoms: C4_4  and  C5_5
REMARK    3  A    between atoms: N1_7  and  C6_8
REMARK    4  A    between atoms: C8_10  and  C9_11
REMARK    5  A    between atoms: C9_11  and  N2_12
REMARK    6  A    between atoms: C10_13  and  C11_15
REMARK    7  A    between atoms: C11_15  and  C12_16
REMARK    8  A    between atoms: C12_16  and  C13_17
REMARK    9  A    between atoms: C12_16  and  C14_18
REMARK   10  A    between atoms: C14_18  and  C15_19
REMARK   11  A    between atoms: C14_18  and  C16_20
REMARK                            x       y       z     vdW  Elec       q    Type
REMARK                         _______ _______ _______ _____ _____    ______ ____
ROOT
ATOM      1  C6  UNL     1      17.213  11.989  35.390  0.00  0.00    +0.074 C 
ATOM      2  C7  UNL     1      17.793  10.576  35.320  0.00  0.00    +0.027 C 
ATOM      3  C8  UNL     1      18.849  10.958  36.356  0.00  0.00    +0.010 C 
ATOM      4  C17 UNL     1      18.273  12.374  36.419  0.00  0.00    +0.027 C 
ENDROOT
BRANCH   1   7
ATOM      5  C5  UNL     1      14.715  12.282  35.121  0.00  0.00    +0.282 C 
ATOM      6  O1  UNL     1      14.863  12.480  33.884  0.00  0.00    -0.267 OA
ATOM      7  N1  UNL     1      15.859  12.026  35.949  0.00  0.00    -0.306 N 
ATOM      8  H5  UNL     1      15.713  11.799  36.956  0.00  0.00    +0.149 HD
BRANCH   5  12
ATOM      9  C1  UNL     1      10.578  11.520  37.877  0.00  0.00    +0.069 C 
ATOM     10  C2  UNL     1      11.573  12.019  36.882  0.00  0.00    +0.081 A 
ATOM     11  C3  UNL     1      12.897  11.638  36.801  0.00  0.00    +0.080 A 
ATOM     12  C4  UNL     1      13.357  12.312  35.687  0.00  0.00    +0.222 A 
ATOM     13  O3  UNL     1      12.367  13.009  35.178  0.00  0.00    -0.350 OA
ATOM     14  N3  UNL     1      11.273  12.851  35.867  0.00  0.00    -0.083 NA
ENDBRANCH   5  12
ENDBRANCH   1   7
BRANCH   3  15
ATOM     15  C9  UNL     1      18.726  10.170  37.668  0.00  0.00    +0.107 C 
BRANCH  15  16
ATOM     16  N2  UNL     1      19.803   9.188  37.763  0.00  0.00    -0.315 N 
ATOM     17  C10 UNL     1      19.650   7.817  37.367  0.00  0.00    +0.213 C 
ATOM     18  O2  UNL     1      18.595   7.430  36.796  0.00  0.00    -0.276 OA
ATOM     19  H12 UNL     1      20.691   9.482  38.226  0.00  0.00    +0.149 HD
BRANCH  17  20
ATOM     20  C11 UNL     1      20.762   6.835  37.603  0.00  0.00    +0.099 C 
BRANCH  20  21
ATOM     21  C12 UNL     1      22.082   7.287  36.934  0.00  0.00    -0.003 C 
ATOM     22  C13 UNL     1      23.298   6.634  37.622  0.00  0.00    +0.008 C 
BRANCH  21  23
ATOM     23  C14 UNL     1      22.046   7.045  35.391  0.00  0.00    -0.014 C 
ATOM     24  C15 UNL     1      23.055   5.987  34.909  0.00  0.00    +0.007 C 
ATOM     25  C16 UNL     1      22.235   8.350  34.601  0.00  0.00    +0.007 C 
ENDBRANCH  21  23
ENDBRANCH  20  21
ENDBRANCH  17  20
ENDBRANCH  15  16
ENDBRANCH   3  15
TORSDOF 7
ENDMDL
MODEL 7
REMARK VINA RESULT:    -5.167      3.632      6.074
REMARK INTER + INTRA:          -8.091
REMARK INTER:                  -7.492
REMARK INTRA:                  -0.599
REMARK UNBOUND:                -0.809
REMARK  Name = /home/qwerty/github/datacon2025hack/step_04_hit_selection/docking/ligands/lig_186.pdb
REMARK  11 active torsions:
REMARK  status: ('A' for Active; 'I' for Inactive)
REMARK    1  A    between atoms: C1_1  and  C2_2
REMARK    2  A    between atoms: C4_4  and  C5_5
REMARK    3  A    between atoms: N1_7  and  C6_8
REMARK    4  A    between atoms: C8_10  and  C9_11
REMARK    5  A    between atoms: C9_11  and  N2_12
REMARK    6  A    between atoms: C10_13  and  C11_15
REMARK    7  A    between atoms: C11_15  and  C12_16
REMARK    8  A    between atoms: C12_16  and  C13_17
REMARK    9  A    between atoms: C12_16  and  C14_18
REMARK   10  A    between atoms: C14_18  and  C15_19
REMARK   11  A    between atoms: C14_18  and  C16_20
REMARK                            x       y       z     vdW  Elec       q    Type
REMARK                         _______ _______ _______ _____ _____    ______ ____
ROOT
ATOM      1  C6  UNL     1      21.863   1.791  31.169  0.00  0.00    +0.074 C 
ATOM      2  C7  UNL     1      20.677   1.889  32.130  0.00  0.00    +0.027 C 
ATOM      3  C8  UNL     1      21.334   3.084  32.818  0.00  0.00    +0.010 C 
ATOM      4  C17 UNL     1      22.523   2.979  31.862  0.00  0.00    +0.027 C 
ENDROOT
BRANCH   1   7
ATOM      5  C5  UNL     1      22.393   1.792  28.696  0.00  0.00    +0.282 C 
ATOM      6  O1  UNL     1      23.513   1.261  28.927  0.00  0.00    -0.267 OA
ATOM      7  N1  UNL     1      21.502   2.088  29.781  0.00  0.00    -0.306 N 
ATOM      8  H5  UNL     1      20.553   2.465  29.567  0.00  0.00    +0.149 HD
BRANCH   5  12
ATOM      9  C1  UNL     1      20.166   1.972  24.191  0.00  0.00    +0.069 C 
ATOM     10  C2  UNL     1      21.058   2.201  25.365  0.00  0.00    +0.081 A 
ATOM     11  C3  UNL     1      20.923   1.619  26.609  0.00  0.00    +0.080 A 
ATOM     12  C4  UNL     1      22.022   2.087  27.303  0.00  0.00    +0.222 A 
ATOM     13  O3  UNL     1      22.723   2.864  26.507  0.00  0.00    -0.350 OA
ATOM     14  N3  UNL     1      22.177   2.949  25.328  0.00  0.00    -0.083 NA
ENDBRANCH   5  12
ENDBRANCH   1   7
BRANCH   3  15
ATOM     15  C9  UNL     1      20.528   4.384  32.680  0.00  0.00    +0.107 C 
BRANCH  15  16
ATOM     16  N2  UNL     1      20.969   5.353  33.680  0.00  0.00    -0.315 N 
ATOM     17  C10 UNL     1      21.330   6.704  33.356  0.00  0.00    +0.213 C 
ATOM     18  O2  UNL     1      21.159   7.149  32.189  0.00  0.00    -0.276 OA
ATOM     19  H12 UNL     1      21.114   5.014  34.656  0.00  0.00    +0.149 HD
BRANCH  17  20
ATOM     20  C11 UNL     1      21.888   7.610  34.416  0.00  0.00    +0.099 C 
BRANCH  20  21
ATOM     21  C12 UNL     1      23.399   7.369  34.644  0.00  0.00    -0.003 C 
ATOM     22  C13 UNL     1      23.627   6.249  35.678  0.00  0.00    +0.008 C 
BRANCH  21  23
ATOM     23  C14 UNL     1      24.142   7.116  33.292  0.00  0.00    -0.014 C 
ATOM     24  C15 UNL     1      25.151   5.955  33.350  0.00  0.00    +0.007 C 
ATOM     25  C16 UNL     1      24.831   8.387  32.770  0.00  0.00    +0.007 C 
ENDBRANCH  21  23
ENDBRANCH  20  21
ENDBRANCH  17  20
ENDBRANCH  15  16
ENDBRANCH   3  15
TORSDOF 7
ENDMDL
MODEL 8
REMARK VINA RESULT:    -5.158      8.898     12.607
REMARK INTER + INTRA:          -8.077
REMARK INTER:                  -7.473
REMARK INTRA:                  -0.604
REMARK UNBOUND:                -0.809
REMARK  Name = /home/qwerty/github/datacon2025hack/step_04_hit_selection/docking/ligands/lig_186.pdb
REMARK  11 active torsions:
REMARK  status: ('A' for Active; 'I' for Inactive)
REMARK    1  A    between atoms: C1_1  and  C2_2
REMARK    2  A    between atoms: C4_4  and  C5_5
REMARK    3  A    between atoms: N1_7  and  C6_8
REMARK    4  A    between atoms: C8_10  and  C9_11
REMARK    5  A    between atoms: C9_11  and  N2_12
REMARK    6  A    between atoms: C10_13  and  C11_15
REMARK    7  A    between atoms: C11_15  and  C12_16
REMARK    8  A    between atoms: C12_16  and  C13_17
REMARK    9  A    between atoms: C12_16  and  C14_18
REMARK   10  A    between atoms: C14_18  and  C15_19
REMARK   11  A    between atoms: C14_18  and  C16_20
REMARK                            x       y       z     vdW  Elec       q    Type
REMARK                         _______ _______ _______ _____ _____    ______ ____
ROOT
ATOM      1  C6  UNL     1      12.186  13.535  35.284  0.00  0.00    +0.074 C 
ATOM      2  C7  UNL     1      10.919  13.087  34.553  0.00  0.00    +0.027 C 
ATOM      3  C8  UNL     1      11.339  13.896  33.328  0.00  0.00    +0.010 C 
ATOM      4  C17 UNL     1      12.601  14.351  34.063  0.00  0.00    +0.027 C 
ENDROOT
BRANCH   1   7
ATOM      5  C5  UNL     1      14.148  12.552  36.541  0.00  0.00    +0.282 C 
ATOM      6  O1  UNL     1      14.275  13.622  37.196  0.00  0.00    -0.267 OA
ATOM      7  N1  UNL     1      13.111  12.433  35.556  0.00  0.00    -0.306 N 
ATOM      8  H5  UNL     1      12.978  11.519  35.071  0.00  0.00    +0.149 HD
BRANCH   5  12
ATOM      9  C1  UNL     1      18.014   9.689  38.004  0.00  0.00    +0.069 C 
ATOM     10  C2  UNL     1      16.715  10.185  37.464  0.00  0.00    +0.081 A 
ATOM     11  C3  UNL     1      16.269  11.490  37.499  0.00  0.00    +0.080 A 
ATOM     12  C4  UNL     1      15.071  11.439  36.813  0.00  0.00    +0.222 A 
ATOM     13  O3  UNL     1      14.865  10.203  36.417  0.00  0.00    -0.350 OA
ATOM     14  N3  UNL     1      15.840   9.420  36.784  0.00  0.00    -0.083 NA
ENDBRANCH   5  12
ENDBRANCH   1   7
BRANCH   3  15
ATOM     15  C9  UNL     1      11.610  13.030  32.090  0.00  0.00    +0.107 C 
BRANCH  15  16
ATOM     16  N2  UNL     1      10.764  13.465  30.982  0.00  0.00    -0.315 N 
ATOM     17  C10 UNL     1      11.067  13.183  29.607  0.00  0.00    +0.213 C 
ATOM     18  O2  UNL     1      12.030  12.427  29.307  0.00  0.00    -0.276 OA
ATOM     19  H12 UNL     1       9.956  14.086  31.201  0.00  0.00    +0.149 HD
BRANCH  17  20
ATOM     20  C11 UNL     1      10.217  13.763  28.513  0.00  0.00    +0.099 C 
BRANCH  20  21
ATOM     21  C12 UNL     1       8.753  13.268  28.597  0.00  0.00    -0.003 C 
ATOM     22  C13 UNL     1       7.866  14.002  27.571  0.00  0.00    +0.008 C 
BRANCH  21  23
ATOM     23  C14 UNL     1       8.673  11.712  28.475  0.00  0.00    -0.014 C 
ATOM     24  C15 UNL     1       8.264  11.223  27.074  0.00  0.00    +0.007 C 
ATOM     25  C16 UNL     1       7.746  11.100  29.538  0.00  0.00    +0.007 C 
ENDBRANCH  21  23
ENDBRANCH  20  21
ENDBRANCH  17  20
ENDBRANCH  15  16
ENDBRANCH   3  15
TORSDOF 7
ENDMDL
MODEL 9
REMARK VINA RESULT:    -5.121     14.652     15.919
REMARK INTER + INTRA:          -8.025
REMARK INTER:                  -7.484
REMARK INTRA:                  -0.541
REMARK UNBOUND:                -0.809
REMARK  Name = /home/qwerty/github/datacon2025hack/step_04_hit_selection/docking/ligands/lig_186.pdb
REMARK  11 active torsions:
REMARK  status: ('A' for Active; 'I' for Inactive)
REMARK    1  A    between atoms: C1_1  and  C2_2
REMARK    2  A    between atoms: C4_4  and  C5_5
REMARK    3  A    between atoms: N1_7  and  C6_8
REMARK    4  A    between atoms: C8_10  and  C9_11
REMARK    5  A    between atoms: C9_11  and  N2_12
REMARK    6  A    between atoms: C10_13  and  C11_15
REMARK    7  A    between atoms: C11_15  and  C12_16
REMARK    8  A    between atoms: C12_16  and  C13_17
REMARK    9  A    between atoms: C12_16  and  C14_18
REMARK   10  A    between atoms: C14_18  and  C15_19
REMARK   11  A    between atoms: C14_18  and  C16_20
REMARK                            x       y       z     vdW  Elec       q    Type
REMARK                         _______ _______ _______ _____ _____    ______ ____
ROOT
ATOM      1  C6  UNL     1       8.943   9.279  23.154  0.00  0.00    +0.074 C 
ATOM      2  C7  UNL     1       9.571   9.984  24.357  0.00  0.00    +0.027 C 
ATOM      3  C8  UNL     1       8.179  10.332  24.880  0.00  0.00    +0.010 C 
ATOM      4  C17 UNL     1       7.551   9.635  23.672  0.00  0.00    +0.027 C 
ENDROOT
BRANCH   1   7
ATOM      5  C5  UNL     1       9.023   7.054  21.954  0.00  0.00    +0.282 C 
ATOM      6  O1  UNL     1       8.677   7.612  20.878  0.00  0.00    -0.267 OA
ATOM      7  N1  UNL     1       9.180   7.833  23.149  0.00  0.00    -0.306 N 
ATOM      8  H5  UNL     1       9.531   7.368  24.014  0.00  0.00    +0.149 HD
BRANCH   5  12
ATOM      9  C1  UNL     1       9.468   2.197  23.182  0.00  0.00    +0.069 C 
ATOM     10  C2  UNL     1       9.437   3.501  22.456  0.00  0.00    +0.081 A 
ATOM     11  C3  UNL     1       9.042   4.712  22.986  0.00  0.00    +0.080 A 
ATOM     12  C4  UNL     1       9.268   5.603  21.954  0.00  0.00    +0.222 A 
ATOM     13  O3  UNL     1       9.761   4.943  20.929  0.00  0.00    -0.350 OA
ATOM     14  N3  UNL     1       9.884   3.675  21.198  0.00  0.00    -0.083 NA
ENDBRANCH   5  12
ENDBRANCH   1   7
BRANCH   3  15
ATOM     15  C9  UNL     1       7.851   9.672  26.227  0.00  0.00    +0.107 C 
BRANCH  15  16
ATOM     16  N2  UNL     1       8.228  10.561  27.323  0.00  0.00    -0.315 N 
ATOM     17  C10 UNL     1       7.622  10.502  28.623  0.00  0.00    +0.213 C 
ATOM     18  O2  UNL     1       6.811   9.580  28.909  0.00  0.00    -0.276 OA
ATOM     19  H12 UNL     1       8.901  11.330  27.116  0.00  0.00    +0.149 HD
BRANCH  17  20
ATOM     20  C11 UNL     1       7.974  11.525  29.666  0.00  0.00    +0.099 C 
BRANCH  20  21
ATOM     21  C12 UNL     1       8.161  12.933  29.053  0.00  0.00    -0.003 C 
ATOM     22  C13 UNL     1       7.179  13.941  29.682  0.00  0.00    +0.008 C 
BRANCH  21  23
ATOM     23  C14 UNL     1       9.652  13.394  29.138  0.00  0.00    -0.014 C 
ATOM     24  C15 UNL     1      10.272  13.732  27.771  0.00  0.00    +0.007 C 
ATOM     25  C16 UNL     1      10.528  12.368  29.874  0.00  0.00    +0.007 C 
ENDBRANCH  21  23
ENDBRANCH  20  21
ENDBRANCH  17  20
ENDBRANCH  15  16
ENDBRANCH   3  15
TORSDOF 7
ENDMDL
