REMARK  Name = /home/qwerty/github/datacon2025hack/step_04_hit_selection/docking/ligands/lig_580.pdb
REMARK  7 active torsions:
REMARK  status: ('A' for Active; 'I' for Inactive)
REMARK    1  A    between atoms: C1_1  and  C2_2
REMARK    2  A    between atoms: C4_4  and  C5_5
REMARK    3  A    between atoms: C9_12  and  C10_14
REMARK    4  A    between atoms: C11_15  and  C12_16
REMARK    5  A    between atoms: N4_19  and  C14_20
REMARK    6  A    between atoms: C16_22  and  C17_23
REMARK    7  A    between atoms: N5_25  and  C19_26
REMARK                            x       y       z     vdW  Elec       q    Type
REMARK                         _______ _______ _______ _____ _____    ______ ____
ROOT
ATOM      1  C5  UNL     1       2.957   0.667   1.496  0.00  0.00    +0.265 C 
ATOM      2  O1  UNL     1       3.393   1.152   2.575  0.00  0.00    -0.268 OA
ATOM      3  N1  UNL     1       1.693   1.103   0.977  0.00  0.00    -0.295 N 
ATOM      4  C6  UNL     1       0.644   1.653   1.815  0.00  0.00    +0.113 C 
ATOM      5  C7  UNL     1      -0.525   1.922   0.868  0.00  0.00    +0.033 C 
ATOM      6  C8  UNL     1      -1.525   0.759   0.802  0.00  0.00    +0.113 C 
ATOM      7  N2  UNL     1      -1.804   0.562  -0.611  0.00  0.00    -0.295 N 
ATOM      8  C9  UNL     1      -2.700  -0.445  -1.109  0.00  0.00    +0.265 C 
ATOM      9  O2  UNL     1      -2.498  -0.957  -2.243  0.00  0.00    -0.268 OA
ATOM     10  C15 UNL     1      -0.944   1.349  -1.476  0.00  0.00    +0.116 C 
ATOM     11  C16 UNL     1       0.084   2.012  -0.542  0.00  0.00    +0.005 C 
ATOM     12  C17 UNL     1       0.358   3.473  -0.946  0.00  0.00    +0.015 C 
ATOM     13  C18 UNL     1       1.402   1.209  -0.444  0.00  0.00    +0.116 C 
ENDROOT
BRANCH   1  17
ATOM     14  C1  UNL     1       6.755  -1.666  -0.806  0.00  0.00    +0.067 C 
ATOM     15  C2  UNL     1       5.434  -1.348  -0.190  0.00  0.00    +0.061 A 
ATOM     16  C3  UNL     1       5.111  -0.179   0.472  0.00  0.00    +0.057 A 
ATOM     17  C4  UNL     1       3.773  -0.322   0.774  0.00  0.00    +0.123 A 
ATOM     18  N5  UNL     1       3.349  -1.525   0.321  0.00  0.00    -0.262 N 
ATOM     19  C19 UNL     1       2.033  -2.135   0.494  0.00  0.00    +0.173 C 
ATOM     20  N6  UNL     1       4.353  -2.147  -0.277  0.00  0.00    -0.176 NA
ENDBRANCH   1  17
BRANCH   8  21
ATOM     21  C10 UNL     1      -3.853  -0.902  -0.313  0.00  0.00    +0.127 A 
ATOM     22  C11 UNL     1      -4.847  -0.117   0.247  0.00  0.00    +0.068 A 
ATOM     23  C12 UNL     1      -4.973   1.373   0.183  0.00  0.00    +0.068 C 
ATOM     24  N3  UNL     1      -5.763  -0.909   0.843  0.00  0.00    -0.240 NA
ATOM     25  C13 UNL     1      -5.314  -2.164   0.627  0.00  0.00    +0.199 A 
ATOM     26  N4  UNL     1      -4.161  -2.189  -0.071  0.00  0.00    -0.329 N 
ATOM     27  C14 UNL     1      -3.443  -3.379  -0.519  0.00  0.00    +0.150 C 
ENDBRANCH   8  21
TORSDOF 2
