MODEL 1
REMARK VINA RESULT:    -6.677      0.000      0.000
REMARK INTER + INTRA:          -9.046
REMARK INTER:                  -8.434
REMARK INTRA:                  -0.612
REMARK UNBOUND:                -0.612
REMARK  Name = /home/qwerty/github/datacon2025hack/step_04_hit_selection/docking/ligands/lig_85.pdb
REMARK  7 active torsions:
REMARK  status: ('A' for Active; 'I' for Inactive)
REMARK    1  A    between atoms: C1_1  and  C2_2
REMARK    2  A    between atoms: C4_4  and  C5_5
REMARK    3  A    between atoms: N1_7  and  C6_8
REMARK    4  A    between atoms: C9_11  and  O2_12
REMARK    5  A    between atoms: C12_15  and  C13_16
REMARK    6  A    between atoms: N2_17  and  C14_18
REMARK    7  A    between atoms: C14_18  and  C15_19
REMARK                            x       y       z     vdW  Elec       q    Type
REMARK                         _______ _______ _______ _____ _____    ______ ____
ROOT
ATOM      1  C1  UNL     1      19.017   1.233  29.673  0.00  0.00    +0.063 C 
ATOM      2  C2  UNL     1      19.543   1.640  28.330  0.00  0.00    +0.017 A 
ATOM      3  C3  UNL     1      18.787   1.682  27.177  0.00  0.00    +0.035 A 
ATOM      4  C4  UNL     1      19.637   2.077  26.159  0.00  0.00    +0.058 A 
ATOM      5  C12 UNL     1      20.894   2.246  26.738  0.00  0.00    +0.028 A 
ATOM      6  C13 UNL     1      22.136   2.675  26.007  0.00  0.00    +0.064 C 
ATOM      7  N2  UNL     1      20.826   1.985  28.067  0.00  0.00    -0.343 N 
ENDROOT
BRANCH   4   8
ATOM      8  C5  UNL     1      19.258   2.259  24.739  0.00  0.00    +0.250 C 
ATOM      9  O1  UNL     1      20.098   2.020  23.830  0.00  0.00    -0.270 OA
ATOM     10  N1  UNL     1      17.951   2.744  24.391  0.00  0.00    -0.281 N 
ATOM     11  H5  UNL     1      17.440   3.330  25.088  0.00  0.00    +0.155 HD
BRANCH  10  12
ATOM     12  C6  UNL     1      17.361   2.591  23.088  0.00  0.00    +0.034 A 
ATOM     13  C7  UNL     1      17.445   3.608  22.118  0.00  0.00    +0.027 A 
ATOM     14  C8  UNL     1      16.884   3.423  20.851  0.00  0.00    +0.047 A 
ATOM     15  C9  UNL     1      16.245   2.221  20.531  0.00  0.00    +0.117 A 
ATOM     16  C10 UNL     1      16.174   1.197  21.485  0.00  0.00    +0.047 A 
ATOM     17  C11 UNL     1      16.736   1.379  22.753  0.00  0.00    +0.027 A 
BRANCH  15  18
ATOM     18  O2  UNL     1      15.690   2.052  19.264  0.00  0.00    -0.507 OA
ATOM     19  H8  UNL     1      16.083   2.508  18.450  0.00  0.00    +0.292 HD
ENDBRANCH  15  18
ENDBRANCH  10  12
ENDBRANCH   4   8
BRANCH   7  20
ATOM     20  C14 UNL     1      21.921   2.087  29.045  0.00  0.00    +0.156 C 
BRANCH  20  21
ATOM     21  C15 UNL     1      22.790   0.855  29.009  0.00  0.00    -0.028 A 
ATOM     22  C16 UNL     1      24.165   0.947  29.283  0.00  0.00    +0.005 A 
ATOM     23  C17 UNL     1      24.966  -0.199  29.263  0.00  0.00    +0.000 A 
ATOM     24  C18 UNL     1      24.401  -1.445  28.977  0.00  0.00    +0.000 A 
ATOM     25  C19 UNL     1      23.032  -1.548  28.716  0.00  0.00    +0.000 A 
ATOM     26  C20 UNL     1      22.227  -0.405  28.737  0.00  0.00    +0.005 A 
ENDBRANCH  20  21
ENDBRANCH   7  20
TORSDOF 5
ENDMDL
MODEL 2
REMARK VINA RESULT:    -6.654      6.122     10.035
REMARK INTER + INTRA:          -9.017
REMARK INTER:                  -8.563
REMARK INTRA:                  -0.454
REMARK UNBOUND:                -0.612
REMARK  Name = /home/qwerty/github/datacon2025hack/step_04_hit_selection/docking/ligands/lig_85.pdb
REMARK  7 active torsions:
REMARK  status: ('A' for Active; 'I' for Inactive)
REMARK    1  A    between atoms: C1_1  and  C2_2
REMARK    2  A    between atoms: C4_4  and  C5_5
REMARK    3  A    between atoms: N1_7  and  C6_8
REMARK    4  A    between atoms: C9_11  and  O2_12
REMARK    5  A    between atoms: C12_15  and  C13_16
REMARK    6  A    between atoms: N2_17  and  C14_18
REMARK    7  A    between atoms: C14_18  and  C15_19
REMARK                            x       y       z     vdW  Elec       q    Type
REMARK                         _______ _______ _______ _____ _____    ______ ____
ROOT
ATOM      1  C1  UNL     1      21.438   4.485  27.990  0.00  0.00    +0.063 C 
ATOM      2  C2  UNL     1      21.247   3.983  29.390  0.00  0.00    +0.017 A 
ATOM      3  C3  UNL     1      21.211   4.789  30.509  0.00  0.00    +0.035 A 
ATOM      4  C4  UNL     1      21.046   3.949  31.597  0.00  0.00    +0.058 A 
ATOM      5  C12 UNL     1      21.003   2.651  31.090  0.00  0.00    +0.028 A 
ATOM      6  C13 UNL     1      20.834   1.404  31.913  0.00  0.00    +0.064 C 
ATOM      7  N2  UNL     1      21.118   2.681  29.739  0.00  0.00    -0.343 N 
ENDROOT
BRANCH   4   8
ATOM      8  C5  UNL     1      20.953   4.377  33.012  0.00  0.00    +0.250 C 
ATOM      9  O1  UNL     1      20.537   3.569  33.884  0.00  0.00    -0.270 OA
ATOM     10  N1  UNL     1      21.299   5.720  33.390  0.00  0.00    -0.281 N 
ATOM     11  H5  UNL     1      21.219   6.472  32.670  0.00  0.00    +0.155 HD
BRANCH  10  12
ATOM     12  C6  UNL     1      21.613   6.116  34.737  0.00  0.00    +0.034 A 
ATOM     13  C7  UNL     1      22.932   6.080  35.226  0.00  0.00    +0.027 A 
ATOM     14  C8  UNL     1      23.213   6.494  36.531  0.00  0.00    +0.047 A 
ATOM     15  C9  UNL     1      22.187   6.959  37.359  0.00  0.00    +0.117 A 
ATOM     16  C10 UNL     1      20.874   7.015  36.874  0.00  0.00    +0.047 A 
ATOM     17  C11 UNL     1      20.591   6.603  35.568  0.00  0.00    +0.027 A 
BRANCH  15  18
ATOM     18  O2  UNL     1      22.483   7.366  38.659  0.00  0.00    -0.507 OA
ATOM     19  H8  UNL     1      22.712   6.697  39.384  0.00  0.00    +0.292 HD
ENDBRANCH  15  18
ENDBRANCH  10  12
ENDBRANCH   4   8
BRANCH   7  20
ATOM     20  C14 UNL     1      21.079   1.531  28.823  0.00  0.00    +0.156 C 
BRANCH  20  21
ATOM     21  C15 UNL     1      22.340   0.711  28.935  0.00  0.00    -0.028 A 
ATOM     22  C16 UNL     1      22.297  -0.685  28.778  0.00  0.00    +0.005 A 
ATOM     23  C17 UNL     1      23.469  -1.442  28.868  0.00  0.00    +0.000 A 
ATOM     24  C18 UNL     1      24.693  -0.811  29.108  0.00  0.00    +0.000 A 
ATOM     25  C19 UNL     1      24.748   0.577  29.253  0.00  0.00    +0.000 A 
ATOM     26  C20 UNL     1      23.578   1.338  29.162  0.00  0.00    +0.005 A 
ENDBRANCH  20  21
ENDBRANCH   7  20
TORSDOF 5
ENDMDL
MODEL 3
REMARK VINA RESULT:    -6.558      5.825      9.380
REMARK INTER + INTRA:          -8.896
REMARK INTER:                  -7.906
REMARK INTRA:                  -0.990
REMARK UNBOUND:                -0.612
REMARK  Name = /home/qwerty/github/datacon2025hack/step_04_hit_selection/docking/ligands/lig_85.pdb
REMARK  7 active torsions:
REMARK  status: ('A' for Active; 'I' for Inactive)
REMARK    1  A    between atoms: C1_1  and  C2_2
REMARK    2  A    between atoms: C4_4  and  C5_5
REMARK    3  A    between atoms: N1_7  and  C6_8
REMARK    4  A    between atoms: C9_11  and  O2_12
REMARK    5  A    between atoms: C12_15  and  C13_16
REMARK    6  A    between atoms: N2_17  and  C14_18
REMARK    7  A    between atoms: C14_18  and  C15_19
REMARK                            x       y       z     vdW  Elec       q    Type
REMARK                         _______ _______ _______ _____ _____    ______ ____
ROOT
ATOM      1  C1  UNL     1      20.005   0.028  31.557  0.00  0.00    +0.063 C 
ATOM      2  C2  UNL     1      20.355   1.463  31.299  0.00  0.00    +0.017 A 
ATOM      3  C3  UNL     1      20.265   2.468  32.240  0.00  0.00    +0.035 A 
ATOM      4  C4  UNL     1      20.649   3.638  31.608  0.00  0.00    +0.058 A 
ATOM      5  C12 UNL     1      20.946   3.295  30.290  0.00  0.00    +0.028 A 
ATOM      6  C13 UNL     1      21.411   4.253  29.227  0.00  0.00    +0.064 C 
ATOM      7  N2  UNL     1      20.772   1.962  30.111  0.00  0.00    -0.343 N 
ENDROOT
BRANCH   4   8
ATOM      8  C5  UNL     1      20.707   4.979  32.234  0.00  0.00    +0.250 C 
ATOM      9  O1  UNL     1      19.828   5.839  31.956  0.00  0.00    -0.270 OA
ATOM     10  N1  UNL     1      21.780   5.320  33.128  0.00  0.00    -0.281 N 
ATOM     11  H5  UNL     1      22.688   4.814  33.023  0.00  0.00    +0.155 HD
BRANCH  10  12
ATOM     12  C6  UNL     1      21.726   6.410  34.063  0.00  0.00    +0.034 A 
ATOM     13  C7  UNL     1      22.306   7.660  33.771  0.00  0.00    +0.027 A 
ATOM     14  C8  UNL     1      22.218   8.711  34.689  0.00  0.00    +0.047 A 
ATOM     15  C9  UNL     1      21.542   8.534  35.900  0.00  0.00    +0.117 A 
ATOM     16  C10 UNL     1      20.947   7.299  36.190  0.00  0.00    +0.047 A 
ATOM     17  C11 UNL     1      21.033   6.247  35.273  0.00  0.00    +0.027 A 
BRANCH  15  18
ATOM     18  O2  UNL     1      21.465   9.591  36.805  0.00  0.00    -0.507 OA
ATOM     19  H8  UNL     1      20.644  10.183  36.858  0.00  0.00    +0.292 HD
ENDBRANCH  15  18
ENDBRANCH  10  12
ENDBRANCH   4   8
BRANCH   7  20
ATOM     20  C14 UNL     1      21.017   1.196  28.880  0.00  0.00    +0.156 C 
BRANCH  20  21
ATOM     21  C15 UNL     1      22.352   0.497  28.938  0.00  0.00    -0.028 A 
ATOM     22  C16 UNL     1      23.529   1.229  29.178  0.00  0.00    +0.005 A 
ATOM     23  C17 UNL     1      24.763   0.577  29.245  0.00  0.00    +0.000 A 
ATOM     24  C18 UNL     1      24.834  -0.809  29.082  0.00  0.00    +0.000 A 
ATOM     25  C19 UNL     1      23.669  -1.547  28.857  0.00  0.00    +0.000 A 
ATOM     26  C20 UNL     1      22.431  -0.899  28.791  0.00  0.00    +0.005 A 
ENDBRANCH  20  21
ENDBRANCH   7  20
TORSDOF 5
ENDMDL
MODEL 4
REMARK VINA RESULT:    -6.443     14.845     17.839
REMARK INTER + INTRA:          -8.751
REMARK INTER:                  -8.010
REMARK INTRA:                  -0.740
REMARK UNBOUND:                -0.612
REMARK  Name = /home/qwerty/github/datacon2025hack/step_04_hit_selection/docking/ligands/lig_85.pdb
REMARK  7 active torsions:
REMARK  status: ('A' for Active; 'I' for Inactive)
REMARK    1  A    between atoms: C1_1  and  C2_2
REMARK    2  A    between atoms: C4_4  and  C5_5
REMARK    3  A    between atoms: N1_7  and  C6_8
REMARK    4  A    between atoms: C9_11  and  O2_12
REMARK    5  A    between atoms: C12_15  and  C13_16
REMARK    6  A    between atoms: N2_17  and  C14_18
REMARK    7  A    between atoms: C14_18  and  C15_19
REMARK                            x       y       z     vdW  Elec       q    Type
REMARK                         _______ _______ _______ _____ _____    ______ ____
ROOT
ATOM      1  C1  UNL     1      11.433  14.630  28.104  0.00  0.00    +0.063 C 
ATOM      2  C2  UNL     1      11.477  13.704  29.281  0.00  0.00    +0.017 A 
ATOM      3  C3  UNL     1      12.363  13.820  30.332  0.00  0.00    +0.035 A 
ATOM      4  C4  UNL     1      12.099  12.768  31.192  0.00  0.00    +0.058 A 
ATOM      5  C12 UNL     1      11.061  12.038  30.615  0.00  0.00    +0.028 A 
ATOM      6  C13 UNL     1      10.439  10.801  31.202  0.00  0.00    +0.064 C 
ATOM      7  N2  UNL     1      10.680  12.621  29.451  0.00  0.00    -0.343 N 
ENDROOT
BRANCH   4   8
ATOM      8  C5  UNL     1      12.810  12.491  32.462  0.00  0.00    +0.250 C 
ATOM      9  O1  UNL     1      13.239  11.331  32.699  0.00  0.00    -0.270 OA
ATOM     10  N1  UNL     1      12.979  13.529  33.442  0.00  0.00    -0.281 N 
ATOM     11  H5  UNL     1      12.289  14.312  33.455  0.00  0.00    +0.155 HD
BRANCH  10  12
ATOM     12  C6  UNL     1      13.957  13.481  34.496  0.00  0.00    +0.034 A 
ATOM     13  C7  UNL     1      15.333  13.609  34.228  0.00  0.00    +0.027 A 
ATOM     14  C8  UNL     1      16.261  13.584  35.274  0.00  0.00    +0.047 A 
ATOM     15  C9  UNL     1      15.829  13.445  36.596  0.00  0.00    +0.117 A 
ATOM     16  C10 UNL     1      14.460  13.336  36.872  0.00  0.00    +0.047 A 
ATOM     17  C11 UNL     1      13.529  13.362  35.828  0.00  0.00    +0.027 A 
BRANCH  15  18
ATOM     18  O2  UNL     1      16.766  13.420  37.627  0.00  0.00    -0.507 OA
ATOM     19  H8  UNL     1      16.494  13.562  38.593  0.00  0.00    +0.292 HD
ENDBRANCH  15  18
ENDBRANCH  10  12
ENDBRANCH   4   8
BRANCH   7  20
ATOM     20  C14 UNL     1       9.595  12.188  28.559  0.00  0.00    +0.156 C 
BRANCH  20  21
ATOM     21  C15 UNL     1       8.451  13.170  28.587  0.00  0.00    -0.028 A 
ATOM     22  C16 UNL     1       7.854  13.533  29.807  0.00  0.00    +0.005 A 
ATOM     23  C17 UNL     1       6.803  14.454  29.832  0.00  0.00    +0.000 A 
ATOM     24  C18 UNL     1       6.345  15.026  28.642  0.00  0.00    +0.000 A 
ATOM     25  C19 UNL     1       6.940  14.682  27.426  0.00  0.00    +0.000 A 
ATOM     26  C20 UNL     1       7.993  13.762  27.397  0.00  0.00    +0.005 A 
ENDBRANCH  20  21
ENDBRANCH   7  20
TORSDOF 5
ENDMDL
MODEL 5
REMARK VINA RESULT:    -6.378     12.554     15.576
REMARK INTER + INTRA:          -8.669
REMARK INTER:                  -7.702
REMARK INTRA:                  -0.967
REMARK UNBOUND:                -0.612
REMARK  Name = /home/qwerty/github/datacon2025hack/step_04_hit_selection/docking/ligands/lig_85.pdb
REMARK  7 active torsions:
REMARK  status: ('A' for Active; 'I' for Inactive)
REMARK    1  A    between atoms: C1_1  and  C2_2
REMARK    2  A    between atoms: C4_4  and  C5_5
REMARK    3  A    between atoms: N1_7  and  C6_8
REMARK    4  A    between atoms: C9_11  and  O2_12
REMARK    5  A    between atoms: C12_15  and  C13_16
REMARK    6  A    between atoms: N2_17  and  C14_18
REMARK    7  A    between atoms: C14_18  and  C15_19
REMARK                            x       y       z     vdW  Elec       q    Type
REMARK                         _______ _______ _______ _____ _____    ______ ____
ROOT
ATOM      1  C1  UNL     1      24.472  15.332  19.320  0.00  0.00    +0.063 C 
ATOM      2  C2  UNL     1      23.754  15.371  20.636  0.00  0.00    +0.017 A 
ATOM      3  C3  UNL     1      24.380  15.392  21.865  0.00  0.00    +0.035 A 
ATOM      4  C4  UNL     1      23.378  15.400  22.820  0.00  0.00    +0.058 A 
ATOM      5  C12 UNL     1      22.171  15.367  22.125  0.00  0.00    +0.028 A 
ATOM      6  C13 UNL     1      20.806  15.363  22.757  0.00  0.00    +0.064 C 
ATOM      7  N2  UNL     1      22.408  15.358  20.790  0.00  0.00    -0.343 N 
ENDROOT
BRANCH   4   8
ATOM      8  C5  UNL     1      23.584  15.422  24.287  0.00  0.00    +0.250 C 
ATOM      9  O1  UNL     1      24.117  16.427  24.829  0.00  0.00    -0.270 OA
ATOM     10  N1  UNL     1      23.214  14.289  25.091  0.00  0.00    -0.281 N 
ATOM     11  H5  UNL     1      23.192  13.349  24.637  0.00  0.00    +0.155 HD
BRANCH  10  12
ATOM     12  C6  UNL     1      23.010  14.351  26.513  0.00  0.00    +0.034 A 
ATOM     13  C7  UNL     1      21.930  15.060  27.071  0.00  0.00    +0.027 A 
ATOM     14  C8  UNL     1      21.740  15.083  28.457  0.00  0.00    +0.047 A 
ATOM     15  C9  UNL     1      22.617  14.391  29.299  0.00  0.00    +0.117 A 
ATOM     16  C10 UNL     1      23.683  13.669  28.750  0.00  0.00    +0.047 A 
ATOM     17  C11 UNL     1      23.874  13.643  27.364  0.00  0.00    +0.027 A 
BRANCH  15  18
ATOM     18  O2  UNL     1      22.416  14.425  30.678  0.00  0.00    -0.507 OA
ATOM     19  H8  UNL     1      21.495  14.299  31.081  0.00  0.00    +0.292 HD
ENDBRANCH  15  18
ENDBRANCH  10  12
ENDBRANCH   4   8
BRANCH   7  20
ATOM     20  C14 UNL     1      21.406  15.365  19.713  0.00  0.00    +0.156 C 
BRANCH  20  21
ATOM     21  C15 UNL     1      20.852  13.981  19.485  0.00  0.00    -0.028 A 
ATOM     22  C16 UNL     1      19.511  13.693  19.792  0.00  0.00    +0.005 A 
ATOM     23  C17 UNL     1      18.996  12.413  19.566  0.00  0.00    +0.000 A 
ATOM     24  C18 UNL     1      19.811  11.414  19.027  0.00  0.00    +0.000 A 
ATOM     25  C19 UNL     1      21.141  11.695  18.706  0.00  0.00    +0.000 A 
ATOM     26  C20 UNL     1      21.660  12.975  18.928  0.00  0.00    +0.005 A 
ENDBRANCH  20  21
ENDBRANCH   7  20
TORSDOF 5
ENDMDL
MODEL 6
REMARK VINA RESULT:    -6.368     11.958     15.484
REMARK INTER + INTRA:          -8.655
REMARK INTER:                  -7.692
REMARK INTRA:                  -0.963
REMARK UNBOUND:                -0.612
REMARK  Name = /home/qwerty/github/datacon2025hack/step_04_hit_selection/docking/ligands/lig_85.pdb
REMARK  7 active torsions:
REMARK  status: ('A' for Active; 'I' for Inactive)
REMARK    1  A    between atoms: C1_1  and  C2_2
REMARK    2  A    between atoms: C4_4  and  C5_5
REMARK    3  A    between atoms: N1_7  and  C6_8
REMARK    4  A    between atoms: C9_11  and  O2_12
REMARK    5  A    between atoms: C12_15  and  C13_16
REMARK    6  A    between atoms: N2_17  and  C14_18
REMARK    7  A    between atoms: C14_18  and  C15_19
REMARK                            x       y       z     vdW  Elec       q    Type
REMARK                         _______ _______ _______ _____ _____    ______ ____
ROOT
ATOM      1  C1  UNL     1      17.299  13.592  34.858  0.00  0.00    +0.063 C 
ATOM      2  C2  UNL     1      17.719  12.332  35.553  0.00  0.00    +0.017 A 
ATOM      3  C3  UNL     1      18.665  11.453  35.067  0.00  0.00    +0.035 A 
ATOM      4  C4  UNL     1      18.746  10.414  35.979  0.00  0.00    +0.058 A 
ATOM      5  C12 UNL     1      17.825  10.700  36.985  0.00  0.00    +0.028 A 
ATOM      6  C13 UNL     1      17.566   9.844  38.194  0.00  0.00    +0.064 C 
ATOM      7  N2  UNL     1      17.207  11.878  36.722  0.00  0.00    -0.343 N 
ENDROOT
BRANCH   4   8
ATOM      8  C5  UNL     1      19.637   9.236  35.869  0.00  0.00    +0.250 C 
ATOM      9  O1  UNL     1      19.166   8.127  35.499  0.00  0.00    -0.270 OA
ATOM     10  N1  UNL     1      21.027   9.339  36.218  0.00  0.00    -0.281 N 
ATOM     11  H5  UNL     1      21.310  10.076  36.902  0.00  0.00    +0.155 HD
BRANCH  10  12
ATOM     12  C6  UNL     1      22.031   8.402  35.792  0.00  0.00    +0.034 A 
ATOM     13  C7  UNL     1      22.437   7.334  36.615  0.00  0.00    +0.027 A 
ATOM     14  C8  UNL     1      23.398   6.423  36.165  0.00  0.00    +0.047 A 
ATOM     15  C9  UNL     1      23.954   6.557  34.890  0.00  0.00    +0.117 A 
ATOM     16  C10 UNL     1      23.542   7.606  34.058  0.00  0.00    +0.047 A 
ATOM     17  C11 UNL     1      22.580   8.518  34.505  0.00  0.00    +0.027 A 
BRANCH  15  18
ATOM     18  O2  UNL     1      24.912   5.641  34.457  0.00  0.00    -0.507 OA
ATOM     19  H8  UNL     1      24.810   5.143  33.581  0.00  0.00    +0.292 HD
ENDBRANCH  15  18
ENDBRANCH  10  12
ENDBRANCH   4   8
BRANCH   7  20
ATOM     20  C14 UNL     1      16.200  12.554  37.554  0.00  0.00    +0.156 C 
BRANCH  20  21
ATOM     21  C15 UNL     1      14.809  12.296  37.031  0.00  0.00    -0.028 A 
ATOM     22  C16 UNL     1      13.968  13.370  36.689  0.00  0.00    +0.005 A 
ATOM     23  C17 UNL     1      12.684  13.128  36.191  0.00  0.00    +0.000 A 
ATOM     24  C18 UNL     1      12.233  11.816  36.024  0.00  0.00    +0.000 A 
ATOM     25  C19 UNL     1      13.066  10.743  36.348  0.00  0.00    +0.000 A 
ATOM     26  C20 UNL     1      14.352  10.980  36.845  0.00  0.00    +0.005 A 
ENDBRANCH  20  21
ENDBRANCH   7  20
TORSDOF 5
ENDMDL
MODEL 7
REMARK VINA RESULT:    -6.309      1.034      2.030
REMARK INTER + INTRA:          -8.581
REMARK INTER:                  -7.602
REMARK INTRA:                  -0.978
REMARK UNBOUND:                -0.612
REMARK  Name = /home/qwerty/github/datacon2025hack/step_04_hit_selection/docking/ligands/lig_85.pdb
REMARK  7 active torsions:
REMARK  status: ('A' for Active; 'I' for Inactive)
REMARK    1  A    between atoms: C1_1  and  C2_2
REMARK    2  A    between atoms: C4_4  and  C5_5
REMARK    3  A    between atoms: N1_7  and  C6_8
REMARK    4  A    between atoms: C9_11  and  O2_12
REMARK    5  A    between atoms: C12_15  and  C13_16
REMARK    6  A    between atoms: N2_17  and  C14_18
REMARK    7  A    between atoms: C14_18  and  C15_19
REMARK                            x       y       z     vdW  Elec       q    Type
REMARK                         _______ _______ _______ _____ _____    ______ ____
ROOT
ATOM      1  C1  UNL     1      21.411   4.454  29.097  0.00  0.00    +0.063 C 
ATOM      2  C2  UNL     1      20.886   3.612  27.973  0.00  0.00    +0.017 A 
ATOM      3  C3  UNL     1      20.604   4.087  26.709  0.00  0.00    +0.035 A 
ATOM      4  C4  UNL     1      20.122   3.014  25.981  0.00  0.00    +0.058 A 
ATOM      5  C12 UNL     1      20.115   1.921  26.846  0.00  0.00    +0.028 A 
ATOM      6  C13 UNL     1      19.668   0.531  26.485  0.00  0.00    +0.064 C 
ATOM      7  N2  UNL     1      20.592   2.293  28.060  0.00  0.00    -0.343 N 
ENDROOT
BRANCH   4   8
ATOM      8  C5  UNL     1      19.690   3.056  24.564  0.00  0.00    +0.250 C 
ATOM      9  O1  UNL     1      20.511   2.775  23.651  0.00  0.00    -0.270 OA
ATOM     10  N1  UNL     1      18.351   3.451  24.223  0.00  0.00    -0.281 N 
ATOM     11  H5  UNL     1      17.835   4.071  24.886  0.00  0.00    +0.155 HD
BRANCH  10  12
ATOM     12  C6  UNL     1      17.728   3.159  22.960  0.00  0.00    +0.034 A 
ATOM     13  C7  UNL     1      17.044   1.948  22.739  0.00  0.00    +0.027 A 
ATOM     14  C8  UNL     1      16.426   1.700  21.509  0.00  0.00    +0.047 A 
ATOM     15  C9  UNL     1      16.473   2.658  20.492  0.00  0.00    +0.117 A 
ATOM     16  C10 UNL     1      17.136   3.872  20.710  0.00  0.00    +0.047 A 
ATOM     17  C11 UNL     1      17.753   4.123  21.940  0.00  0.00    +0.027 A 
BRANCH  15  18
ATOM     18  O2  UNL     1      15.854   2.395  19.271  0.00  0.00    -0.507 OA
ATOM     19  H8  UNL     1      15.203   1.627  19.163  0.00  0.00    +0.292 HD
ENDBRANCH  15  18
ENDBRANCH  10  12
ENDBRANCH   4   8
BRANCH   7  20
ATOM     20  C14 UNL     1      20.785   1.431  29.236  0.00  0.00    +0.156 C 
BRANCH  20  21
ATOM     21  C15 UNL     1      22.108   0.711  29.163  0.00  0.00    -0.028 A 
ATOM     22  C16 UNL     1      22.153  -0.671  28.908  0.00  0.00    +0.005 A 
ATOM     23  C17 UNL     1      23.382  -1.333  28.827  0.00  0.00    +0.000 A 
ATOM     24  C18 UNL     1      24.573  -0.622  28.993  0.00  0.00    +0.000 A 
ATOM     25  C19 UNL     1      24.539   0.753  29.234  0.00  0.00    +0.000 A 
ATOM     26  C20 UNL     1      23.313   1.421  29.314  0.00  0.00    +0.005 A 
ENDBRANCH  20  21
ENDBRANCH   7  20
TORSDOF 5
ENDMDL
MODEL 8
REMARK VINA RESULT:    -6.057      7.659     12.264
REMARK INTER + INTRA:          -8.263
REMARK INTER:                  -7.368
REMARK INTRA:                  -0.895
REMARK UNBOUND:                -0.612
REMARK  Name = /home/qwerty/github/datacon2025hack/step_04_hit_selection/docking/ligands/lig_85.pdb
REMARK  7 active torsions:
REMARK  status: ('A' for Active; 'I' for Inactive)
REMARK    1  A    between atoms: C1_1  and  C2_2
REMARK    2  A    between atoms: C4_4  and  C5_5
REMARK    3  A    between atoms: N1_7  and  C6_8
REMARK    4  A    between atoms: C9_11  and  O2_12
REMARK    5  A    between atoms: C12_15  and  C13_16
REMARK    6  A    between atoms: N2_17  and  C14_18
REMARK    7  A    between atoms: C14_18  and  C15_19
REMARK                            x       y       z     vdW  Elec       q    Type
REMARK                         _______ _______ _______ _____ _____    ______ ____
ROOT
ATOM      1  C1  UNL     1       7.522   3.799  23.268  0.00  0.00    +0.063 C 
ATOM      2  C2  UNL     1       8.815   4.002  22.537  0.00  0.00    +0.017 A 
ATOM      3  C3  UNL     1       9.917   3.182  22.660  0.00  0.00    +0.035 A 
ATOM      4  C4  UNL     1      10.904   3.720  21.851  0.00  0.00    +0.058 A 
ATOM      5  C12 UNL     1      10.360   4.866  21.274  0.00  0.00    +0.028 A 
ATOM      6  C13 UNL     1      11.074   5.778  20.316  0.00  0.00    +0.064 C 
ATOM      7  N2  UNL     1       9.079   5.028  21.692  0.00  0.00    -0.343 N 
ENDROOT
BRANCH   4   8
ATOM      8  C5  UNL     1      12.266   3.168  21.668  0.00  0.00    +0.250 C 
ATOM      9  O1  UNL     1      13.268   3.842  22.030  0.00  0.00    -0.270 OA
ATOM     10  N1  UNL     1      12.456   1.886  21.047  0.00  0.00    -0.281 N 
ATOM     11  H5  UNL     1      11.722   1.545  20.386  0.00  0.00    +0.155 HD
BRANCH  10  12
ATOM     12  C6  UNL     1      13.658   1.107  21.170  0.00  0.00    +0.034 A 
ATOM     13  C7  UNL     1      14.663   1.145  20.185  0.00  0.00    +0.027 A 
ATOM     14  C8  UNL     1      15.834   0.397  20.342  0.00  0.00    +0.047 A 
ATOM     15  C9  UNL     1      16.022  -0.387  21.484  0.00  0.00    +0.117 A 
ATOM     16  C10 UNL     1      15.034  -0.415  22.477  0.00  0.00    +0.047 A 
ATOM     17  C11 UNL     1      13.863   0.333  22.324  0.00  0.00    +0.027 A 
BRANCH  15  18
ATOM     18  O2  UNL     1      17.193  -1.128  21.625  0.00  0.00    -0.507 OA
ATOM     19  H8  UNL     1      17.901  -1.142  20.900  0.00  0.00    +0.292 HD
ENDBRANCH  15  18
ENDBRANCH  10  12
ENDBRANCH   4   8
BRANCH   7  20
ATOM     20  C14 UNL     1       8.144   6.088  21.286  0.00  0.00    +0.156 C 
BRANCH  20  21
ATOM     21  C15 UNL     1       8.410   7.361  22.050  0.00  0.00    -0.028 A 
ATOM     22  C16 UNL     1       8.730   7.316  23.418  0.00  0.00    +0.005 A 
ATOM     23  C17 UNL     1       8.990   8.496  24.121  0.00  0.00    +0.000 A 
ATOM     24  C18 UNL     1       8.940   9.728  23.463  0.00  0.00    +0.000 A 
ATOM     25  C19 UNL     1       8.637   9.782  22.101  0.00  0.00    +0.000 A 
ATOM     26  C20 UNL     1       8.378   8.604  21.394  0.00  0.00    +0.005 A 
ENDBRANCH  20  21
ENDBRANCH   7  20
TORSDOF 5
ENDMDL
MODEL 9
REMARK VINA RESULT:    -6.032      4.692      8.870
REMARK INTER + INTRA:          -8.231
REMARK INTER:                  -7.470
REMARK INTRA:                  -0.761
REMARK UNBOUND:                -0.612
REMARK  Name = /home/qwerty/github/datacon2025hack/step_04_hit_selection/docking/ligands/lig_85.pdb
REMARK  7 active torsions:
REMARK  status: ('A' for Active; 'I' for Inactive)
REMARK    1  A    between atoms: C1_1  and  C2_2
REMARK    2  A    between atoms: C4_4  and  C5_5
REMARK    3  A    between atoms: N1_7  and  C6_8
REMARK    4  A    between atoms: C9_11  and  O2_12
REMARK    5  A    between atoms: C12_15  and  C13_16
REMARK    6  A    between atoms: N2_17  and  C14_18
REMARK    7  A    between atoms: C14_18  and  C15_19
REMARK                            x       y       z     vdW  Elec       q    Type
REMARK                         _______ _______ _______ _____ _____    ______ ____
ROOT
ATOM      1  C1  UNL     1      22.538  -0.879  28.881  0.00  0.00    +0.063 C 
ATOM      2  C2  UNL     1      21.875   0.303  29.521  0.00  0.00    +0.017 A 
ATOM      3  C3  UNL     1      20.994   0.224  30.579  0.00  0.00    +0.035 A 
ATOM      4  C4  UNL     1      20.589   1.519  30.855  0.00  0.00    +0.058 A 
ATOM      5  C12 UNL     1      21.236   2.340  29.933  0.00  0.00    +0.028 A 
ATOM      6  C13 UNL     1      21.097   3.835  29.855  0.00  0.00    +0.064 C 
ATOM      7  N2  UNL     1      22.027   1.590  29.125  0.00  0.00    -0.343 N 
ENDROOT
BRANCH   4   8
ATOM      8  C5  UNL     1      19.640   1.919  31.920  0.00  0.00    +0.250 C 
ATOM      9  O1  UNL     1      18.696   2.709  31.653  0.00  0.00    -0.270 OA
ATOM     10  N1  UNL     1      19.811   1.441  33.265  0.00  0.00    -0.281 N 
ATOM     11  H5  UNL     1      20.771   1.170  33.573  0.00  0.00    +0.155 HD
BRANCH  10  12
ATOM     12  C6  UNL     1      18.767   1.445  34.254  0.00  0.00    +0.034 A 
ATOM     13  C7  UNL     1      18.736   2.402  35.286  0.00  0.00    +0.027 A 
ATOM     14  C8  UNL     1      17.696   2.399  36.221  0.00  0.00    +0.047 A 
ATOM     15  C9  UNL     1      16.671   1.451  36.131  0.00  0.00    +0.117 A 
ATOM     16  C10 UNL     1      16.686   0.508  35.097  0.00  0.00    +0.047 A 
ATOM     17  C11 UNL     1      17.724   0.510  34.160  0.00  0.00    +0.027 A 
BRANCH  15  18
ATOM     18  O2  UNL     1      15.642   1.460  37.072  0.00  0.00    -0.507 OA
ATOM     19  H8  UNL     1      14.918   2.168  37.056  0.00  0.00    +0.292 HD
ENDBRANCH  15  18
ENDBRANCH  10  12
ENDBRANCH   4   8
BRANCH   7  20
ATOM     20  C14 UNL     1      22.905   2.075  28.051  0.00  0.00    +0.156 C 
BRANCH  20  21
ATOM     21  C15 UNL     1      22.116   2.356  26.796  0.00  0.00    -0.028 A 
ATOM     22  C16 UNL     1      22.437   3.458  25.986  0.00  0.00    +0.005 A 
ATOM     23  C17 UNL     1      21.713   3.708  24.816  0.00  0.00    +0.000 A 
ATOM     24  C18 UNL     1      20.669   2.858  24.443  0.00  0.00    +0.000 A 
ATOM     25  C19 UNL     1      20.351   1.752  25.235  0.00  0.00    +0.000 A 
ATOM     26  C20 UNL     1      21.074   1.497  26.405  0.00  0.00    +0.005 A 
ENDBRANCH  20  21
ENDBRANCH   7  20
TORSDOF 5
ENDMDL
