MODEL 1
REMARK VINA RESULT:    -7.142      0.000      0.000
REMARK INTER + INTRA:          -8.910
REMARK INTER:                  -8.395
REMARK INTRA:                  -0.515
REMARK UNBOUND:                -0.515
REMARK  Name = /home/qwerty/github/datacon2025hack/step_04_hit_selection/docking/ligands/lig_379.pdb
REMARK  4 active torsions:
REMARK  status: ('A' for Active; 'I' for Inactive)
REMARK    1  A    between atoms: C1_1  and  C2_2
REMARK    2  A    between atoms: C2_2  and  N1_3
REMARK    3  A    between atoms: C2_2  and  C15_20
REMARK    4  A    between atoms: C3_4  and  C4_6
REMARK                            x       y       z     vdW  Elec       q    Type
REMARK                         _______ _______ _______ _____ _____    ______ ____
ROOT
ATOM      1  C4  UNL     1      14.029   2.800  20.336  0.00  0.00    +0.037 A 
ATOM      2  C5  UNL     1      13.982   3.860  19.390  0.00  0.00    +0.015 A 
ATOM      3  C6  UNL     1      12.820   4.638  19.233  0.00  0.00    +0.027 A 
ATOM      4  C7  UNL     1      11.721   4.340  20.032  0.00  0.00    +0.047 A 
ATOM      5  N2  UNL     1      10.511   4.935  20.009  0.00  0.00    -0.350 N 
ATOM      6  C8  UNL     1       9.782   4.267  20.931  0.00  0.00    +0.106 A 
ATOM      7  C9  UNL     1      10.514   3.274  21.541  0.00  0.00    -0.008 A 
ATOM      8  C10 UNL     1      11.756   3.313  20.947  0.00  0.00    +0.004 A 
ATOM      9  C11 UNL     1      12.884   2.515  21.119  0.00  0.00    +0.023 A 
ATOM     10  C12 UNL     1       9.916   2.276  22.490  0.00  0.00    +0.057 C 
ATOM     11  C13 UNL     1       8.691   2.890  23.212  0.00  0.00    +0.109 C 
ATOM     12  N3  UNL     1       7.815   3.632  22.289  0.00  0.00    -0.310 N 
ATOM     13  C14 UNL     1       8.373   4.455  21.255  0.00  0.00    +0.261 C 
ATOM     14  O2  UNL     1       7.660   5.286  20.632  0.00  0.00    -0.269 OA
ATOM     15  H8  UNL     1      10.197   5.717  19.392  0.00  0.00    +0.166 HD
ATOM     16  H14 UNL     1       6.785   3.646  22.461  0.00  0.00    +0.149 HD
ENDROOT
BRANCH   1  18
ATOM     17  N1  UNL     1      15.160   0.579  20.834  0.00  0.00    -0.305 N 
ATOM     18  C3  UNL     1      15.247   1.971  20.489  0.00  0.00    +0.245 C 
ATOM     19  O1  UNL     1      16.380   2.496  20.301  0.00  0.00    -0.270 OA
ATOM     20  H5  UNL     1      14.236   0.096  20.764  0.00  0.00    +0.150 HD
BRANCH  17  22
ATOM     21  C1  UNL     1      16.792  -1.120  20.101  0.00  0.00    +0.033 C 
ATOM     22  C2  UNL     1      16.341  -0.194  21.235  0.00  0.00    +0.103 C 
BRANCH  22  23
ATOM     23  C15 UNL     1      16.045  -1.001  22.480  0.00  0.00    +0.009 A 
ATOM     24  C16 UNL     1      16.963  -1.936  22.981  0.00  0.00    +0.119 A 
ATOM     25  N4  UNL     1      16.679  -2.633  24.110  0.00  0.00    -0.243 NA
ATOM     26  C17 UNL     1      15.511  -2.440  24.775  0.00  0.00    +0.221 A 
ATOM     27  N5  UNL     1      14.609  -1.533  24.316  0.00  0.00    -0.243 NA
ATOM     28  C18 UNL     1      14.853  -0.812  23.191  0.00  0.00    +0.119 A 
ENDBRANCH  22  23
ENDBRANCH  17  22
ENDBRANCH   1  18
TORSDOF 3
ENDMDL
MODEL 2
REMARK VINA RESULT:    -7.049      2.659      8.844
REMARK INTER + INTRA:          -8.799
REMARK INTER:                  -8.309
REMARK INTRA:                  -0.490
REMARK UNBOUND:                -0.515
REMARK  Name = /home/qwerty/github/datacon2025hack/step_04_hit_selection/docking/ligands/lig_379.pdb
REMARK  4 active torsions:
REMARK  status: ('A' for Active; 'I' for Inactive)
REMARK    1  A    between atoms: C1_1  and  C2_2
REMARK    2  A    between atoms: C2_2  and  N1_3
REMARK    3  A    between atoms: C2_2  and  C15_20
REMARK    4  A    between atoms: C3_4  and  C4_6
REMARK                            x       y       z     vdW  Elec       q    Type
REMARK                         _______ _______ _______ _____ _____    ______ ____
ROOT
ATOM      1  C4  UNL     1       9.913   3.008  22.082  0.00  0.00    +0.037 A 
ATOM      2  C5  UNL     1       9.868   1.690  22.615  0.00  0.00    +0.015 A 
ATOM      3  C6  UNL     1      10.952   0.808  22.452  0.00  0.00    +0.027 A 
ATOM      4  C7  UNL     1      12.067   1.262  21.756  0.00  0.00    +0.047 A 
ATOM      5  N2  UNL     1      13.183   0.566  21.459  0.00  0.00    -0.350 N 
ATOM      6  C8  UNL     1      13.942   1.424  20.741  0.00  0.00    +0.106 A 
ATOM      7  C9  UNL     1      13.331   2.649  20.594  0.00  0.00    -0.008 A 
ATOM      8  C10 UNL     1      12.116   2.534  21.233  0.00  0.00    +0.004 A 
ATOM      9  C11 UNL     1      11.058   3.429  21.365  0.00  0.00    +0.023 A 
ATOM     10  C12 UNL     1      13.874   3.739  19.714  0.00  0.00    +0.057 C 
ATOM     11  C13 UNL     1      15.415   3.624  19.608  0.00  0.00    +0.109 C 
ATOM     12  N3  UNL     1      15.857   2.234  19.402  0.00  0.00    -0.310 N 
ATOM     13  C14 UNL     1      15.226   1.154  20.103  0.00  0.00    +0.261 C 
ATOM     14  O2  UNL     1      15.749   0.010  20.137  0.00  0.00    -0.269 OA
ATOM     15  H8  UNL     1      13.399  -0.426  21.701  0.00  0.00    +0.166 HD
ATOM     16  H14 UNL     1      16.709   2.049  18.827  0.00  0.00    +0.149 HD
ENDROOT
BRANCH   1  18
ATOM     17  N1  UNL     1       8.584   5.049  21.358  0.00  0.00    -0.305 N 
ATOM     18  C3  UNL     1       8.765   3.930  22.241  0.00  0.00    +0.245 C 
ATOM     19  O1  UNL     1       7.927   3.722  23.162  0.00  0.00    -0.270 OA
ATOM     20  H5  UNL     1       9.135   5.089  20.471  0.00  0.00    +0.150 HD
BRANCH  17  22
ATOM     21  C1  UNL     1       6.382   5.975  20.740  0.00  0.00    +0.033 C 
ATOM     22  C2  UNL     1       7.611   6.110  21.644  0.00  0.00    +0.103 C 
BRANCH  22  23
ATOM     23  C15 UNL     1       8.247   7.471  21.458  0.00  0.00    +0.009 A 
ATOM     24  C16 UNL     1       7.827   8.582  22.205  0.00  0.00    +0.119 A 
ATOM     25  N4  UNL     1       8.428   9.787  22.030  0.00  0.00    -0.243 NA
ATOM     26  C17 UNL     1       9.442   9.939  21.140  0.00  0.00    +0.221 A 
ATOM     27  N5  UNL     1       9.873   8.877  20.412  0.00  0.00    -0.243 NA
ATOM     28  C18 UNL     1       9.303   7.653  20.555  0.00  0.00    +0.119 A 
ENDBRANCH  22  23
ENDBRANCH  17  22
ENDBRANCH   1  18
TORSDOF 3
ENDMDL
MODEL 3
REMARK VINA RESULT:    -7.004      6.329      8.958
REMARK INTER + INTRA:          -8.747
REMARK INTER:                  -8.223
REMARK INTRA:                  -0.524
REMARK UNBOUND:                -0.515
REMARK  Name = /home/qwerty/github/datacon2025hack/step_04_hit_selection/docking/ligands/lig_379.pdb
REMARK  4 active torsions:
REMARK  status: ('A' for Active; 'I' for Inactive)
REMARK    1  A    between atoms: C1_1  and  C2_2
REMARK    2  A    between atoms: C2_2  and  N1_3
REMARK    3  A    between atoms: C2_2  and  C15_20
REMARK    4  A    between atoms: C3_4  and  C4_6
REMARK                            x       y       z     vdW  Elec       q    Type
REMARK                         _______ _______ _______ _____ _____    ______ ____
ROOT
ATOM      1  C4  UNL     1      20.242   1.647  25.720  0.00  0.00    +0.037 A 
ATOM      2  C5  UNL     1      19.976   2.893  25.088  0.00  0.00    +0.015 A 
ATOM      3  C6  UNL     1      18.915   3.027  24.174  0.00  0.00    +0.027 A 
ATOM      4  C7  UNL     1      18.136   1.906  23.906  0.00  0.00    +0.047 A 
ATOM      5  N2  UNL     1      17.107   1.816  23.039  0.00  0.00    -0.350 N 
ATOM      6  C8  UNL     1      16.712   0.525  23.108  0.00  0.00    +0.106 A 
ATOM      7  C9  UNL     1      17.463  -0.193  24.012  0.00  0.00    -0.008 A 
ATOM      8  C10 UNL     1      18.390   0.696  24.509  0.00  0.00    +0.004 A 
ATOM      9  C11 UNL     1      19.438   0.524  25.410  0.00  0.00    +0.023 A 
ATOM     10  C12 UNL     1      17.348  -1.682  24.178  0.00  0.00    +0.057 C 
ATOM     11  C13 UNL     1      15.920  -2.153  23.810  0.00  0.00    +0.109 C 
ATOM     12  N3  UNL     1      15.424  -1.518  22.577  0.00  0.00    -0.310 N 
ATOM     13  C14 UNL     1      15.680  -0.132  22.314  0.00  0.00    +0.261 C 
ATOM     14  O2  UNL     1      15.057   0.482  21.409  0.00  0.00    -0.269 OA
ATOM     15  H8  UNL     1      16.723   2.568  22.426  0.00  0.00    +0.166 HD
ATOM     16  H14 UNL     1      14.786  -2.055  21.947  0.00  0.00    +0.149 HD
ENDROOT
BRANCH   1  18
ATOM     17  N1  UNL     1      21.471   0.359  27.534  0.00  0.00    -0.305 N 
ATOM     18  C3  UNL     1      21.369   1.504  26.670  0.00  0.00    +0.245 C 
ATOM     19  O1  UNL     1      22.259   2.398  26.714  0.00  0.00    -0.270 OA
ATOM     20  H5  UNL     1      20.875  -0.477  27.340  0.00  0.00    +0.150 HD
BRANCH  17  22
ATOM     21  C1  UNL     1      22.935  -1.115  28.865  0.00  0.00    +0.033 C 
ATOM     22  C2  UNL     1      22.425   0.313  28.648  0.00  0.00    +0.103 C 
BRANCH  22  23
ATOM     23  C15 UNL     1      21.780   0.834  29.914  0.00  0.00    +0.009 A 
ATOM     24  C16 UNL     1      20.665   0.199  30.481  0.00  0.00    +0.119 A 
ATOM     25  N4  UNL     1      20.119   0.678  31.628  0.00  0.00    -0.243 NA
ATOM     26  C17 UNL     1      20.638   1.769  32.247  0.00  0.00    +0.221 A 
ATOM     27  N5  UNL     1      21.723   2.396  31.723  0.00  0.00    -0.243 NA
ATOM     28  C18 UNL     1      22.303   1.951  30.579  0.00  0.00    +0.119 A 
ENDBRANCH  22  23
ENDBRANCH  17  22
ENDBRANCH   1  18
TORSDOF 3
ENDMDL
MODEL 4
REMARK VINA RESULT:    -6.860     11.878     14.721
REMARK INTER + INTRA:          -8.578
REMARK INTER:                  -8.120
REMARK INTRA:                  -0.457
REMARK UNBOUND:                -0.515
REMARK  Name = /home/qwerty/github/datacon2025hack/step_04_hit_selection/docking/ligands/lig_379.pdb
REMARK  4 active torsions:
REMARK  status: ('A' for Active; 'I' for Inactive)
REMARK    1  A    between atoms: C1_1  and  C2_2
REMARK    2  A    between atoms: C2_2  and  N1_3
REMARK    3  A    between atoms: C2_2  and  C15_20
REMARK    4  A    between atoms: C3_4  and  C4_6
REMARK                            x       y       z     vdW  Elec       q    Type
REMARK                         _______ _______ _______ _____ _____    ______ ____
ROOT
ATOM      1  C4  UNL     1      21.154   2.587  32.221  0.00  0.00    +0.037 A 
ATOM      2  C5  UNL     1      20.181   2.618  33.258  0.00  0.00    +0.015 A 
ATOM      3  C6  UNL     1      20.157   3.668  34.194  0.00  0.00    +0.027 A 
ATOM      4  C7  UNL     1      21.111   4.673  34.076  0.00  0.00    +0.047 A 
ATOM      5  N2  UNL     1      21.282   5.736  34.889  0.00  0.00    -0.350 N 
ATOM      6  C8  UNL     1      22.355   6.385  34.383  0.00  0.00    +0.106 A 
ATOM      7  C9  UNL     1      22.851   5.759  33.262  0.00  0.00    -0.008 A 
ATOM      8  C10 UNL     1      22.059   4.648  33.079  0.00  0.00    +0.004 A 
ATOM      9  C11 UNL     1      22.120   3.619  32.143  0.00  0.00    +0.023 A 
ATOM     10  C12 UNL     1      24.129   6.172  32.588  0.00  0.00    +0.057 C 
ATOM     11  C13 UNL     1      24.390   7.682  32.812  0.00  0.00    +0.109 C 
ATOM     12  N3  UNL     1      24.138   8.090  34.205  0.00  0.00    -0.310 N 
ATOM     13  C14 UNL     1      23.017   7.565  34.929  0.00  0.00    +0.261 C 
ATOM     14  O2  UNL     1      22.642   8.087  36.011  0.00  0.00    -0.269 OA
ATOM     15  H8  UNL     1      20.729   5.983  35.739  0.00  0.00    +0.166 HD
ATOM     16  H14 UNL     1      24.715   8.852  34.626  0.00  0.00    +0.149 HD
ENDROOT
BRANCH   1  18
ATOM     17  N1  UNL     1      21.904   1.594  30.006  0.00  0.00    -0.305 N 
ATOM     18  C3  UNL     1      21.187   1.474  31.245  0.00  0.00    +0.245 C 
ATOM     19  O1  UNL     1      20.584   0.397  31.513  0.00  0.00    -0.270 OA
ATOM     20  H5  UNL     1      22.583   2.381  29.886  0.00  0.00    +0.150 HD
BRANCH  17  22
ATOM     21  C1  UNL     1      22.919  -0.370  28.911  0.00  0.00    +0.033 C 
ATOM     22  C2  UNL     1      21.748   0.616  28.923  0.00  0.00    +0.103 C 
BRANCH  22  23
ATOM     23  C15 UNL     1      21.647   1.321  27.587  0.00  0.00    +0.009 A 
ATOM     24  C16 UNL     1      20.645   0.993  26.662  0.00  0.00    +0.119 A 
ATOM     25  N4  UNL     1      20.568   1.654  25.479  0.00  0.00    -0.243 NA
ATOM     26  C17 UNL     1      21.448   2.641  25.171  0.00  0.00    +0.221 A 
ATOM     27  N5  UNL     1      22.421   2.984  26.054  0.00  0.00    -0.243 NA
ATOM     28  C18 UNL     1      22.535   2.351  27.250  0.00  0.00    +0.119 A 
ENDBRANCH  22  23
ENDBRANCH  17  22
ENDBRANCH   1  18
TORSDOF 3
ENDMDL
MODEL 5
REMARK VINA RESULT:    -6.846      3.707      9.061
REMARK INTER + INTRA:          -8.561
REMARK INTER:                  -8.121
REMARK INTRA:                  -0.440
REMARK UNBOUND:                -0.515
REMARK  Name = /home/qwerty/github/datacon2025hack/step_04_hit_selection/docking/ligands/lig_379.pdb
REMARK  4 active torsions:
REMARK  status: ('A' for Active; 'I' for Inactive)
REMARK    1  A    between atoms: C1_1  and  C2_2
REMARK    2  A    between atoms: C2_2  and  N1_3
REMARK    3  A    between atoms: C2_2  and  C15_20
REMARK    4  A    between atoms: C3_4  and  C4_6
REMARK                            x       y       z     vdW  Elec       q    Type
REMARK                         _______ _______ _______ _____ _____    ______ ____
ROOT
ATOM      1  C4  UNL     1      10.404   5.572  20.581  0.00  0.00    +0.037 A 
ATOM      2  C5  UNL     1       9.739   4.391  21.011  0.00  0.00    +0.015 A 
ATOM      3  C6  UNL     1      10.422   3.163  21.081  0.00  0.00    +0.027 A 
ATOM      4  C7  UNL     1      11.764   3.139  20.719  0.00  0.00    +0.047 A 
ATOM      5  N2  UNL     1      12.579   2.065  20.678  0.00  0.00    -0.350 N 
ATOM      6  C8  UNL     1      13.759   2.546  20.226  0.00  0.00    +0.106 A 
ATOM      7  C9  UNL     1      13.705   3.902  19.996  0.00  0.00    -0.008 A 
ATOM      8  C10 UNL     1      12.414   4.276  20.297  0.00  0.00    +0.004 A 
ATOM      9  C11 UNL     1      11.766   5.506  20.204  0.00  0.00    +0.023 A 
ATOM     10  C12 UNL     1      14.819   4.671  19.345  0.00  0.00    +0.057 C 
ATOM     11  C13 UNL     1      16.179   3.988  19.629  0.00  0.00    +0.109 C 
ATOM     12  N3  UNL     1      16.112   2.525  19.465  0.00  0.00    -0.310 N 
ATOM     13  C14 UNL     1      14.968   1.790  19.922  0.00  0.00    +0.261 C 
ATOM     14  O2  UNL     1      15.003   0.536  20.025  0.00  0.00    -0.269 OA
ATOM     15  H8  UNL     1      12.342   1.075  20.912  0.00  0.00    +0.166 HD
ATOM     16  H14 UNL     1      16.952   2.011  19.117  0.00  0.00    +0.149 HD
ENDROOT
BRANCH   1  18
ATOM     17  N1  UNL     1      10.382   8.093  20.259  0.00  0.00    -0.305 N 
ATOM     18  C3  UNL     1       9.680   6.861  20.493  0.00  0.00    +0.245 C 
ATOM     19  O1  UNL     1       8.423   6.875  20.615  0.00  0.00    -0.270 OA
ATOM     20  H5  UNL     1      11.374   8.057  19.932  0.00  0.00    +0.150 HD
BRANCH  17  22
ATOM     21  C1  UNL     1      10.580  10.508  19.791  0.00  0.00    +0.033 C 
ATOM     22  C2  UNL     1       9.729   9.398  20.417  0.00  0.00    +0.103 C 
BRANCH  22  23
ATOM     23  C15 UNL     1       9.487   9.691  21.882  0.00  0.00    +0.009 A 
ATOM     24  C16 UNL     1       8.188   9.819  22.396  0.00  0.00    +0.119 A 
ATOM     25  N4  UNL     1       7.999  10.065  23.717  0.00  0.00    -0.243 NA
ATOM     26  C17 UNL     1       9.055  10.185  24.563  0.00  0.00    +0.221 A 
ATOM     27  N5  UNL     1      10.322  10.055  24.092  0.00  0.00    -0.243 NA
ATOM     28  C18 UNL     1      10.558   9.808  22.777  0.00  0.00    +0.119 A 
ENDBRANCH  22  23
ENDBRANCH  17  22
ENDBRANCH   1  18
TORSDOF 3
ENDMDL
MODEL 6
REMARK VINA RESULT:    -6.773     17.879     19.668
REMARK INTER + INTRA:          -8.476
REMARK INTER:                  -7.967
REMARK INTRA:                  -0.508
REMARK UNBOUND:                -0.515
REMARK  Name = /home/qwerty/github/datacon2025hack/step_04_hit_selection/docking/ligands/lig_379.pdb
REMARK  4 active torsions:
REMARK  status: ('A' for Active; 'I' for Inactive)
REMARK    1  A    between atoms: C1_1  and  C2_2
REMARK    2  A    between atoms: C2_2  and  N1_3
REMARK    3  A    between atoms: C2_2  and  C15_20
REMARK    4  A    between atoms: C3_4  and  C4_6
REMARK                            x       y       z     vdW  Elec       q    Type
REMARK                         _______ _______ _______ _____ _____    ______ ____
ROOT
ATOM      1  C4  UNL     1      18.380  12.407  35.594  0.00  0.00    +0.037 A 
ATOM      2  C5  UNL     1      19.710  12.699  35.184  0.00  0.00    +0.015 A 
ATOM      3  C6  UNL     1      20.750  11.776  35.398  0.00  0.00    +0.027 A 
ATOM      4  C7  UNL     1      20.439  10.571  36.020  0.00  0.00    +0.047 A 
ATOM      5  N2  UNL     1      21.291   9.578  36.349  0.00  0.00    -0.350 N 
ATOM      6  C8  UNL     1      20.521   8.655  36.965  0.00  0.00    +0.106 A 
ATOM      7  C9  UNL     1      19.200   9.041  37.017  0.00  0.00    -0.008 A 
ATOM      8  C10 UNL     1      19.156  10.283  36.423  0.00  0.00    +0.004 A 
ATOM      9  C11 UNL     1      18.105  11.178  36.239  0.00  0.00    +0.023 A 
ATOM     10  C12 UNL     1      18.151   8.284  37.779  0.00  0.00    +0.057 C 
ATOM     11  C13 UNL     1      18.522   6.782  37.854  0.00  0.00    +0.109 C 
ATOM     12  N3  UNL     1      19.945   6.575  38.174  0.00  0.00    -0.310 N 
ATOM     13  C14 UNL     1      20.955   7.411  37.590  0.00  0.00    +0.261 C 
ATOM     14  O2  UNL     1      22.172   7.092  37.646  0.00  0.00    -0.269 OA
ATOM     15  H8  UNL     1      22.323   9.546  36.191  0.00  0.00    +0.166 HD
ATOM     16  H14 UNL     1      20.227   5.744  38.740  0.00  0.00    +0.149 HD
ENDROOT
BRANCH   1  18
ATOM     17  N1  UNL     1      16.149  13.428  36.257  0.00  0.00    -0.305 N 
ATOM     18  C3  UNL     1      17.289  13.386  35.383  0.00  0.00    +0.245 C 
ATOM     19  O1  UNL     1      17.369  14.204  34.425  0.00  0.00    -0.270 OA
ATOM     20  H5  UNL     1      16.191  12.918  37.169  0.00  0.00    +0.150 HD
BRANCH  17  22
ATOM     21  C1  UNL     1      14.926  15.521  36.713  0.00  0.00    +0.033 C 
ATOM     22  C2  UNL     1      14.950  14.206  35.928  0.00  0.00    +0.103 C 
BRANCH  22  23
ATOM     23  C15 UNL     1      13.703  13.401  36.222  0.00  0.00    +0.009 A 
ATOM     24  C16 UNL     1      12.431  13.864  35.854  0.00  0.00    +0.119 A 
ATOM     25  N4  UNL     1      11.330  13.113  36.115  0.00  0.00    -0.243 NA
ATOM     26  C17 UNL     1      11.438  11.906  36.728  0.00  0.00    +0.221 A 
ATOM     27  N5  UNL     1      12.659  11.431  37.086  0.00  0.00    -0.243 NA
ATOM     28  C18 UNL     1      13.787  12.148  36.843  0.00  0.00    +0.119 A 
ENDBRANCH  22  23
ENDBRANCH  17  22
ENDBRANCH   1  18
TORSDOF 3
ENDMDL
MODEL 7
REMARK VINA RESULT:    -6.716     14.002     16.573
REMARK INTER + INTRA:          -8.408
REMARK INTER:                  -7.853
REMARK INTRA:                  -0.556
REMARK UNBOUND:                -0.515
REMARK  Name = /home/qwerty/github/datacon2025hack/step_04_hit_selection/docking/ligands/lig_379.pdb
REMARK  4 active torsions:
REMARK  status: ('A' for Active; 'I' for Inactive)
REMARK    1  A    between atoms: C1_1  and  C2_2
REMARK    2  A    between atoms: C2_2  and  N1_3
REMARK    3  A    between atoms: C2_2  and  C15_20
REMARK    4  A    between atoms: C3_4  and  C4_6
REMARK                            x       y       z     vdW  Elec       q    Type
REMARK                         _______ _______ _______ _____ _____    ______ ____
ROOT
ATOM      1  C4  UNL     1      11.781  13.567  31.222  0.00  0.00    +0.037 A 
ATOM      2  C5  UNL     1      13.161  13.829  30.997  0.00  0.00    +0.015 A 
ATOM      3  C6  UNL     1      14.111  13.612  32.012  0.00  0.00    +0.027 A 
ATOM      4  C7  UNL     1      13.662  13.133  33.238  0.00  0.00    +0.047 A 
ATOM      5  N2  UNL     1      14.400  12.899  34.343  0.00  0.00    -0.350 N 
ATOM      6  C8  UNL     1      13.507  12.490  35.272  0.00  0.00    +0.106 A 
ATOM      7  C9  UNL     1      12.226  12.449  34.768  0.00  0.00    -0.008 A 
ATOM      8  C10 UNL     1      12.328  12.881  33.465  0.00  0.00    +0.004 A 
ATOM      9  C11 UNL     1      11.359  13.096  32.488  0.00  0.00    +0.023 A 
ATOM     10  C12 UNL     1      11.017  12.182  35.618  0.00  0.00    +0.057 C 
ATOM     11  C13 UNL     1      11.400  11.302  36.834  0.00  0.00    +0.109 C 
ATOM     12  N3  UNL     1      12.652  11.746  37.470  0.00  0.00    -0.310 N 
ATOM     13  C14 UNL     1      13.764  12.179  36.673  0.00  0.00    +0.261 C 
ATOM     14  O2  UNL     1      14.910  12.313  37.177  0.00  0.00    -0.269 OA
ATOM     15  H8  UNL     1      15.428  13.036  34.463  0.00  0.00    +0.166 HD
ATOM     16  H14 UNL     1      12.768  11.637  38.502  0.00  0.00    +0.149 HD
ENDROOT
BRANCH   1  18
ATOM     17  N1  UNL     1       9.373  13.679  30.418  0.00  0.00    -0.305 N 
ATOM     18  C3  UNL     1      10.780  13.810  30.158  0.00  0.00    +0.245 C 
ATOM     19  O1  UNL     1      11.170  14.150  29.006  0.00  0.00    -0.270 OA
ATOM     20  H5  UNL     1       9.043  13.626  31.409  0.00  0.00    +0.150 HD
BRANCH  17  22
ATOM     21  C1  UNL     1       7.042  14.226  29.820  0.00  0.00    +0.033 C 
ATOM     22  C2  UNL     1       8.383  13.667  29.335  0.00  0.00    +0.103 C 
BRANCH  22  23
ATOM     23  C15 UNL     1       8.200  12.261  28.805  0.00  0.00    +0.009 A 
ATOM     24  C16 UNL     1       8.380  11.963  27.446  0.00  0.00    +0.119 A 
ATOM     25  N4  UNL     1       8.226  10.689  27.002  0.00  0.00    -0.243 NA
ATOM     26  C17 UNL     1       7.902   9.685  27.857  0.00  0.00    +0.221 A 
ATOM     27  N5  UNL     1       7.732   9.946  29.179  0.00  0.00    -0.243 NA
ATOM     28  C18 UNL     1       7.877  11.205  29.668  0.00  0.00    +0.119 A 
ENDBRANCH  22  23
ENDBRANCH  17  22
ENDBRANCH   1  18
TORSDOF 3
ENDMDL
MODEL 8
REMARK VINA RESULT:    -6.453      8.868     12.566
REMARK INTER + INTRA:          -8.099
REMARK INTER:                  -7.646
REMARK INTRA:                  -0.453
REMARK UNBOUND:                -0.515
REMARK  Name = /home/qwerty/github/datacon2025hack/step_04_hit_selection/docking/ligands/lig_379.pdb
REMARK  4 active torsions:
REMARK  status: ('A' for Active; 'I' for Inactive)
REMARK    1  A    between atoms: C1_1  and  C2_2
REMARK    2  A    between atoms: C2_2  and  N1_3
REMARK    3  A    between atoms: C2_2  and  C15_20
REMARK    4  A    between atoms: C3_4  and  C4_6
REMARK                            x       y       z     vdW  Elec       q    Type
REMARK                         _______ _______ _______ _____ _____    ______ ____
ROOT
ATOM      1  C4  UNL     1       8.103   9.562  27.057  0.00  0.00    +0.037 A 
ATOM      2  C5  UNL     1       7.959   8.171  27.317  0.00  0.00    +0.015 A 
ATOM      3  C6  UNL     1       8.116   7.224  26.288  0.00  0.00    +0.027 A 
ATOM      4  C7  UNL     1       8.418   7.688  25.012  0.00  0.00    +0.047 A 
ATOM      5  N2  UNL     1       8.568   6.953  23.890  0.00  0.00    -0.350 N 
ATOM      6  C8  UNL     1       8.807   7.859  22.916  0.00  0.00    +0.106 A 
ATOM      7  C9  UNL     1       8.823   9.146  23.405  0.00  0.00    -0.008 A 
ATOM      8  C10 UNL     1       8.554   9.032  24.751  0.00  0.00    +0.004 A 
ATOM      9  C11 UNL     1       8.393   9.997  25.742  0.00  0.00    +0.023 A 
ATOM     10  C12 UNL     1       8.910  10.359  22.525  0.00  0.00    +0.057 C 
ATOM     11  C13 UNL     1       9.663  10.019  21.215  0.00  0.00    +0.109 C 
ATOM     12  N3  UNL     1       9.230   8.733  20.642  0.00  0.00    -0.310 N 
ATOM     13  C14 UNL     1       8.967   7.606  21.489  0.00  0.00    +0.261 C 
ATOM     14  O2  UNL     1       8.849   6.448  21.009  0.00  0.00    -0.269 OA
ATOM     15  H8  UNL     1       8.485   5.917  23.792  0.00  0.00    +0.166 HD
ATOM     16  H14 UNL     1       9.224   8.613  19.604  0.00  0.00    +0.149 HD
ENDROOT
BRANCH   1  18
ATOM     17  N1  UNL     1       8.482  11.877  28.033  0.00  0.00    -0.305 N 
ATOM     18  C3  UNL     1       7.921  10.558  28.138  0.00  0.00    +0.245 C 
ATOM     19  O1  UNL     1       7.254  10.245  29.163  0.00  0.00    -0.270 OA
ATOM     20  H5  UNL     1       8.829  12.208  27.105  0.00  0.00    +0.150 HD
BRANCH  17  22
ATOM     21  C1  UNL     1       7.387  13.803  29.119  0.00  0.00    +0.033 C 
ATOM     22  C2  UNL     1       8.533  12.789  29.182  0.00  0.00    +0.103 C 
BRANCH  22  23
ATOM     23  C15 UNL     1       9.864  13.509  29.223  0.00  0.00    +0.009 A 
ATOM     24  C16 UNL     1      10.621  13.577  30.401  0.00  0.00    +0.119 A 
ATOM     25  N4  UNL     1      11.820  14.215  30.405  0.00  0.00    -0.243 NA
ATOM     26  C17 UNL     1      12.308  14.791  29.277  0.00  0.00    +0.221 A 
ATOM     27  N5  UNL     1      11.598  14.730  28.120  0.00  0.00    -0.243 NA
ATOM     28  C18 UNL     1      10.395  14.101  28.070  0.00  0.00    +0.119 A 
ENDBRANCH  22  23
ENDBRANCH  17  22
ENDBRANCH   1  18
TORSDOF 3
ENDMDL
MODEL 9
REMARK VINA RESULT:    -6.122     11.333     14.124
REMARK INTER + INTRA:          -7.710
REMARK INTER:                  -7.417
REMARK INTRA:                  -0.293
REMARK UNBOUND:                -0.515
REMARK  Name = /home/qwerty/github/datacon2025hack/step_04_hit_selection/docking/ligands/lig_379.pdb
REMARK  4 active torsions:
REMARK  status: ('A' for Active; 'I' for Inactive)
REMARK    1  A    between atoms: C1_1  and  C2_2
REMARK    2  A    between atoms: C2_2  and  N1_3
REMARK    3  A    between atoms: C2_2  and  C15_20
REMARK    4  A    between atoms: C3_4  and  C4_6
REMARK                            x       y       z     vdW  Elec       q    Type
REMARK                         _______ _______ _______ _____ _____    ______ ____
ROOT
ATOM      1  C4  UNL     1      21.491   2.853  31.037  0.00  0.00    +0.037 A 
ATOM      2  C5  UNL     1      20.627   1.731  31.171  0.00  0.00    +0.015 A 
ATOM      3  C6  UNL     1      20.164   1.038  30.038  0.00  0.00    +0.027 A 
ATOM      4  C7  UNL     1      20.575   1.480  28.785  0.00  0.00    +0.047 A 
ATOM      5  N2  UNL     1      20.215   0.982  27.585  0.00  0.00    -0.350 N 
ATOM      6  C8  UNL     1      20.839   1.773  26.684  0.00  0.00    +0.106 A 
ATOM      7  C9  UNL     1      21.595   2.749  27.294  0.00  0.00    -0.008 A 
ATOM      8  C10 UNL     1      21.407   2.567  28.647  0.00  0.00    +0.004 A 
ATOM      9  C11 UNL     1      21.875   3.285  29.745  0.00  0.00    +0.023 A 
ATOM     10  C12 UNL     1      22.267   3.860  26.541  0.00  0.00    +0.057 C 
ATOM     11  C13 UNL     1      22.612   3.401  25.103  0.00  0.00    +0.109 C 
ATOM     12  N3  UNL     1      21.504   2.662  24.474  0.00  0.00    -0.310 N 
ATOM     13  C14 UNL     1      20.729   1.722  25.231  0.00  0.00    +0.261 C 
ATOM     14  O2  UNL     1      19.960   0.906  24.658  0.00  0.00    -0.269 OA
ATOM     15  H8  UNL     1      19.570   0.183  27.394  0.00  0.00    +0.166 HD
ATOM     16  H14 UNL     1      21.356   2.742  23.443  0.00  0.00    +0.149 HD
ENDROOT
BRANCH   1  18
ATOM     17  N1  UNL     1      22.239   5.001  32.170  0.00  0.00    -0.305 N 
ATOM     18  C3  UNL     1      21.966   3.592  32.230  0.00  0.00    +0.245 C 
ATOM     19  O1  UNL     1      22.123   2.973  33.319  0.00  0.00    -0.270 OA
ATOM     20  H5  UNL     1      21.895   5.550  31.349  0.00  0.00    +0.150 HD
BRANCH  17  22
ATOM     21  C1  UNL     1      21.999   5.960  34.430  0.00  0.00    +0.033 C 
ATOM     22  C2  UNL     1      22.942   5.700  33.252  0.00  0.00    +0.103 C 
BRANCH  22  23
ATOM     23  C15 UNL     1      23.519   7.005  32.748  0.00  0.00    +0.009 A 
ATOM     24  C16 UNL     1      24.743   7.495  33.227  0.00  0.00    +0.119 A 
ATOM     25  N4  UNL     1      25.246   8.660  32.744  0.00  0.00    -0.243 NA
ATOM     26  C17 UNL     1      24.582   9.367  31.793  0.00  0.00    +0.221 A 
ATOM     27  N5  UNL     1      23.400   8.909  31.306  0.00  0.00    -0.243 NA
ATOM     28  C18 UNL     1      22.860   7.747  31.759  0.00  0.00    +0.119 A 
ENDBRANCH  22  23
ENDBRANCH  17  22
ENDBRANCH   1  18
TORSDOF 3
ENDMDL
