REMARK  Name = /home/qwerty/github/datacon2025hack/step_04_hit_selection/docking/ligands/lig_114.pdb
REMARK  6 active torsions:
REMARK  status: ('A' for Active; 'I' for Inactive)
REMARK    1  A    between atoms: C1_1  and  C2_2
REMARK    2  A    between atoms: C2_2  and  O1_3
REMARK    3  A    between atoms: C2_2  and  C3_4
REMARK    4  A    between atoms: C3_4  and  N1_5
REMARK    5  A    between atoms: C6_9  and  C7_11
REMARK    6  A    between atoms: C11_16  and  O3_17
REMARK                            x       y       z     vdW  Elec       q    Type
REMARK                         _______ _______ _______ _____ _____    ______ ____
ROOT
ATOM      1  N1  UNL     1       2.651  -0.181   0.582  0.00  0.00    -0.297 NA
ATOM      2  C4  UNL     1       1.293  -0.083   1.155  0.00  0.00    +0.103 C 
ATOM      3  C5  UNL     1       0.421  -1.239   0.661  0.00  0.00    +0.123 C 
ATOM      4  N2  UNL     1       0.449  -1.296  -0.804  0.00  0.00    -0.295 N 
ATOM      5  C6  UNL     1      -0.688  -1.805  -1.524  0.00  0.00    +0.252 C 
ATOM      6  O2  UNL     1      -0.520  -2.714  -2.382  0.00  0.00    -0.270 OA
ATOM      7  C15 UNL     1       1.759  -1.254  -1.458  0.00  0.00    +0.123 C 
ATOM      8  C16 UNL     1       2.582  -0.094  -0.893  0.00  0.00    +0.103 C 
ENDROOT
BRANCH   5   9
ATOM      9  C7  UNL     1      -2.044  -1.249  -1.299  0.00  0.00    +0.098 A 
ATOM     10  C8  UNL     1      -2.195   0.093  -0.894  0.00  0.00    +0.023 A 
ATOM     11  C9  UNL     1      -3.478   0.598  -0.703  0.00  0.00    -0.025 A 
ATOM     12  C10 UNL     1      -4.571  -0.192  -0.912  0.00  0.00    +0.048 A 
ATOM     13  N3  UNL     1      -4.446  -1.483  -1.309  0.00  0.00    -0.217 NA
ATOM     14  C11 UNL     1      -3.211  -2.030  -1.508  0.00  0.00    +0.225 A 
ATOM     15  C12 UNL     1      -5.843   0.516  -0.666  0.00  0.00    +0.056 C 
ATOM     16  C13 UNL     1      -5.397   1.931  -0.245  0.00  0.00    +0.011 C 
ATOM     17  C14 UNL     1      -3.854   1.966  -0.284  0.00  0.00    +0.037 C 
BRANCH  14  18
ATOM     18  O3  UNL     1      -3.112  -3.362  -1.903  0.00  0.00    -0.492 OA
ATOM     19  H13 UNL     1      -3.941  -3.925  -2.049  0.00  0.00    +0.294 HD
ENDBRANCH  14  18
ENDBRANCH   5   9
BRANCH   1  20
ATOM     20  C3  UNL     1       3.522   0.882   1.134  0.00  0.00    +0.115 C 
BRANCH  20  22
ATOM     21  C1  UNL     1       5.902   1.505   1.753  0.00  0.00    +0.039 C 
ATOM     22  C2  UNL     1       5.000   0.443   1.115  0.00  0.00    +0.125 C 
BRANCH  22  23
ATOM     23  O1  UNL     1       5.164  -0.793   1.765  0.00  0.00    -0.391 OA
ATOM     24  H5  UNL     1       4.866  -0.679   2.705  0.00  0.00    +0.210 HD
ENDBRANCH  22  23
ENDBRANCH  20  22
ENDBRANCH   1  20
TORSDOF 5
