MODEL 1
REMARK VINA RESULT:    -7.268      0.000      0.000
REMARK INTER + INTRA:         -10.109
REMARK INTER:                  -9.393
REMARK INTRA:                  -0.716
REMARK UNBOUND:                -0.716
REMARK  Name = /home/qwerty/github/datacon2025hack/step_04_hit_selection/docking/ligands/lig_17.pdb
REMARK  5 active torsions:
REMARK  status: ('A' for Active; 'I' for Inactive)
REMARK    1  A    between atoms: N1_3  and  C2_4
REMARK    2  A    between atoms: C2_4  and  C3_5
REMARK    3  A    between atoms: C6_8  and  N2_9
REMARK    4  A    between atoms: N4_16  and  C12_17
REMARK    5  A    between atoms: C14_19  and  C15_20
REMARK                            x       y       z     vdW  Elec       q    Type
REMARK                         _______ _______ _______ _____ _____    ______ ____
ROOT
ATOM      1  O1  UNL     1      19.811   7.460  36.332  0.00  0.00    -0.252 OA
ATOM      2  C1  UNL     1      20.340   8.443  36.919  0.00  0.00    +0.304 C 
ATOM      3  N1  UNL     1      19.569   9.231  37.835  0.00  0.00    -0.295 N 
ATOM      4  N4  UNL     1      21.724   8.758  36.704  0.00  0.00    -0.267 N 
ATOM      5  H1  UNL     1      20.016  10.057  38.294  0.00  0.00    +0.151 HD
ATOM      6  H15 UNL     1      22.187   9.392  37.393  0.00  0.00    +0.156 HD
ENDROOT
BRANCH   4   7
ATOM      7  C12 UNL     1      22.531   8.173  35.667  0.00  0.00    +0.071 A 
ATOM      8  C13 UNL     1      22.665   8.794  34.411  0.00  0.00    +0.038 A 
ATOM      9  C14 UNL     1      23.480   8.229  33.415  0.00  0.00    +0.025 A 
ATOM     10  C16 UNL     1      24.174   7.039  33.691  0.00  0.00    +0.014 A 
ATOM     11  C17 UNL     1      24.060   6.430  34.943  0.00  0.00    +0.041 A 
ATOM     12  C18 UNL     1      23.249   6.996  35.929  0.00  0.00    +0.145 A 
ATOM     13  F1  UNL     1      23.152   6.386  37.138  0.00  0.00    -0.204 F 
BRANCH   9  14
ATOM     14  C15 UNL     1      23.614   8.882  32.096  0.00  0.00    +0.204 A 
ATOM     15  N5  UNL     1      24.679   9.615  31.712  0.00  0.00    -0.108 NA
ATOM     16  N6  UNL     1      24.397  10.008  30.481  0.00  0.00    -0.049 NA
ATOM     17  N7  UNL     1      23.214   9.533  30.135  0.00  0.00    -0.176 N 
ATOM     18  N8  UNL     1      22.689   8.823  31.118  0.00  0.00    -0.133 NA
ATOM     19  H17 UNL     1      22.756   9.697  29.212  0.00  0.00    +0.214 HD
ENDBRANCH   9  14
ENDBRANCH   4   7
BRANCH   3  20
ATOM     20  C2  UNL     1      18.171   8.939  38.141  0.00  0.00    +0.142 C 
BRANCH  20  21
ATOM     21  C3  UNL     1      17.277  10.001  37.561  0.00  0.00    -0.012 A 
ATOM     22  C4  UNL     1      15.907   9.761  37.397  0.00  0.00    +0.010 A 
ATOM     23  C5  UNL     1      15.084  10.743  36.844  0.00  0.00    +0.044 A 
ATOM     24  C6  UNL     1      15.639  11.973  36.451  0.00  0.00    +0.121 A 
ATOM     25  N3  UNL     1      16.976  12.177  36.613  0.00  0.00    -0.240 NA
ATOM     26  C11 UNL     1      17.796  11.236  37.150  0.00  0.00    +0.118 A 
BRANCH  24  27
ATOM     27  N2  UNL     1      14.825  13.014  35.878  0.00  0.00    -0.315 N 
ATOM     28  C7  UNL     1      14.330  14.140  36.651  0.00  0.00    +0.106 C 
ATOM     29  C8  UNL     1      13.664  15.070  35.647  0.00  0.00    +0.020 C 
ATOM     30  C9  UNL     1      13.432  14.233  34.391  0.00  0.00    +0.020 C 
ATOM     31  C10 UNL     1      14.396  13.058  34.489  0.00  0.00    +0.106 C 
ENDBRANCH  24  27
ENDBRANCH  20  21
ENDBRANCH   3  20
TORSDOF 5
ENDMDL
MODEL 2
REMARK VINA RESULT:    -7.011     14.811     16.676
REMARK INTER + INTRA:          -9.777
REMARK INTER:                  -9.273
REMARK INTRA:                  -0.504
REMARK UNBOUND:                -0.716
REMARK  Name = /home/qwerty/github/datacon2025hack/step_04_hit_selection/docking/ligands/lig_17.pdb
REMARK  5 active torsions:
REMARK  status: ('A' for Active; 'I' for Inactive)
REMARK    1  A    between atoms: N1_3  and  C2_4
REMARK    2  A    between atoms: C2_4  and  C3_5
REMARK    3  A    between atoms: C6_8  and  N2_9
REMARK    4  A    between atoms: N4_16  and  C12_17
REMARK    5  A    between atoms: C14_19  and  C15_20
REMARK                            x       y       z     vdW  Elec       q    Type
REMARK                         _______ _______ _______ _____ _____    ______ ____
ROOT
ATOM      1  O1  UNL     1      11.241   7.559  21.598  0.00  0.00    -0.252 OA
ATOM      2  C1  UNL     1      10.373   7.533  20.684  0.00  0.00    +0.304 C 
ATOM      3  N1  UNL     1       9.696   8.738  20.304  0.00  0.00    -0.295 N 
ATOM      4  N4  UNL     1      10.083   6.310  19.991  0.00  0.00    -0.267 N 
ATOM      5  H1  UNL     1       8.962   8.694  19.561  0.00  0.00    +0.151 HD
ATOM      6  H15 UNL     1       9.572   6.378  19.083  0.00  0.00    +0.156 HD
ENDROOT
BRANCH   4   7
ATOM      7  C12 UNL     1      10.543   5.015  20.418  0.00  0.00    +0.071 A 
ATOM      8  C13 UNL     1      11.821   4.543  20.066  0.00  0.00    +0.038 A 
ATOM      9  C14 UNL     1      12.271   3.289  20.514  0.00  0.00    +0.025 A 
ATOM     10  C16 UNL     1      11.434   2.513  21.332  0.00  0.00    +0.014 A 
ATOM     11  C17 UNL     1      10.173   2.986  21.702  0.00  0.00    +0.041 A 
ATOM     12  C18 UNL     1       9.731   4.233  21.255  0.00  0.00    +0.145 A 
ATOM     13  F1  UNL     1       8.501   4.673  21.625  0.00  0.00    -0.204 F 
BRANCH   9  14
ATOM     14  C15 UNL     1      13.612   2.795  20.136  0.00  0.00    +0.204 A 
ATOM     15  N5  UNL     1      14.021   1.517  20.271  0.00  0.00    -0.108 NA
ATOM     16  N6  UNL     1      15.265   1.507  19.820  0.00  0.00    -0.049 NA
ATOM     17  N7  UNL     1      15.593   2.726  19.429  0.00  0.00    -0.176 N 
ATOM     18  N8  UNL     1      14.587   3.563  19.611  0.00  0.00    -0.133 NA
ATOM     19  H17 UNL     1      16.520   2.990  19.032  0.00  0.00    +0.214 HD
ENDBRANCH   9  14
ENDBRANCH   4   7
BRANCH   3  20
ATOM     20  C2  UNL     1       9.975  10.029  20.929  0.00  0.00    +0.142 C 
BRANCH  20  21
ATOM     21  C3  UNL     1       9.498  10.032  22.355  0.00  0.00    -0.012 A 
ATOM     22  C4  UNL     1       8.128  10.032  22.643  0.00  0.00    +0.010 A 
ATOM     23  C5  UNL     1       7.689  10.051  23.968  0.00  0.00    +0.044 A 
ATOM     24  C6  UNL     1       8.631  10.072  25.011  0.00  0.00    +0.121 A 
ATOM     25  N3  UNL     1       9.958  10.079  24.703  0.00  0.00    -0.240 NA
ATOM     26  C11 UNL     1      10.408  10.061  23.421  0.00  0.00    +0.118 A 
BRANCH  24  27
ATOM     27  N2  UNL     1       8.221  10.089  26.392  0.00  0.00    -0.315 N 
ATOM     28  C7  UNL     1       7.480   9.000  27.005  0.00  0.00    +0.106 C 
ATOM     29  C8  UNL     1       7.394   9.344  28.486  0.00  0.00    +0.020 C 
ATOM     30  C9  UNL     1       7.725  10.830  28.592  0.00  0.00    +0.020 C 
ATOM     31  C10 UNL     1       8.480  11.181  27.317  0.00  0.00    +0.106 C 
ENDBRANCH  24  27
ENDBRANCH  20  21
ENDBRANCH   3  20
TORSDOF 5
ENDMDL
MODEL 3
REMARK VINA RESULT:    -6.967     16.150     17.379
REMARK INTER + INTRA:          -9.719
REMARK INTER:                  -9.098
REMARK INTRA:                  -0.622
REMARK UNBOUND:                -0.716
REMARK  Name = /home/qwerty/github/datacon2025hack/step_04_hit_selection/docking/ligands/lig_17.pdb
REMARK  5 active torsions:
REMARK  status: ('A' for Active; 'I' for Inactive)
REMARK    1  A    between atoms: N1_3  and  C2_4
REMARK    2  A    between atoms: C2_4  and  C3_5
REMARK    3  A    between atoms: C6_8  and  N2_9
REMARK    4  A    between atoms: N4_16  and  C12_17
REMARK    5  A    between atoms: C14_19  and  C15_20
REMARK                            x       y       z     vdW  Elec       q    Type
REMARK                         _______ _______ _______ _____ _____    ______ ____
ROOT
ATOM      1  O1  UNL     1      15.610   2.079  22.092  0.00  0.00    -0.252 OA
ATOM      2  C1  UNL     1      15.219   1.330  21.156  0.00  0.00    +0.304 C 
ATOM      3  N1  UNL     1      14.732   1.902  19.936  0.00  0.00    -0.295 N 
ATOM      4  N4  UNL     1      15.292  -0.098  21.290  0.00  0.00    -0.267 N 
ATOM      5  H1  UNL     1      14.388   1.267  19.180  0.00  0.00    +0.151 HD
ATOM      6  H15 UNL     1      15.217  -0.669  20.418  0.00  0.00    +0.156 HD
ENDROOT
BRANCH   4   7
ATOM      7  C12 UNL     1      15.565  -0.777  22.528  0.00  0.00    +0.071 A 
ATOM      8  C13 UNL     1      14.681  -0.689  23.618  0.00  0.00    +0.038 A 
ATOM      9  C14 UNL     1      14.944  -1.381  24.813  0.00  0.00    +0.025 A 
ATOM     10  C16 UNL     1      16.097  -2.178  24.903  0.00  0.00    +0.014 A 
ATOM     11  C17 UNL     1      16.968  -2.286  23.817  0.00  0.00    +0.041 A 
ATOM     12  C18 UNL     1      16.702  -1.596  22.631  0.00  0.00    +0.145 A 
ATOM     13  F1  UNL     1      17.562  -1.714  21.588  0.00  0.00    -0.204 F 
BRANCH   9  14
ATOM     14  C15 UNL     1      14.014  -1.281  25.958  0.00  0.00    +0.204 A 
ATOM     15  N5  UNL     1      13.305  -0.177  26.269  0.00  0.00    -0.108 NA
ATOM     16  N6  UNL     1      12.610  -0.510  27.345  0.00  0.00    -0.049 NA
ATOM     17  N7  UNL     1      12.887  -1.760  27.669  0.00  0.00    -0.176 N 
ATOM     18  N8  UNL     1      13.762  -2.280  26.826  0.00  0.00    -0.133 NA
ATOM     19  H17 UNL     1      12.471  -2.268  28.480  0.00  0.00    +0.214 HD
ENDBRANCH   9  14
ENDBRANCH   4   7
BRANCH   3  20
ATOM     20  C2  UNL     1      14.676   3.344  19.710  0.00  0.00    +0.142 C 
BRANCH  20  21
ATOM     21  C3  UNL     1      13.297   3.866  20.009  0.00  0.00    -0.012 A 
ATOM     22  C4  UNL     1      13.024   5.236  19.915  0.00  0.00    +0.010 A 
ATOM     23  C5  UNL     1      11.747   5.719  20.209  0.00  0.00    +0.044 A 
ATOM     24  C6  UNL     1      10.740   4.821  20.603  0.00  0.00    +0.121 A 
ATOM     25  N3  UNL     1      11.035   3.494  20.695  0.00  0.00    -0.240 NA
ATOM     26  C11 UNL     1      12.270   3.002  20.413  0.00  0.00    +0.118 A 
BRANCH  24  27
ATOM     27  N2  UNL     1       9.409   5.276  20.914  0.00  0.00    -0.315 N 
ATOM     28  C7  UNL     1       8.399   4.411  21.500  0.00  0.00    +0.106 C 
ATOM     29  C8  UNL     1       7.213   5.314  21.810  0.00  0.00    +0.020 C 
ATOM     30  C9  UNL     1       7.432   6.587  20.997  0.00  0.00    +0.020 C 
ATOM     31  C10 UNL     1       8.919   6.623  20.670  0.00  0.00    +0.106 C 
ENDBRANCH  24  27
ENDBRANCH  20  21
ENDBRANCH   3  20
TORSDOF 5
ENDMDL
MODEL 4
REMARK VINA RESULT:    -6.926     10.273     14.583
REMARK INTER + INTRA:          -9.666
REMARK INTER:                  -8.909
REMARK INTRA:                  -0.758
REMARK UNBOUND:                -0.716
REMARK  Name = /home/qwerty/github/datacon2025hack/step_04_hit_selection/docking/ligands/lig_17.pdb
REMARK  5 active torsions:
REMARK  status: ('A' for Active; 'I' for Inactive)
REMARK    1  A    between atoms: N1_3  and  C2_4
REMARK    2  A    between atoms: C2_4  and  C3_5
REMARK    3  A    between atoms: C6_8  and  N2_9
REMARK    4  A    between atoms: N4_16  and  C12_17
REMARK    5  A    between atoms: C14_19  and  C15_20
REMARK                            x       y       z     vdW  Elec       q    Type
REMARK                         _______ _______ _______ _____ _____    ______ ____
ROOT
ATOM      1  O1  UNL     1      10.362  11.068  28.768  0.00  0.00    -0.252 OA
ATOM      2  C1  UNL     1       9.398  11.857  28.567  0.00  0.00    +0.304 C 
ATOM      3  N1  UNL     1       8.278  11.434  27.779  0.00  0.00    -0.295 N 
ATOM      4  N4  UNL     1       9.396  13.166  29.155  0.00  0.00    -0.267 N 
ATOM      5  H1  UNL     1       7.500  12.109  27.602  0.00  0.00    +0.151 HD
ATOM      6  H15 UNL     1       8.486  13.678  29.193  0.00  0.00    +0.156 HD
ENDROOT
BRANCH   4   7
ATOM      7  C12 UNL     1      10.541  13.767  29.786  0.00  0.00    +0.071 A 
ATOM      8  C13 UNL     1      10.696  13.750  31.184  0.00  0.00    +0.038 A 
ATOM      9  C14 UNL     1      11.834  14.314  31.787  0.00  0.00    +0.025 A 
ATOM     10  C16 UNL     1      12.828  14.885  30.974  0.00  0.00    +0.014 A 
ATOM     11  C17 UNL     1      12.688  14.886  29.585  0.00  0.00    +0.041 A 
ATOM     12  C18 UNL     1      11.556  14.324  28.990  0.00  0.00    +0.145 A 
ATOM     13  F1  UNL     1      11.441  14.337  27.638  0.00  0.00    -0.204 F 
BRANCH   9  14
ATOM     14  C15 UNL     1      11.989  14.298  33.256  0.00  0.00    +0.204 A 
ATOM     15  N5  UNL     1      13.170  14.397  33.900  0.00  0.00    -0.108 NA
ATOM     16  N6  UNL     1      12.864  14.343  35.186  0.00  0.00    -0.049 NA
ATOM     17  N7  UNL     1      11.555  14.217  35.314  0.00  0.00    -0.176 N 
ATOM     18  N8  UNL     1      10.970  14.184  34.130  0.00  0.00    -0.133 NA
ATOM     19  H17 UNL     1      11.053  14.152  36.226  0.00  0.00    +0.214 HD
ENDBRANCH   9  14
ENDBRANCH   4   7
BRANCH   3  20
ATOM     20  C2  UNL     1       8.188  10.100  27.191  0.00  0.00    +0.142 C 
BRANCH  20  21
ATOM     21  C3  UNL     1       8.667  10.123  25.766  0.00  0.00    -0.012 A 
ATOM     22  C4  UNL     1       7.748  10.104  24.709  0.00  0.00    +0.010 A 
ATOM     23  C5  UNL     1       8.197  10.111  23.388  0.00  0.00    +0.044 A 
ATOM     24  C6  UNL     1       9.577  10.134  23.125  0.00  0.00    +0.121 A 
ATOM     25  N3  UNL     1      10.450  10.144  24.170  0.00  0.00    -0.240 NA
ATOM     26  C11 UNL     1      10.036  10.138  25.464  0.00  0.00    +0.118 A 
BRANCH  24  27
ATOM     27  N2  UNL     1      10.084  10.143  21.776  0.00  0.00    -0.315 N 
ATOM     28  C7  UNL     1       9.269  10.520  20.633  0.00  0.00    +0.106 C 
ATOM     29  C8  UNL     1      10.217  10.550  19.442  0.00  0.00    +0.020 C 
ATOM     30  C9  UNL     1      11.458   9.775  19.876  0.00  0.00    +0.020 C 
ATOM     31  C10 UNL     1      11.438   9.772  21.399  0.00  0.00    +0.106 C 
ENDBRANCH  24  27
ENDBRANCH  20  21
ENDBRANCH   3  20
TORSDOF 5
ENDMDL
MODEL 5
REMARK VINA RESULT:    -6.811     15.821     19.004
REMARK INTER + INTRA:          -9.518
REMARK INTER:                  -8.775
REMARK INTRA:                  -0.743
REMARK UNBOUND:                -0.716
REMARK  Name = /home/qwerty/github/datacon2025hack/step_04_hit_selection/docking/ligands/lig_17.pdb
REMARK  5 active torsions:
REMARK  status: ('A' for Active; 'I' for Inactive)
REMARK    1  A    between atoms: N1_3  and  C2_4
REMARK    2  A    between atoms: C2_4  and  C3_5
REMARK    3  A    between atoms: C6_8  and  N2_9
REMARK    4  A    between atoms: N4_16  and  C12_17
REMARK    5  A    between atoms: C14_19  and  C15_20
REMARK                            x       y       z     vdW  Elec       q    Type
REMARK                         _______ _______ _______ _____ _____    ______ ____
ROOT
ATOM      1  O1  UNL     1      13.158   5.198  21.229  0.00  0.00    -0.252 OA
ATOM      2  C1  UNL     1      12.810   4.626  20.160  0.00  0.00    +0.304 C 
ATOM      3  N1  UNL     1      13.800   4.044  19.303  0.00  0.00    -0.295 N 
ATOM      4  N4  UNL     1      11.421   4.520  19.812  0.00  0.00    -0.267 N 
ATOM      5  H1  UNL     1      13.496   3.596  18.409  0.00  0.00    +0.151 HD
ATOM      6  H15 UNL     1      11.159   3.824  19.079  0.00  0.00    +0.156 HD
ENDROOT
BRANCH   4   7
ATOM      7  C12 UNL     1      10.367   5.236  20.481  0.00  0.00    +0.071 A 
ATOM      8  C13 UNL     1      10.237   6.630  20.350  0.00  0.00    +0.038 A 
ATOM      9  C14 UNL     1       9.185   7.315  20.985  0.00  0.00    +0.025 A 
ATOM     10  C16 UNL     1       8.253   6.587  21.743  0.00  0.00    +0.014 A 
ATOM     11  C17 UNL     1       8.367   5.200  21.858  0.00  0.00    +0.041 A 
ATOM     12  C18 UNL     1       9.412   4.525  21.226  0.00  0.00    +0.145 A 
ATOM     13  F1  UNL     1       9.505   3.176  21.352  0.00  0.00    -0.204 F 
BRANCH   9  14
ATOM     14  C15 UNL     1       9.056   8.781  20.849  0.00  0.00    +0.204 A 
ATOM     15  N5  UNL     1       9.924   9.564  20.177  0.00  0.00    -0.108 NA
ATOM     16  N6  UNL     1       9.442  10.791  20.299  0.00  0.00    -0.049 NA
ATOM     17  N7  UNL     1       8.332  10.750  21.013  0.00  0.00    -0.176 N 
ATOM     18  N8  UNL     1       8.054   9.511  21.378  0.00  0.00    -0.133 NA
ATOM     19  H17 UNL     1       7.753  11.583  21.257  0.00  0.00    +0.214 HD
ENDBRANCH   9  14
ENDBRANCH   4   7
BRANCH   3  20
ATOM     20  C2  UNL     1      15.226   4.069  19.617  0.00  0.00    +0.142 C 
BRANCH  20  21
ATOM     21  C3  UNL     1      15.584   2.914  20.512  0.00  0.00    -0.012 A 
ATOM     22  C4  UNL     1      15.521   1.600  20.031  0.00  0.00    +0.010 A 
ATOM     23  C5  UNL     1      15.838   0.530  20.869  0.00  0.00    +0.044 A 
ATOM     24  C6  UNL     1      16.219   0.779  22.199  0.00  0.00    +0.121 A 
ATOM     25  N3  UNL     1      16.264   2.066  22.644  0.00  0.00    -0.240 NA
ATOM     26  C11 UNL     1      15.959   3.123  21.846  0.00  0.00    +0.118 A 
BRANCH  24  27
ATOM     27  N2  UNL     1      16.557  -0.296  23.096  0.00  0.00    -0.315 N 
ATOM     28  C7  UNL     1      16.746  -1.665  22.647  0.00  0.00    +0.106 C 
ATOM     29  C8  UNL     1      17.241  -2.433  23.865  0.00  0.00    +0.020 C 
ATOM     30  C9  UNL     1      16.911  -1.561  25.073  0.00  0.00    +0.020 C 
ATOM     31  C10 UNL     1      16.732  -0.149  24.532  0.00  0.00    +0.106 C 
ENDBRANCH  24  27
ENDBRANCH  20  21
ENDBRANCH   3  20
TORSDOF 5
ENDMDL
MODEL 6
REMARK VINA RESULT:    -6.805      4.767      7.354
REMARK INTER + INTRA:          -9.510
REMARK INTER:                  -8.912
REMARK INTRA:                  -0.598
REMARK UNBOUND:                -0.716
REMARK  Name = /home/qwerty/github/datacon2025hack/step_04_hit_selection/docking/ligands/lig_17.pdb
REMARK  5 active torsions:
REMARK  status: ('A' for Active; 'I' for Inactive)
REMARK    1  A    between atoms: N1_3  and  C2_4
REMARK    2  A    between atoms: C2_4  and  C3_5
REMARK    3  A    between atoms: C6_8  and  N2_9
REMARK    4  A    between atoms: N4_16  and  C12_17
REMARK    5  A    between atoms: C14_19  and  C15_20
REMARK                            x       y       z     vdW  Elec       q    Type
REMARK                         _______ _______ _______ _____ _____    ______ ____
ROOT
ATOM      1  O1  UNL     1      14.045  10.987  35.850  0.00  0.00    -0.252 OA
ATOM      2  C1  UNL     1      13.913  11.843  36.766  0.00  0.00    +0.304 C 
ATOM      3  N1  UNL     1      12.610  12.330  37.109  0.00  0.00    -0.295 N 
ATOM      4  N4  UNL     1      15.058  12.307  37.497  0.00  0.00    -0.267 N 
ATOM      5  H1  UNL     1      12.521  13.058  37.854  0.00  0.00    +0.151 HD
ATOM      6  H15 UNL     1      14.887  12.796  38.404  0.00  0.00    +0.156 HD
ENDROOT
BRANCH   4   7
ATOM      7  C12 UNL     1      16.419  12.047  37.110  0.00  0.00    +0.071 A 
ATOM      8  C13 UNL     1      17.058  10.842  37.456  0.00  0.00    +0.038 A 
ATOM      9  C14 UNL     1      18.379  10.587  37.047  0.00  0.00    +0.025 A 
ATOM     10  C16 UNL     1      19.053  11.546  36.273  0.00  0.00    +0.014 A 
ATOM     11  C17 UNL     1      18.417  12.734  35.910  0.00  0.00    +0.041 A 
ATOM     12  C18 UNL     1      17.104  12.983  36.318  0.00  0.00    +0.145 A 
ATOM     13  F1  UNL     1      16.505  14.145  35.955  0.00  0.00    -0.204 F 
BRANCH   9  14
ATOM     14  C15 UNL     1      19.047   9.322  37.418  0.00  0.00    +0.204 A 
ATOM     15  N5  UNL     1      20.285   8.968  37.019  0.00  0.00    -0.108 NA
ATOM     16  N6  UNL     1      20.495   7.782  37.568  0.00  0.00    -0.049 NA
ATOM     17  N7  UNL     1      19.430   7.436  38.268  0.00  0.00    -0.176 N 
ATOM     18  N8  UNL     1      18.500   8.371  38.201  0.00  0.00    -0.133 NA
ATOM     19  H17 UNL     1      19.337   6.544  38.802  0.00  0.00    +0.214 HD
ENDBRANCH   9  14
ENDBRANCH   4   7
BRANCH   3  20
ATOM     20  C2  UNL     1      11.395  11.866  36.443  0.00  0.00    +0.142 C 
BRANCH  20  21
ATOM     21  C3  UNL     1      11.372  12.334  35.014  0.00  0.00    -0.012 A 
ATOM     22  C4  UNL     1      11.395  13.703  34.717  0.00  0.00    +0.010 A 
ATOM     23  C5  UNL     1      11.358  14.133  33.390  0.00  0.00    +0.044 A 
ATOM     24  C6  UNL     1      11.295  13.185  32.354  0.00  0.00    +0.121 A 
ATOM     25  N3  UNL     1      11.266  11.860  32.671  0.00  0.00    -0.240 NA
ATOM     26  C11 UNL     1      11.301  11.418  33.956  0.00  0.00    +0.118 A 
BRANCH  24  27
ATOM     27  N2  UNL     1      11.257  13.585  30.971  0.00  0.00    -0.315 N 
ATOM     28  C7  UNL     1      12.192  14.543  30.405  0.00  0.00    +0.106 C 
ATOM     29  C8  UNL     1      11.910  14.559  28.909  0.00  0.00    +0.020 C 
ATOM     30  C9  UNL     1      10.535  13.919  28.735  0.00  0.00    +0.020 C 
ATOM     31  C10 UNL     1      10.292  13.103  29.997  0.00  0.00    +0.106 C 
ENDBRANCH  24  27
ENDBRANCH  20  21
ENDBRANCH   3  20
TORSDOF 5
ENDMDL
MODEL 7
REMARK VINA RESULT:    -6.791      3.756      9.921
REMARK INTER + INTRA:          -9.493
REMARK INTER:                  -8.747
REMARK INTRA:                  -0.746
REMARK UNBOUND:                -0.716
REMARK  Name = /home/qwerty/github/datacon2025hack/step_04_hit_selection/docking/ligands/lig_17.pdb
REMARK  5 active torsions:
REMARK  status: ('A' for Active; 'I' for Inactive)
REMARK    1  A    between atoms: N1_3  and  C2_4
REMARK    2  A    between atoms: C2_4  and  C3_5
REMARK    3  A    between atoms: C6_8  and  N2_9
REMARK    4  A    between atoms: N4_16  and  C12_17
REMARK    5  A    between atoms: C14_19  and  C15_20
REMARK                            x       y       z     vdW  Elec       q    Type
REMARK                         _______ _______ _______ _____ _____    ______ ____
ROOT
ATOM      1  O1  UNL     1      17.529  12.909  35.164  0.00  0.00    -0.252 OA
ATOM      2  C1  UNL     1      17.682  12.748  36.405  0.00  0.00    +0.304 C 
ATOM      3  N1  UNL     1      18.975  12.422  36.932  0.00  0.00    -0.295 N 
ATOM      4  N4  UNL     1      16.576  12.926  37.303  0.00  0.00    -0.267 N 
ATOM      5  H1  UNL     1      19.078  12.267  37.961  0.00  0.00    +0.151 HD
ATOM      6  H15 UNL     1      16.792  13.049  38.317  0.00  0.00    +0.156 HD
ENDROOT
BRANCH   4   7
ATOM      7  C12 UNL     1      15.207  13.050  36.878  0.00  0.00    +0.071 A 
ATOM      8  C13 UNL     1      14.339  11.943  36.886  0.00  0.00    +0.038 A 
ATOM      9  C14 UNL     1      12.995  12.082  36.497  0.00  0.00    +0.025 A 
ATOM     10  C16 UNL     1      12.521  13.347  36.111  0.00  0.00    +0.014 A 
ATOM     11  C17 UNL     1      13.373  14.453  36.121  0.00  0.00    +0.041 A 
ATOM     12  C18 UNL     1      14.707  14.310  36.510  0.00  0.00    +0.145 A 
ATOM     13  F1  UNL     1      15.519  15.398  36.511  0.00  0.00    -0.204 F 
BRANCH   9  14
ATOM     14  C15 UNL     1      12.089  10.914  36.502  0.00  0.00    +0.204 A 
ATOM     15  N5  UNL     1      11.317  10.552  37.547  0.00  0.00    -0.108 NA
ATOM     16  N6  UNL     1      10.671   9.472  37.137  0.00  0.00    -0.049 NA
ATOM     17  N7  UNL     1      11.037   9.194  35.898  0.00  0.00    -0.176 N 
ATOM     18  N8  UNL     1      11.924  10.072  35.463  0.00  0.00    -0.133 NA
ATOM     19  H17 UNL     1      10.675   8.391  35.340  0.00  0.00    +0.214 HD
ENDBRANCH   9  14
ENDBRANCH   4   7
BRANCH   3  20
ATOM     20  C2  UNL     1      20.155  12.274  36.085  0.00  0.00    +0.142 C 
BRANCH  20  21
ATOM     21  C3  UNL     1      20.343  10.833  35.697  0.00  0.00    -0.012 A 
ATOM     22  C4  UNL     1      20.977  10.502  34.493  0.00  0.00    +0.010 A 
ATOM     23  C5  UNL     1      21.135   9.164  34.129  0.00  0.00    +0.044 A 
ATOM     24  C6  UNL     1      20.652   8.152  34.977  0.00  0.00    +0.121 A 
ATOM     25  N3  UNL     1      20.032   8.502  36.138  0.00  0.00    -0.240 NA
ATOM     26  C11 UNL     1      19.867   9.798  36.513  0.00  0.00    +0.118 A 
BRANCH  24  27
ATOM     27  N2  UNL     1      20.796   6.759  34.640  0.00  0.00    -0.315 N 
ATOM     28  C7  UNL     1      22.041   6.194  34.147  0.00  0.00    +0.106 C 
ATOM     29  C8  UNL     1      21.811   4.691  34.072  0.00  0.00    +0.020 C 
ATOM     30  C9  UNL     1      20.298   4.496  34.126  0.00  0.00    +0.020 C 
ATOM     31  C10 UNL     1      19.734   5.771  34.738  0.00  0.00    +0.106 C 
ENDBRANCH  24  27
ENDBRANCH  20  21
ENDBRANCH   3  20
TORSDOF 5
ENDMDL
MODEL 8
REMARK VINA RESULT:    -6.783      6.381     10.576
REMARK INTER + INTRA:          -9.483
REMARK INTER:                  -8.883
REMARK INTRA:                  -0.600
REMARK UNBOUND:                -0.716
REMARK  Name = /home/qwerty/github/datacon2025hack/step_04_hit_selection/docking/ligands/lig_17.pdb
REMARK  5 active torsions:
REMARK  status: ('A' for Active; 'I' for Inactive)
REMARK    1  A    between atoms: N1_3  and  C2_4
REMARK    2  A    between atoms: C2_4  and  C3_5
REMARK    3  A    between atoms: C6_8  and  N2_9
REMARK    4  A    between atoms: N4_16  and  C12_17
REMARK    5  A    between atoms: C14_19  and  C15_20
REMARK                            x       y       z     vdW  Elec       q    Type
REMARK                         _______ _______ _______ _____ _____    ______ ____
ROOT
ATOM      1  O1  UNL     1      20.497   4.063  32.739  0.00  0.00    -0.252 OA
ATOM      2  C1  UNL     1      21.599   3.500  32.983  0.00  0.00    +0.304 C 
ATOM      3  N1  UNL     1      21.742   2.088  32.784  0.00  0.00    -0.295 N 
ATOM      4  N4  UNL     1      22.726   4.271  33.426  0.00  0.00    -0.267 N 
ATOM      5  H1  UNL     1      22.654   1.634  33.016  0.00  0.00    +0.151 HD
ATOM      6  H15 UNL     1      23.669   3.828  33.360  0.00  0.00    +0.156 HD
ENDROOT
BRANCH   4   7
ATOM      7  C12 UNL     1      22.645   5.642  33.853  0.00  0.00    +0.071 A 
ATOM      8  C13 UNL     1      21.790   6.030  34.901  0.00  0.00    +0.038 A 
ATOM      9  C14 UNL     1      21.742   7.369  35.329  0.00  0.00    +0.025 A 
ATOM     10  C16 UNL     1      22.570   8.317  34.706  0.00  0.00    +0.014 A 
ATOM     11  C17 UNL     1      23.435   7.933  33.679  0.00  0.00    +0.041 A 
ATOM     12  C18 UNL     1      23.480   6.603  33.258  0.00  0.00    +0.145 A 
ATOM     13  F1  UNL     1      24.327   6.252  32.257  0.00  0.00    -0.204 F 
BRANCH   9  14
ATOM     14  C15 UNL     1      20.838   7.772  36.427  0.00  0.00    +0.204 A 
ATOM     15  N5  UNL     1      20.053   8.868  36.405  0.00  0.00    -0.108 NA
ATOM     16  N6  UNL     1      19.416   8.855  37.564  0.00  0.00    -0.049 NA
ATOM     17  N7  UNL     1      19.799   7.796  38.256  0.00  0.00    -0.176 N 
ATOM     18  N8  UNL     1      20.689   7.092  37.580  0.00  0.00    -0.133 NA
ATOM     19  H17 UNL     1      19.446   7.551  39.207  0.00  0.00    +0.214 HD
ENDBRANCH   9  14
ENDBRANCH   4   7
BRANCH   3  20
ATOM     20  C2  UNL     1      20.654   1.248  32.289  0.00  0.00    +0.142 C 
BRANCH  20  21
ATOM     21  C3  UNL     1      20.600   1.297  30.786  0.00  0.00    -0.012 A 
ATOM     22  C4  UNL     1      21.746   1.026  30.028  0.00  0.00    +0.010 A 
ATOM     23  C5  UNL     1      21.695   1.088  28.634  0.00  0.00    +0.044 A 
ATOM     24  C6  UNL     1      20.488   1.426  27.998  0.00  0.00    +0.121 A 
ATOM     25  N3  UNL     1      19.391   1.692  28.760  0.00  0.00    -0.240 NA
ATOM     26  C11 UNL     1      19.417   1.638  30.117  0.00  0.00    +0.118 A 
BRANCH  24  27
ATOM     27  N2  UNL     1      20.392   1.499  26.562  0.00  0.00    -0.315 N 
ATOM     28  C7  UNL     1      19.891   0.402  25.752  0.00  0.00    +0.106 C 
ATOM     29  C8  UNL     1      19.806   0.944  24.332  0.00  0.00    +0.020 C 
ATOM     30  C9  UNL     1      20.664   2.206  24.313  0.00  0.00    +0.020 C 
ATOM     31  C10 UNL     1      20.788   2.648  25.765  0.00  0.00    +0.106 C 
ENDBRANCH  24  27
ENDBRANCH  20  21
ENDBRANCH   3  20
TORSDOF 5
ENDMDL
MODEL 9
REMARK VINA RESULT:    -6.773     14.461     17.178
REMARK INTER + INTRA:          -9.469
REMARK INTER:                  -8.850
REMARK INTRA:                  -0.619
REMARK UNBOUND:                -0.716
REMARK  Name = /home/qwerty/github/datacon2025hack/step_04_hit_selection/docking/ligands/lig_17.pdb
REMARK  5 active torsions:
REMARK  status: ('A' for Active; 'I' for Inactive)
REMARK    1  A    between atoms: N1_3  and  C2_4
REMARK    2  A    between atoms: C2_4  and  C3_5
REMARK    3  A    between atoms: C6_8  and  N2_9
REMARK    4  A    between atoms: N4_16  and  C12_17
REMARK    5  A    between atoms: C14_19  and  C15_20
REMARK                            x       y       z     vdW  Elec       q    Type
REMARK                         _______ _______ _______ _____ _____    ______ ____
ROOT
ATOM      1  O1  UNL     1      14.701   0.776  23.945  0.00  0.00    -0.252 OA
ATOM      2  C1  UNL     1      14.831  -0.215  23.175  0.00  0.00    +0.304 C 
ATOM      3  N1  UNL     1      15.271  -1.475  23.696  0.00  0.00    -0.295 N 
ATOM      4  N4  UNL     1      14.503  -0.099  21.782  0.00  0.00    -0.267 N 
ATOM      5  H1  UNL     1      15.396  -2.279  23.040  0.00  0.00    +0.151 HD
ATOM      6  H15 UNL     1      14.366  -0.984  21.244  0.00  0.00    +0.156 HD
ENDROOT
BRANCH   4   7
ATOM      7  C12 UNL     1      14.253   1.150  21.115  0.00  0.00    +0.071 A 
ATOM      8  C13 UNL     1      12.989   1.765  21.170  0.00  0.00    +0.038 A 
ATOM      9  C14 UNL     1      12.764   3.001  20.539  0.00  0.00    +0.025 A 
ATOM     10  C16 UNL     1      13.824   3.627  19.861  0.00  0.00    +0.014 A 
ATOM     11  C17 UNL     1      15.086   3.031  19.822  0.00  0.00    +0.041 A 
ATOM     12  C18 UNL     1      15.304   1.803  20.451  0.00  0.00    +0.145 A 
ATOM     13  F1  UNL     1      16.538   1.241  20.398  0.00  0.00    -0.204 F 
BRANCH   9  14
ATOM     14  C15 UNL     1      11.432   3.640  20.595  0.00  0.00    +0.204 A 
ATOM     15  N5  UNL     1      10.415   3.215  21.371  0.00  0.00    -0.108 NA
ATOM     16  N6  UNL     1       9.422   4.054  21.123  0.00  0.00    -0.049 NA
ATOM     17  N7  UNL     1       9.824   4.948  20.237  0.00  0.00    -0.176 N 
ATOM     18  N8  UNL     1      11.076   4.724  19.879  0.00  0.00    -0.133 NA
ATOM     19  H17 UNL     1       9.231   5.724  19.869  0.00  0.00    +0.214 HD
ENDBRANCH   9  14
ENDBRANCH   4   7
BRANCH   3  20
ATOM     20  C2  UNL     1      15.573  -1.680  25.111  0.00  0.00    +0.142 C 
BRANCH  20  21
ATOM     21  C3  UNL     1      16.812  -0.918  25.496  0.00  0.00    -0.012 A 
ATOM     22  C4  UNL     1      16.782  -0.013  26.563  0.00  0.00    +0.010 A 
ATOM     23  C5  UNL     1      17.929   0.704  26.907  0.00  0.00    +0.044 A 
ATOM     24  C6  UNL     1      19.113   0.513  26.173  0.00  0.00    +0.121 A 
ATOM     25  N3  UNL     1      19.112  -0.368  25.134  0.00  0.00    -0.240 NA
ATOM     26  C11 UNL     1      18.007  -1.076  24.782  0.00  0.00    +0.118 A 
BRANCH  24  27
ATOM     27  N2  UNL     1      20.320   1.231  26.496  0.00  0.00    -0.315 N 
ATOM     28  C7  UNL     1      20.981   2.120  25.556  0.00  0.00    +0.106 C 
ATOM     29  C8  UNL     1      22.105   2.785  26.338  0.00  0.00    +0.020 C 
ATOM     30  C9  UNL     1      22.307   1.933  27.588  0.00  0.00    +0.020 C 
ATOM     31  C10 UNL     1      21.016   1.145  27.769  0.00  0.00    +0.106 C 
ENDBRANCH  24  27
ENDBRANCH  20  21
ENDBRANCH   3  20
TORSDOF 5
ENDMDL
