REMARK  Name = /home/qwerty/github/datacon2025hack/step_04_hit_selection/docking/ligands/lig_748.pdb
REMARK  10 active torsions:
REMARK  status: ('A' for Active; 'I' for Inactive)
REMARK    1  A    between atoms: C1_1  and  C2_2
REMARK    2  A    between atoms: C2_2  and  C3_3
REMARK    3  A    between atoms: C2_2  and  C4_4
REMARK    4  A    between atoms: C4_4  and  C5_5
REMARK    5  A    between atoms: N1_7  and  C6_8
REMARK    6  A    between atoms: C9_11  and  C10_12
REMARK    7  A    between atoms: N2_14  and  C11_15
REMARK    8  A    between atoms: C14_18  and  N3_19
REMARK    9  A    between atoms: N4_22  and  C16_23
REMARK   10  A    between atoms: C18_25  and  C19_26
REMARK                            x       y       z     vdW  Elec       q    Type
REMARK                         _______ _______ _______ _____ _____    ______ ____
ROOT
ATOM      1  C11 UNL     1       1.109  -0.821  -0.253  0.00  0.00    +0.034 A 
ATOM      2  C12 UNL     1       1.950  -0.094  -1.108  0.00  0.00    +0.025 A 
ATOM      3  C13 UNL     1       3.336  -0.278  -1.066  0.00  0.00    +0.025 A 
ATOM      4  C14 UNL     1       3.906  -1.175  -0.148  0.00  0.00    +0.035 A 
ATOM      5  C23 UNL     1       3.065  -1.895   0.712  0.00  0.00    +0.025 A 
ATOM      6  C24 UNL     1       1.680  -1.710   0.673  0.00  0.00    +0.025 A 
ENDROOT
BRANCH   4   7
ATOM      7  N3  UNL     1       5.323  -1.414  -0.112  0.00  0.00    -0.269 N 
ATOM      8  C15 UNL     1       6.319  -0.420  -0.392  0.00  0.00    +0.308 C 
ATOM      9  O3  UNL     1       6.007   0.802  -0.420  0.00  0.00    -0.252 OA
ATOM     10  N4  UNL     1       7.672  -0.829  -0.641  0.00  0.00    -0.267 N 
ATOM     11  H16 UNL     1       5.656  -2.357   0.195  0.00  0.00    +0.156 HD
ATOM     12  H17 UNL     1       7.837  -1.837  -0.862  0.00  0.00    +0.156 HD
BRANCH  10  13
ATOM     13  C16 UNL     1       8.786   0.078  -0.727  0.00  0.00    +0.071 A 
ATOM     14  C17 UNL     1       8.881   1.198   0.121  0.00  0.00    +0.038 A 
ATOM     15  C18 UNL     1       9.988   2.061   0.049  0.00  0.00    +0.057 A 
ATOM     16  C20 UNL     1      11.015   1.783  -0.871  0.00  0.00    +0.015 A 
ATOM     17  C21 UNL     1      10.934   0.663  -1.701  0.00  0.00    +0.041 A 
ATOM     18  C22 UNL     1       9.830  -0.190  -1.627  0.00  0.00    +0.145 A 
ATOM     19  F4  UNL     1       9.772  -1.273  -2.444  0.00  0.00    -0.204 F 
BRANCH  15  20
ATOM     20  C19 UNL     1      10.057   3.250   0.973  0.00  0.00    +0.417 C 
ATOM     21  F1  UNL     1      11.186   4.015   0.738  0.00  0.00    -0.166 F 
ATOM     22  F2  UNL     1       8.941   4.044   0.789  0.00  0.00    -0.166 F 
ATOM     23  F3  UNL     1      10.085   2.811   2.285  0.00  0.00    -0.166 F 
ENDBRANCH  15  20
ENDBRANCH  10  13
ENDBRANCH   4   7
BRANCH   1  26
ATOM     24  C10 UNL     1      -1.287  -1.629  -0.028  0.00  0.00    +0.248 C 
ATOM     25  O2  UNL     1      -0.946  -2.844  -0.060  0.00  0.00    -0.270 OA
ATOM     26  N2  UNL     1      -0.314  -0.609  -0.314  0.00  0.00    -0.282 N 
ATOM     27  H13 UNL     1      -0.652   0.291  -0.724  0.00  0.00    +0.155 HD
BRANCH  24  31
ATOM     28  C6  UNL     1      -5.409  -0.622   0.739  0.00  0.00    +0.033 A 
ATOM     29  C7  UNL     1      -4.406   0.348   0.871  0.00  0.00    +0.024 A 
ATOM     30  C8  UNL     1      -3.067   0.027   0.626  0.00  0.00    +0.015 A 
ATOM     31  C9  UNL     1      -2.703  -1.277   0.247  0.00  0.00    +0.037 A 
ATOM     32  C25 UNL     1      -3.706  -2.259   0.155  0.00  0.00    +0.015 A 
ATOM     33  C26 UNL     1      -5.044  -1.938   0.403  0.00  0.00    +0.024 A 
BRANCH  28  36
ATOM     34  C5  UNL     1      -7.911  -0.847   0.348  0.00  0.00    +0.217 C 
ATOM     35  O1  UNL     1      -7.758  -1.592  -0.658  0.00  0.00    -0.275 OA
ATOM     36  N1  UNL     1      -6.775  -0.264   1.009  0.00  0.00    -0.285 N 
ATOM     37  H10 UNL     1      -6.950   0.542   1.652  0.00  0.00    +0.155 HD
BRANCH  34  38
ATOM     38  C4  UNL     1      -9.302  -0.507   0.802  0.00  0.00    +0.099 C 
BRANCH  38  40
ATOM     39  C1  UNL     1      -9.275   1.860  -0.140  0.00  0.00    +0.008 C 
ATOM     40  C2  UNL     1      -9.987   0.497  -0.147  0.00  0.00    -0.008 C 
ATOM     41  C3  UNL     1     -11.460   0.673   0.244  0.00  0.00    +0.008 C 
ENDBRANCH  38  40
ENDBRANCH  34  38
ENDBRANCH  28  36
ENDBRANCH  24  31
ENDBRANCH   1  26
TORSDOF 8
