REMARK  Name = /home/qwerty/github/datacon2025hack/step_04_hit_selection/docking/ligands/lig_614.pdb
REMARK  7 active torsions:
REMARK  status: ('A' for Active; 'I' for Inactive)
REMARK    1  A    between atoms: C1_1  and  C2_2
REMARK    2  A    between atoms: N1_4  and  C3_5
REMARK    3  A    between atoms: C6_8  and  N2_9
REMARK    4  A    between atoms: C8_11  and  C9_12
REMARK    5  A    between atoms: N3_14  and  C10_15
REMARK    6  A    between atoms: C13_18  and  O3_19
REMARK    7  A    between atoms: O3_19  and  C14_20
REMARK                            x       y       z     vdW  Elec       q    Type
REMARK                         _______ _______ _______ _____ _____    ______ ____
ROOT
ATOM      1  N2  UNL     1      -1.475  -0.935   0.648  0.00  0.00    -0.271 N 
ATOM      2  C7  UNL     1      -0.340  -0.408  -0.094  0.00  0.00    +0.127 C 
ATOM      3  C8  UNL     1       0.914  -0.997   0.589  0.00  0.00    +0.102 C 
ATOM      4  C17 UNL     1       0.466  -1.490   1.980  0.00  0.00    +0.110 C 
ATOM      5  C18 UNL     1      -1.007  -1.508   1.861  0.00  0.00    +0.221 C 
ATOM      6  O4  UNL     1      -1.770  -1.916   2.776  0.00  0.00    -0.275 OA
ENDROOT
BRANCH   1  10
ATOM      7  C3  UNL     1      -5.528  -0.697  -0.658  0.00  0.00    +0.033 A 
ATOM      8  C4  UNL     1      -5.089  -1.797   0.098  0.00  0.00    +0.025 A 
ATOM      9  C5  UNL     1      -3.763  -1.873   0.532  0.00  0.00    +0.025 A 
ATOM     10  C6  UNL     1      -2.848  -0.854   0.216  0.00  0.00    +0.036 A 
ATOM     11  C19 UNL     1      -3.281   0.227  -0.571  0.00  0.00    +0.025 A 
ATOM     12  C20 UNL     1      -4.608   0.302  -1.004  0.00  0.00    +0.025 A 
BRANCH   7  16
ATOM     13  C1  UNL     1      -9.351  -1.173  -1.122  0.00  0.00    +0.109 C 
ATOM     14  C2  UNL     1      -8.024  -1.114  -0.438  0.00  0.00    +0.214 C 
ATOM     15  O1  UNL     1      -7.940  -1.433   0.779  0.00  0.00    -0.276 OA
ATOM     16  N1  UNL     1      -6.879  -0.609  -1.143  0.00  0.00    -0.286 N 
ATOM     17  H4  UNL     1      -7.050  -0.083  -2.030  0.00  0.00    +0.155 HD
ENDBRANCH   7  16
ENDBRANCH   1  10
BRANCH   3  18
ATOM     18  C9  UNL     1       2.046  -0.003   0.655  0.00  0.00    +0.222 C 
ATOM     19  O2  UNL     1       1.945   1.011   1.399  0.00  0.00    -0.275 OA
ATOM     20  N3  UNL     1       3.195  -0.170  -0.191  0.00  0.00    -0.285 N 
ATOM     21  H10 UNL     1       3.110  -0.814  -1.010  0.00  0.00    +0.155 HD
BRANCH  20  22
ATOM     22  C10 UNL     1       4.413   0.581  -0.049  0.00  0.00    +0.034 A 
ATOM     23  C11 UNL     1       4.891   0.973   1.213  0.00  0.00    +0.027 A 
ATOM     24  C12 UNL     1       6.091   1.682   1.325  0.00  0.00    +0.048 A 
ATOM     25  C13 UNL     1       6.842   1.997   0.187  0.00  0.00    +0.130 A 
ATOM     26  C15 UNL     1       6.374   1.587  -1.077  0.00  0.00    +0.048 A 
ATOM     27  C16 UNL     1       5.174   0.879  -1.189  0.00  0.00    +0.027 A 
BRANCH  25  28
ATOM     28  O3  UNL     1       8.040   2.709   0.359  0.00  0.00    -0.406 OA
BRANCH  28  29
ATOM     29  C14 UNL     1       8.920   3.106  -0.690  0.00  0.00    +0.575 C 
ATOM     30  F1  UNL     1       8.262   3.945  -1.573  0.00  0.00    -0.133 F 
ATOM     31  F2  UNL     1       9.991   3.787  -0.144  0.00  0.00    -0.133 F 
ATOM     32  F3  UNL     1       9.395   1.994  -1.362  0.00  0.00    -0.133 F 
ENDBRANCH  28  29
ENDBRANCH  25  28
ENDBRANCH  20  22
ENDBRANCH   3  18
TORSDOF 6
