MODEL 1
REMARK VINA RESULT:    -6.613      0.000      0.000
REMARK INTER + INTRA:          -8.137
REMARK INTER:                  -8.160
REMARK INTRA:                   0.022
REMARK UNBOUND:                 0.022
REMARK  Name = /home/qwerty/github/datacon2025hack/step_04_hit_selection/docking/ligands/lig_309.pdb
REMARK  5 active torsions:
REMARK  status: ('A' for Active; 'I' for Inactive)
REMARK    1  A    between atoms: C1_1  and  C2_2
REMARK    2  A    between atoms: C2_2  and  C3_3
REMARK    3  A    between atoms: C2_2  and  N3_9
REMARK    4  A    between atoms: C9_12  and  N4_13
REMARK    5  A    between atoms: C10_14  and  C11_16
REMARK                            x       y       z     vdW  Elec       q    Type
REMARK                         _______ _______ _______ _____ _____    ______ ____
ROOT
ATOM      1  N3  UNL     1      21.631   2.618  28.477  0.00  0.00    -0.292 NA
ATOM      2  C7  UNL     1      22.535   2.779  27.325  0.00  0.00    +0.087 C 
ATOM      3  C8  UNL     1      21.730   2.505  26.057  0.00  0.00    +0.039 C 
ATOM      4  C9  UNL     1      20.358   2.059  26.539  0.00  0.00    +0.088 C 
ATOM      5  C18 UNL     1      20.576   1.715  28.003  0.00  0.00    +0.107 C 
ENDROOT
BRANCH   4   6
ATOM      6  N4  UNL     1      19.855   0.917  25.768  0.00  0.00    -0.306 N 
ATOM      7  C10 UNL     1      18.453   0.628  25.678  0.00  0.00    +0.262 C 
ATOM      8  O1  UNL     1      17.649   1.161  26.491  0.00  0.00    -0.269 OA
ATOM      9  H13 UNL     1      20.530   0.244  25.343  0.00  0.00    +0.149 HD
BRANCH   7  10
ATOM     10  C11 UNL     1      17.931  -0.315  24.669  0.00  0.00    +0.124 A 
ATOM     11  C12 UNL     1      17.877  -1.687  24.814  0.00  0.00    +0.143 A 
ATOM     12  N5  UNL     1      17.298  -2.236  23.725  0.00  0.00    -0.240 NA
ATOM     13  C13 UNL     1      17.016  -1.178  22.936  0.00  0.00    +0.110 A 
ATOM     14  N6  UNL     1      17.362   0.002  23.488  0.00  0.00    -0.324 N 
ATOM     15  C14 UNL     1      17.141   1.320  22.882  0.00  0.00    +0.124 C 
ATOM     16  C15 UNL     1      16.061   1.241  21.792  0.00  0.00    +0.022 C 
ATOM     17  C16 UNL     1      16.308   0.038  20.870  0.00  0.00    +0.009 C 
ATOM     18  C17 UNL     1      16.248  -1.282  21.652  0.00  0.00    +0.074 C 
ENDBRANCH   7  10
ENDBRANCH   4   6
BRANCH   1  20
ATOM     19  C1  UNL     1      21.329   1.875  30.838  0.00  0.00    +0.031 C 
ATOM     20  C2  UNL     1      22.322   2.100  29.687  0.00  0.00    +0.104 C 
BRANCH  20  21
ATOM     21  C3  UNL     1      23.022   0.792  29.388  0.00  0.00    +0.076 A 
ATOM     22  C4  UNL     1      22.301  -0.378  29.096  0.00  0.00    +0.135 A 
ATOM     23  N1  UNL     1      22.970  -1.531  28.840  0.00  0.00    -0.260 NA
ATOM     24  C5  UNL     1      24.327  -1.578  28.863  0.00  0.00    +0.130 A 
ATOM     25  C6  UNL     1      25.049  -0.420  29.157  0.00  0.00    +0.131 A 
ATOM     26  N2  UNL     1      24.383   0.735  29.413  0.00  0.00    -0.255 NA
ENDBRANCH  20  21
ENDBRANCH   1  20
TORSDOF 4
ENDMDL
MODEL 2
REMARK VINA RESULT:    -6.555      5.029     10.349
REMARK INTER + INTRA:          -8.066
REMARK INTER:                  -7.605
REMARK INTRA:                  -0.461
REMARK UNBOUND:                 0.022
REMARK  Name = /home/qwerty/github/datacon2025hack/step_04_hit_selection/docking/ligands/lig_309.pdb
REMARK  5 active torsions:
REMARK  status: ('A' for Active; 'I' for Inactive)
REMARK    1  A    between atoms: C1_1  and  C2_2
REMARK    2  A    between atoms: C2_2  and  C3_3
REMARK    3  A    between atoms: C2_2  and  N3_9
REMARK    4  A    between atoms: C9_12  and  N4_13
REMARK    5  A    between atoms: C10_14  and  C11_16
REMARK                            x       y       z     vdW  Elec       q    Type
REMARK                         _______ _______ _______ _____ _____    ______ ____
ROOT
ATOM      1  N3  UNL     1      21.296   1.727  29.918  0.00  0.00    -0.292 NA
ATOM      2  C7  UNL     1      20.987   0.722  30.951  0.00  0.00    +0.087 C 
ATOM      3  C8  UNL     1      20.670   1.466  32.246  0.00  0.00    +0.039 C 
ATOM      4  C9  UNL     1      20.931   2.933  31.943  0.00  0.00    +0.088 C 
ATOM      5  C18 UNL     1      21.752   2.905  30.664  0.00  0.00    +0.107 C 
ENDROOT
BRANCH   4   6
ATOM      6  N4  UNL     1      21.637   3.600  33.042  0.00  0.00    -0.306 N 
ATOM      7  C10 UNL     1      21.749   5.028  33.110  0.00  0.00    +0.262 C 
ATOM      8  O1  UNL     1      21.508   5.725  32.088  0.00  0.00    -0.269 OA
ATOM      9  H13 UNL     1      22.146   3.026  33.750  0.00  0.00    +0.149 HD
BRANCH   7  10
ATOM     10  C11 UNL     1      22.179   5.702  34.351  0.00  0.00    +0.124 A 
ATOM     11  C12 UNL     1      23.478   6.058  34.656  0.00  0.00    +0.143 A 
ATOM     12  N5  UNL     1      23.506   6.698  35.843  0.00  0.00    -0.240 NA
ATOM     13  C13 UNL     1      22.216   6.714  36.238  0.00  0.00    +0.110 A 
ATOM     14  N6  UNL     1      21.381   6.143  35.346  0.00  0.00    -0.324 N 
ATOM     15  C14 UNL     1      19.924   6.049  35.486  0.00  0.00    +0.124 C 
ATOM     16  C15 UNL     1      19.410   7.076  36.505  0.00  0.00    +0.022 C 
ATOM     17  C16 UNL     1      20.274   7.060  37.775  0.00  0.00    +0.009 C 
ATOM     18  C17 UNL     1      21.730   7.436  37.460  0.00  0.00    +0.074 C 
ENDBRANCH   7  10
ENDBRANCH   4   6
BRANCH   1  20
ATOM     19  C1  UNL     1      22.355  -0.283  28.889  0.00  0.00    +0.031 C 
ATOM     20  C2  UNL     1      22.302   1.252  28.932  0.00  0.00    +0.104 C 
BRANCH  20  21
ATOM     21  C3  UNL     1      21.980   1.766  27.546  0.00  0.00    +0.076 A 
ATOM     22  C4  UNL     1      20.924   1.231  26.791  0.00  0.00    +0.135 A 
ATOM     23  N1  UNL     1      20.674   1.718  25.548  0.00  0.00    -0.260 NA
ATOM     24  C5  UNL     1      21.430   2.713  25.017  0.00  0.00    +0.130 A 
ATOM     25  C6  UNL     1      22.485   3.246  25.761  0.00  0.00    +0.131 A 
ATOM     26  N2  UNL     1      22.736   2.761  27.004  0.00  0.00    -0.255 NA
ENDBRANCH  20  21
ENDBRANCH   1  20
TORSDOF 4
ENDMDL
MODEL 3
REMARK VINA RESULT:    -6.516      1.630      2.710
REMARK INTER + INTRA:          -8.017
REMARK INTER:                  -7.446
REMARK INTRA:                  -0.571
REMARK UNBOUND:                 0.022
REMARK  Name = /home/qwerty/github/datacon2025hack/step_04_hit_selection/docking/ligands/lig_309.pdb
REMARK  5 active torsions:
REMARK  status: ('A' for Active; 'I' for Inactive)
REMARK    1  A    between atoms: C1_1  and  C2_2
REMARK    2  A    between atoms: C2_2  and  C3_3
REMARK    3  A    between atoms: C2_2  and  N3_9
REMARK    4  A    between atoms: C9_12  and  N4_13
REMARK    5  A    between atoms: C10_14  and  C11_16
REMARK                            x       y       z     vdW  Elec       q    Type
REMARK                         _______ _______ _______ _____ _____    ______ ____
ROOT
ATOM      1  N3  UNL     1      21.285   1.758  28.004  0.00  0.00    -0.292 NA
ATOM      2  C7  UNL     1      22.182   2.243  26.940  0.00  0.00    +0.087 C 
ATOM      3  C8  UNL     1      21.353   2.412  25.670  0.00  0.00    +0.039 C 
ATOM      4  C9  UNL     1      19.969   1.886  26.019  0.00  0.00    +0.088 C 
ATOM      5  C18 UNL     1      20.189   1.089  27.295  0.00  0.00    +0.107 C 
ENDROOT
BRANCH   4   6
ATOM      6  N4  UNL     1      19.411   1.064  24.940  0.00  0.00    -0.306 N 
ATOM      7  C10 UNL     1      17.996   0.906  24.768  0.00  0.00    +0.262 C 
ATOM      8  O1  UNL     1      17.212   1.219  25.705  0.00  0.00    -0.269 OA
ATOM      9  H13 UNL     1      20.051   0.510  24.330  0.00  0.00    +0.149 HD
BRANCH   7  10
ATOM     10  C11 UNL     1      17.436   0.346  23.522  0.00  0.00    +0.124 A 
ATOM     11  C12 UNL     1      17.284  -0.999  23.250  0.00  0.00    +0.143 A 
ATOM     12  N5  UNL     1      16.697  -1.155  22.045  0.00  0.00    -0.240 NA
ATOM     13  C13 UNL     1      16.507   0.107  21.607  0.00  0.00    +0.110 A 
ATOM     14  N6  UNL     1      16.918   1.042  22.488  0.00  0.00    -0.324 N 
ATOM     15  C14 UNL     1      16.803   2.492  22.302  0.00  0.00    +0.124 C 
ATOM     16  C15 UNL     1      15.748   2.821  21.236  0.00  0.00    +0.022 C 
ATOM     17  C16 UNL     1      15.935   1.932  19.997  0.00  0.00    +0.009 C 
ATOM     18  C17 UNL     1      15.765   0.447  20.348  0.00  0.00    +0.074 C 
ENDBRANCH   7  10
ENDBRANCH   4   6
BRANCH   1  20
ATOM     19  C1  UNL     1      23.494   1.035  28.909  0.00  0.00    +0.031 C 
ATOM     20  C2  UNL     1      21.968   0.861  28.972  0.00  0.00    +0.104 C 
BRANCH  20  21
ATOM     21  C3  UNL     1      21.506   1.143  30.385  0.00  0.00    +0.076 A 
ATOM     22  C4  UNL     1      21.963   2.264  31.097  0.00  0.00    +0.135 A 
ATOM     23  N1  UNL     1      21.527   2.476  32.366  0.00  0.00    -0.260 NA
ATOM     24  C5  UNL     1      20.658   1.621  32.964  0.00  0.00    +0.130 A 
ATOM     25  C6  UNL     1      20.204   0.502  32.262  0.00  0.00    +0.131 A 
ATOM     26  N2  UNL     1      20.638   0.288  30.994  0.00  0.00    -0.255 NA
ENDBRANCH  20  21
ENDBRANCH   1  20
TORSDOF 4
ENDMDL
MODEL 4
REMARK VINA RESULT:    -6.416      1.712      3.037
REMARK INTER + INTRA:          -7.894
REMARK INTER:                  -7.251
REMARK INTRA:                  -0.643
REMARK UNBOUND:                 0.022
REMARK  Name = /home/qwerty/github/datacon2025hack/step_04_hit_selection/docking/ligands/lig_309.pdb
REMARK  5 active torsions:
REMARK  status: ('A' for Active; 'I' for Inactive)
REMARK    1  A    between atoms: C1_1  and  C2_2
REMARK    2  A    between atoms: C2_2  and  C3_3
REMARK    3  A    between atoms: C2_2  and  N3_9
REMARK    4  A    between atoms: C9_12  and  N4_13
REMARK    5  A    between atoms: C10_14  and  C11_16
REMARK                            x       y       z     vdW  Elec       q    Type
REMARK                         _______ _______ _______ _____ _____    ______ ____
ROOT
ATOM      1  N3  UNL     1      21.655   2.188  28.144  0.00  0.00    -0.292 NA
ATOM      2  C7  UNL     1      22.641   2.521  27.100  0.00  0.00    +0.087 C 
ATOM      3  C8  UNL     1      21.874   2.996  25.868  0.00  0.00    +0.039 C 
ATOM      4  C9  UNL     1      20.404   2.803  26.208  0.00  0.00    +0.088 C 
ATOM      5  C18 UNL     1      20.424   1.873  27.411  0.00  0.00    +0.107 C 
ENDROOT
BRANCH   4   6
ATOM      6  N4  UNL     1      19.654   2.238  25.081  0.00  0.00    -0.306 N 
ATOM      7  C10 UNL     1      18.263   2.525  24.883  0.00  0.00    +0.262 C 
ATOM      8  O1  UNL     1      17.584   3.020  25.824  0.00  0.00    -0.269 OA
ATOM      9  H13 UNL     1      20.113   1.543  24.453  0.00  0.00    +0.149 HD
BRANCH   7  10
ATOM     10  C11 UNL     1      17.595   2.218  23.603  0.00  0.00    +0.124 A 
ATOM     11  C12 UNL     1      17.297   3.139  22.619  0.00  0.00    +0.143 A 
ATOM     12  N5  UNL     1      16.735   2.511  21.564  0.00  0.00    -0.240 NA
ATOM     13  C13 UNL     1      16.700   1.214  21.936  0.00  0.00    +0.110 A 
ATOM     14  N6  UNL     1      17.237   0.997  23.153  0.00  0.00    -0.324 N 
ATOM     15  C14 UNL     1      17.373  -0.313  23.799  0.00  0.00    +0.124 C 
ATOM     16  C15 UNL     1      17.280  -1.442  22.762  0.00  0.00    +0.022 C 
ATOM     17  C16 UNL     1      16.097  -1.209  21.811  0.00  0.00    +0.009 C 
ATOM     18  C17 UNL     1      16.264   0.102  21.029  0.00  0.00    +0.074 C 
ENDBRANCH   7  10
ENDBRANCH   4   6
BRANCH   1  20
ATOM     19  C1  UNL     1      23.630   0.989  29.083  0.00  0.00    +0.031 C 
ATOM     20  C2  UNL     1      22.097   1.072  29.020  0.00  0.00    +0.104 C 
BRANCH  20  21
ATOM     21  C3  UNL     1      21.563   1.248  30.425  0.00  0.00    +0.076 A 
ATOM     22  C4  UNL     1      20.634   0.350  30.976  0.00  0.00    +0.135 A 
ATOM     23  N1  UNL     1      20.177   0.550  32.240  0.00  0.00    -0.260 NA
ATOM     24  C5  UNL     1      20.598   1.606  32.982  0.00  0.00    +0.130 A 
ATOM     25  C6  UNL     1      21.517   2.505  32.437  0.00  0.00    +0.131 A 
ATOM     26  N2  UNL     1      21.977   2.307  31.175  0.00  0.00    -0.255 NA
ENDBRANCH  20  21
ENDBRANCH   1  20
TORSDOF 4
ENDMDL
MODEL 5
REMARK VINA RESULT:    -6.387     13.445     15.012
REMARK INTER + INTRA:          -7.859
REMARK INTER:                  -7.286
REMARK INTRA:                  -0.573
REMARK UNBOUND:                 0.022
REMARK  Name = /home/qwerty/github/datacon2025hack/step_04_hit_selection/docking/ligands/lig_309.pdb
REMARK  5 active torsions:
REMARK  status: ('A' for Active; 'I' for Inactive)
REMARK    1  A    between atoms: C1_1  and  C2_2
REMARK    2  A    between atoms: C2_2  and  C3_3
REMARK    3  A    between atoms: C2_2  and  N3_9
REMARK    4  A    between atoms: C9_12  and  N4_13
REMARK    5  A    between atoms: C10_14  and  C11_16
REMARK                            x       y       z     vdW  Elec       q    Type
REMARK                         _______ _______ _______ _____ _____    ______ ____
ROOT
ATOM      1  N3  UNL     1       8.938  11.513  28.457  0.00  0.00    -0.292 NA
ATOM      2  C7  UNL     1       7.718  10.817  28.904  0.00  0.00    +0.087 C 
ATOM      3  C8  UNL     1       7.612   9.510  28.123  0.00  0.00    +0.039 C 
ATOM      4  C9  UNL     1       8.757   9.544  27.122  0.00  0.00    +0.088 C 
ATOM      5  C18 UNL     1       9.187  11.002  27.104  0.00  0.00    +0.107 C 
ENDROOT
BRANCH   4   6
ATOM      6  N4  UNL     1       8.337   9.073  25.798  0.00  0.00    -0.306 N 
ATOM      7  C10 UNL     1       9.276   8.532  24.858  0.00  0.00    +0.262 C 
ATOM      8  O1  UNL     1      10.511   8.722  25.026  0.00  0.00    -0.269 OA
ATOM      9  H13 UNL     1       7.348   9.208  25.492  0.00  0.00    +0.149 HD
BRANCH   7  10
ATOM     10  C11 UNL     1       8.822   7.783  23.670  0.00  0.00    +0.124 A 
ATOM     11  C12 UNL     1       8.804   8.272  22.378  0.00  0.00    +0.143 A 
ATOM     12  N5  UNL     1       8.378   7.308  21.534  0.00  0.00    -0.240 NA
ATOM     13  C13 UNL     1       8.141   6.251  22.338  0.00  0.00    +0.110 A 
ATOM     14  N6  UNL     1       8.424   6.494  23.634  0.00  0.00    -0.324 N 
ATOM     15  C14 UNL     1       8.303   5.523  24.726  0.00  0.00    +0.124 C 
ATOM     16  C15 UNL     1       8.281   4.089  24.178  0.00  0.00    +0.022 C 
ATOM     17  C16 UNL     1       7.320   3.979  22.984  0.00  0.00    +0.009 C 
ATOM     18  C17 UNL     1       7.762   4.891  21.831  0.00  0.00    +0.074 C 
ENDBRANCH   7  10
ENDBRANCH   4   6
BRANCH   1  20
ATOM     19  C1  UNL     1       7.809  13.435  29.574  0.00  0.00    +0.031 C 
ATOM     20  C2  UNL     1       8.806  12.992  28.492  0.00  0.00    +0.104 C 
BRANCH  20  21
ATOM     21  C3  UNL     1      10.144  13.645  28.768  0.00  0.00    +0.076 A 
ATOM     22  C4  UNL     1      10.897  14.239  27.742  0.00  0.00    +0.135 A 
ATOM     23  N1  UNL     1      12.095  14.808  28.033  0.00  0.00    -0.260 NA
ATOM     24  C5  UNL     1      12.583  14.812  29.301  0.00  0.00    +0.130 A 
ATOM     25  C6  UNL     1      11.840  14.219  30.324  0.00  0.00    +0.131 A 
ATOM     26  N2  UNL     1      10.642  13.650  30.035  0.00  0.00    -0.255 NA
ENDBRANCH  20  21
ENDBRANCH   1  20
TORSDOF 4
ENDMDL
MODEL 6
REMARK VINA RESULT:    -6.250     13.453     14.959
REMARK INTER + INTRA:          -7.689
REMARK INTER:                  -7.061
REMARK INTRA:                  -0.628
REMARK UNBOUND:                 0.022
REMARK  Name = /home/qwerty/github/datacon2025hack/step_04_hit_selection/docking/ligands/lig_309.pdb
REMARK  5 active torsions:
REMARK  status: ('A' for Active; 'I' for Inactive)
REMARK    1  A    between atoms: C1_1  and  C2_2
REMARK    2  A    between atoms: C2_2  and  C3_3
REMARK    3  A    between atoms: C2_2  and  N3_9
REMARK    4  A    between atoms: C9_12  and  N4_13
REMARK    5  A    between atoms: C10_14  and  C11_16
REMARK                            x       y       z     vdW  Elec       q    Type
REMARK                         _______ _______ _______ _____ _____    ______ ____
ROOT
ATOM      1  N3  UNL     1       8.761  11.358  28.939  0.00  0.00    -0.292 NA
ATOM      2  C7  UNL     1       7.526  10.754  29.469  0.00  0.00    +0.087 C 
ATOM      3  C8  UNL     1       7.445   9.322  28.949  0.00  0.00    +0.039 C 
ATOM      4  C9  UNL     1       8.623   9.170  27.999  0.00  0.00    +0.088 C 
ATOM      5  C18 UNL     1       9.056  10.600  27.718  0.00  0.00    +0.107 C 
ENDROOT
BRANCH   4   6
ATOM      6  N4  UNL     1       8.247   8.452  26.775  0.00  0.00    -0.306 N 
ATOM      7  C10 UNL     1       9.193   7.657  26.048  0.00  0.00    +0.262 C 
ATOM      8  O1  UNL     1      10.428   7.792  26.269  0.00  0.00    -0.269 OA
ATOM      9  H13 UNL     1       7.294   8.586  26.371  0.00  0.00    +0.149 HD
BRANCH   7  10
ATOM     10  C11 UNL     1       8.752   6.701  25.014  0.00  0.00    +0.124 A 
ATOM     11  C12 UNL     1       8.277   5.427  25.257  0.00  0.00    +0.143 A 
ATOM     12  N5  UNL     1       7.916   4.848  24.092  0.00  0.00    -0.240 NA
ATOM     13  C13 UNL     1       8.186   5.787  23.162  0.00  0.00    +0.110 A 
ATOM     14  N6  UNL     1       8.668   6.932  23.687  0.00  0.00    -0.324 N 
ATOM     15  C14 UNL     1       9.011   8.136  22.925  0.00  0.00    +0.124 C 
ATOM     16  C15 UNL     1       8.325   8.124  21.551  0.00  0.00    +0.022 C 
ATOM     17  C16 UNL     1       8.487   6.754  20.876  0.00  0.00    +0.009 C 
ATOM     18  C17 UNL     1       7.834   5.643  21.711  0.00  0.00    +0.074 C 
ENDBRANCH   7  10
ENDBRANCH   4   6
BRANCH   1  20
ATOM     19  C1  UNL     1       7.590  13.451  29.622  0.00  0.00    +0.031 C 
ATOM     20  C2  UNL     1       8.631  12.816  28.686  0.00  0.00    +0.104 C 
BRANCH  20  21
ATOM     21  C3  UNL     1       9.957  13.518  28.889  0.00  0.00    +0.076 A 
ATOM     22  C4  UNL     1      10.593  13.538  30.141  0.00  0.00    +0.135 A 
ATOM     23  N1  UNL     1      11.779  14.185  30.280  0.00  0.00    -0.260 NA
ATOM     24  C5  UNL     1      12.363  14.818  29.230  0.00  0.00    +0.130 A 
ATOM     25  C6  UNL     1      11.733  14.805  27.984  0.00  0.00    +0.131 A 
ATOM     26  N2  UNL     1      10.547  14.158  27.842  0.00  0.00    -0.255 NA
ENDBRANCH  20  21
ENDBRANCH   1  20
TORSDOF 4
ENDMDL
MODEL 7
REMARK VINA RESULT:    -6.174     14.630     17.845
REMARK INTER + INTRA:          -7.595
REMARK INTER:                  -7.080
REMARK INTRA:                  -0.515
REMARK UNBOUND:                 0.022
REMARK  Name = /home/qwerty/github/datacon2025hack/step_04_hit_selection/docking/ligands/lig_309.pdb
REMARK  5 active torsions:
REMARK  status: ('A' for Active; 'I' for Inactive)
REMARK    1  A    between atoms: C1_1  and  C2_2
REMARK    2  A    between atoms: C2_2  and  C3_3
REMARK    3  A    between atoms: C2_2  and  N3_9
REMARK    4  A    between atoms: C9_12  and  N4_13
REMARK    5  A    between atoms: C10_14  and  C11_16
REMARK                            x       y       z     vdW  Elec       q    Type
REMARK                         _______ _______ _______ _____ _____    ______ ____
ROOT
ATOM      1  N3  UNL     1       9.957  12.864  28.622  0.00  0.00    -0.292 NA
ATOM      2  C7  UNL     1      10.493  14.165  28.184  0.00  0.00    +0.087 C 
ATOM      3  C8  UNL     1      11.704  14.489  29.054  0.00  0.00    +0.039 C 
ATOM      4  C9  UNL     1      11.766  13.377  30.090  0.00  0.00    +0.088 C 
ATOM      5  C18 UNL     1      10.393  12.729  30.017  0.00  0.00    +0.107 C 
ENDROOT
BRANCH   4   6
ATOM      6  N4  UNL     1      12.064  13.897  31.430  0.00  0.00    -0.306 N 
ATOM      7  C10 UNL     1      12.565  13.049  32.472  0.00  0.00    +0.262 C 
ATOM      8  O1  UNL     1      12.480  11.796  32.356  0.00  0.00    -0.269 OA
ATOM      9  H13 UNL     1      11.828  14.886  31.663  0.00  0.00    +0.149 HD
BRANCH   7  10
ATOM     10  C11 UNL     1      13.151  13.616  33.702  0.00  0.00    +0.124 A 
ATOM     11  C12 UNL     1      12.432  14.157  34.750  0.00  0.00    +0.143 A 
ATOM     12  N5  UNL     1      13.278  14.536  35.732  0.00  0.00    -0.240 NA
ATOM     13  C13 UNL     1      14.499  14.218  35.253  0.00  0.00    +0.110 A 
ATOM     14  N6  UNL     1      14.457  13.636  34.038  0.00  0.00    -0.324 N 
ATOM     15  C14 UNL     1      15.621  13.149  33.290  0.00  0.00    +0.124 C 
ATOM     16  C15 UNL     1      16.820  12.941  34.227  0.00  0.00    +0.022 C 
ATOM     17  C16 UNL     1      16.996  14.148  35.159  0.00  0.00    +0.009 C 
ATOM     18  C17 UNL     1      15.762  14.344  36.052  0.00  0.00    +0.074 C 
ENDBRANCH   7  10
ENDBRANCH   4   6
BRANCH   1  20
ATOM     19  C1  UNL     1       7.953  13.815  27.483  0.00  0.00    +0.031 C 
ATOM     20  C2  UNL     1       8.482  12.766  28.474  0.00  0.00    +0.104 C 
BRANCH  20  21
ATOM     21  C3  UNL     1       8.080  11.391  27.986  0.00  0.00    +0.076 A 
ATOM     22  C4  UNL     1       7.530  10.435  28.855  0.00  0.00    +0.135 A 
ATOM     23  N1  UNL     1       7.189   9.210  28.375  0.00  0.00    -0.260 NA
ATOM     24  C5  UNL     1       7.373   8.890  27.068  0.00  0.00    +0.130 A 
ATOM     25  C6  UNL     1       7.924   9.835  26.201  0.00  0.00    +0.131 A 
ATOM     26  N2  UNL     1       8.265  11.060  26.678  0.00  0.00    -0.255 NA
ENDBRANCH  20  21
ENDBRANCH   1  20
TORSDOF 4
ENDMDL
MODEL 8
REMARK VINA RESULT:    -6.156      6.338     11.690
REMARK INTER + INTRA:          -7.573
REMARK INTER:                  -6.913
REMARK INTRA:                  -0.660
REMARK UNBOUND:                 0.022
REMARK  Name = /home/qwerty/github/datacon2025hack/step_04_hit_selection/docking/ligands/lig_309.pdb
REMARK  5 active torsions:
REMARK  status: ('A' for Active; 'I' for Inactive)
REMARK    1  A    between atoms: C1_1  and  C2_2
REMARK    2  A    between atoms: C2_2  and  C3_3
REMARK    3  A    between atoms: C2_2  and  N3_9
REMARK    4  A    between atoms: C9_12  and  N4_13
REMARK    5  A    between atoms: C10_14  and  C11_16
REMARK                            x       y       z     vdW  Elec       q    Type
REMARK                         _______ _______ _______ _____ _____    ______ ____
ROOT
ATOM      1  N3  UNL     1      12.033   5.537  20.378  0.00  0.00    -0.292 NA
ATOM      2  C7  UNL     1      12.377   5.403  21.805  0.00  0.00    +0.087 C 
ATOM      3  C8  UNL     1      13.654   4.572  21.901  0.00  0.00    +0.039 C 
ATOM      4  C9  UNL     1      13.958   4.132  20.478  0.00  0.00    +0.088 C 
ATOM      5  C18 UNL     1      12.657   4.378  19.731  0.00  0.00    +0.107 C 
ENDROOT
BRANCH   4   6
ATOM      6  N4  UNL     1      14.375   2.726  20.419  0.00  0.00    -0.306 N 
ATOM      7  C10 UNL     1      15.748   2.341  20.577  0.00  0.00    +0.262 C 
ATOM      8  O1  UNL     1      16.658   3.207  20.472  0.00  0.00    -0.269 OA
ATOM      9  H13 UNL     1      13.677   1.991  20.173  0.00  0.00    +0.149 HD
BRANCH   7  10
ATOM     10  C11 UNL     1      16.122   0.935  20.827  0.00  0.00    +0.124 A 
ATOM     11  C12 UNL     1      16.305  -0.025  19.852  0.00  0.00    +0.143 A 
ATOM     12  N5  UNL     1      16.690  -1.186  20.425  0.00  0.00    -0.240 NA
ATOM     13  C13 UNL     1      16.727  -0.903  21.744  0.00  0.00    +0.110 A 
ATOM     14  N6  UNL     1      16.415   0.380  22.021  0.00  0.00    -0.324 N 
ATOM     15  C14 UNL     1      16.411   0.982  23.358  0.00  0.00    +0.124 C 
ATOM     16  C15 UNL     1      17.249   0.144  24.334  0.00  0.00    +0.022 C 
ATOM     17  C16 UNL     1      16.909  -1.348  24.198  0.00  0.00    +0.009 C 
ATOM     18  C17 UNL     1      17.224  -1.861  22.786  0.00  0.00    +0.074 C 
ENDBRANCH   7  10
ENDBRANCH   4   6
BRANCH   1  20
ATOM     19  C1  UNL     1       9.820   4.570  20.999  0.00  0.00    +0.031 C 
ATOM     20  C2  UNL     1      10.568   5.602  20.139  0.00  0.00    +0.104 C 
BRANCH  20  21
ATOM     21  C3  UNL     1      10.031   6.980  20.459  0.00  0.00    +0.076 A 
ATOM     22  C4  UNL     1       8.820   7.154  21.150  0.00  0.00    +0.135 A 
ATOM     23  N1  UNL     1       8.372   8.409  21.411  0.00  0.00    -0.260 NA
ATOM     24  C5  UNL     1       9.072   9.504  21.014  0.00  0.00    +0.130 A 
ATOM     25  C6  UNL     1      10.274   9.336  20.323  0.00  0.00    +0.131 A 
ATOM     26  N2  UNL     1      10.724   8.082  20.061  0.00  0.00    -0.255 NA
ENDBRANCH  20  21
ENDBRANCH   1  20
TORSDOF 4
ENDMDL
MODEL 9
REMARK VINA RESULT:    -6.108      4.486      9.461
REMARK INTER + INTRA:          -7.514
REMARK INTER:                  -7.331
REMARK INTRA:                  -0.183
REMARK UNBOUND:                 0.022
REMARK  Name = /home/qwerty/github/datacon2025hack/step_04_hit_selection/docking/ligands/lig_309.pdb
REMARK  5 active torsions:
REMARK  status: ('A' for Active; 'I' for Inactive)
REMARK    1  A    between atoms: C1_1  and  C2_2
REMARK    2  A    between atoms: C2_2  and  C3_3
REMARK    3  A    between atoms: C2_2  and  N3_9
REMARK    4  A    between atoms: C9_12  and  N4_13
REMARK    5  A    between atoms: C10_14  and  C11_16
REMARK                            x       y       z     vdW  Elec       q    Type
REMARK                         _______ _______ _______ _____ _____    ______ ____
ROOT
ATOM      1  N3  UNL     1      20.983   1.438  29.918  0.00  0.00    -0.292 NA
ATOM      2  C7  UNL     1      21.018   0.676  31.179  0.00  0.00    +0.087 C 
ATOM      3  C8  UNL     1      20.456   1.570  32.281  0.00  0.00    +0.039 C 
ATOM      4  C9  UNL     1      20.212   2.919  31.621  0.00  0.00    +0.088 C 
ATOM      5  C18 UNL     1      21.009   2.846  30.329  0.00  0.00    +0.107 C 
ENDROOT
BRANCH   4   6
ATOM      6  N4  UNL     1      20.643   4.030  32.478  0.00  0.00    -0.306 N 
ATOM      7  C10 UNL     1      22.030   4.300  32.721  0.00  0.00    +0.262 C 
ATOM      8  O1  UNL     1      22.896   3.422  32.454  0.00  0.00    -0.269 OA
ATOM      9  H13 UNL     1      19.929   4.590  32.993  0.00  0.00    +0.149 HD
BRANCH   7  10
ATOM     10  C11 UNL     1      22.466   5.579  33.315  0.00  0.00    +0.124 A 
ATOM     11  C12 UNL     1      22.797   5.769  34.643  0.00  0.00    +0.143 A 
ATOM     12  N5  UNL     1      23.199   7.044  34.832  0.00  0.00    -0.240 NA
ATOM     13  C13 UNL     1      23.098   7.604  33.608  0.00  0.00    +0.110 A 
ATOM     14  N6  UNL     1      22.683   6.739  32.661  0.00  0.00    -0.324 N 
ATOM     15  C14 UNL     1      22.519   7.053  31.238  0.00  0.00    +0.124 C 
ATOM     16  C15 UNL     1      23.315   8.312  30.865  0.00  0.00    +0.022 C 
ATOM     17  C16 UNL     1      23.082   9.426  31.896  0.00  0.00    +0.009 C 
ATOM     18  C17 UNL     1      23.556   8.997  33.292  0.00  0.00    +0.074 C 
ENDBRANCH   7  10
ENDBRANCH   4   6
BRANCH   1  20
ATOM     19  C1  UNL     1      22.301  -0.430  28.922  0.00  0.00    +0.031 C 
ATOM     20  C2  UNL     1      22.101   1.091  29.002  0.00  0.00    +0.104 C 
BRANCH  20  21
ATOM     21  C3  UNL     1      21.837   1.619  27.608  0.00  0.00    +0.076 A 
ATOM     22  C4  UNL     1      20.792   1.113  26.817  0.00  0.00    +0.135 A 
ATOM     23  N1  UNL     1      20.594   1.612  25.569  0.00  0.00    -0.260 NA
ATOM     24  C5  UNL     1      21.391   2.591  25.068  0.00  0.00    +0.130 A 
ATOM     25  C6  UNL     1      22.434   3.094  25.848  0.00  0.00    +0.131 A 
ATOM     26  N2  UNL     1      22.634   2.597  27.096  0.00  0.00    -0.255 NA
ENDBRANCH  20  21
ENDBRANCH   1  20
TORSDOF 4
ENDMDL
