REMARK  Name = /home/qwerty/github/datacon2025hack/step_04_hit_selection/docking/ligands/lig_510.pdb
REMARK  7 active torsions:
REMARK  status: ('A' for Active; 'I' for Inactive)
REMARK    1  A    between atoms: C1_1  and  O1_2
REMARK    2  A    between atoms: O1_2  and  C2_3
REMARK    3  A    between atoms: C6_7  and  N1_8
REMARK    4  A    between atoms: C7_9  and  C8_11
REMARK    5  A    between atoms: C11_14  and  C12_15
REMARK    6  A    between atoms: C12_15  and  C13_16
REMARK    7  A    between atoms: C16_20  and  O4_21
REMARK                            x       y       z     vdW  Elec       q    Type
REMARK                         _______ _______ _______ _____ _____    ______ ____
ROOT
ATOM      1  N1  UNL     1       0.654  -0.239  -0.261  0.00  0.00    -0.278 N 
ATOM      2  C7  UNL     1      -0.323  -0.904   0.560  0.00  0.00    +0.248 C 
ATOM      3  O2  UNL     1       0.048  -1.775   1.394  0.00  0.00    -0.270 OA
ATOM      4  H7  UNL     1       0.343   0.474  -0.957  0.00  0.00    +0.155 HD
ENDROOT
BRANCH   1   9
ATOM      5  C2  UNL     1       4.377   0.253  -0.126  0.00  0.00    +0.163 A 
ATOM      6  C3  UNL     1       4.812  -1.085  -0.159  0.00  0.00    +0.049 A 
ATOM      7  C4  UNL     1       3.884  -2.125  -0.210  0.00  0.00    +0.006 A 
ATOM      8  C5  UNL     1       2.518  -1.847  -0.231  0.00  0.00    +0.027 A 
ATOM      9  C6  UNL     1       2.061  -0.520  -0.188  0.00  0.00    +0.079 A 
ATOM     10  C16 UNL     1       3.001   0.534  -0.140  0.00  0.00    +0.180 A 
BRANCH   5  12
ATOM     11  C1  UNL     1       6.695   1.193  -0.056  0.00  0.00    +0.277 C 
ATOM     12  O1  UNL     1       5.278   1.329  -0.077  0.00  0.00    -0.491 OA
ENDBRANCH   5  12
BRANCH  10  13
ATOM     13  O4  UNL     1       2.592   1.869  -0.086  0.00  0.00    -0.502 OA
ATOM     14  H15 UNL     1       1.619   2.144  -0.034  0.00  0.00    +0.292 HD
ENDBRANCH  10  13
ENDBRANCH   1   9
BRANCH   2  15
ATOM     15  C8  UNL     1      -1.766  -0.583   0.447  0.00  0.00    +0.037 A 
ATOM     16  C9  UNL     1      -2.201   0.691   0.044  0.00  0.00    +0.014 A 
ATOM     17  C10 UNL     1      -3.566   0.979  -0.050  0.00  0.00    +0.012 A 
ATOM     18  C11 UNL     1      -4.530   0.002   0.262  0.00  0.00    +0.017 A 
ATOM     19  C14 UNL     1      -4.090  -1.268   0.678  0.00  0.00    +0.012 A 
ATOM     20  C15 UNL     1      -2.726  -1.554   0.774  0.00  0.00    +0.014 A 
BRANCH  18  21
ATOM     21  C12 UNL     1      -5.986   0.291   0.165  0.00  0.00    +0.160 C 
ATOM     22  C13 UNL     1      -6.501   1.628  -0.278  0.00  0.00    +0.091 C 
ATOM     23  O3  UNL     1      -6.824  -0.605   0.461  0.00  0.00    -0.292 OA
ENDBRANCH  18  21
ENDBRANCH   2  15
TORSDOF 5
