MODEL 1
REMARK VINA RESULT:    -6.000      0.000      0.000
REMARK INTER + INTRA:          -7.563
REMARK INTER:                  -7.052
REMARK INTRA:                  -0.511
REMARK UNBOUND:                -0.511
REMARK  Name = /home/qwerty/github/datacon2025hack/step_04_hit_selection/docking/ligands/lig_717.pdb
REMARK  6 active torsions:
REMARK  status: ('A' for Active; 'I' for Inactive)
REMARK    1  A    between atoms: C1_1  and  C2_2
REMARK    2  A    between atoms: C2_2  and  C3_3
REMARK    3  A    between atoms: C2_2  and  N1_4
REMARK    4  A    between atoms: C6_7  and  C7_8
REMARK    5  A    between atoms: N2_10  and  C8_11
REMARK    6  A    between atoms: N3_17  and  C14_18
REMARK                            x       y       z     vdW  Elec       q    Type
REMARK                         _______ _______ _______ _____ _____    ______ ____
ROOT
ATOM      1  C7  UNL     1      12.211   3.195  21.800  0.00  0.00    +0.220 C 
ATOM      2  O1  UNL     1      13.072   3.691  22.578  0.00  0.00    -0.275 OA
ATOM      3  N2  UNL     1      12.381   1.865  21.283  0.00  0.00    -0.285 N 
ATOM      4  H13 UNL     1      11.535   1.370  20.916  0.00  0.00    +0.155 HD
ENDROOT
BRANCH   3   5
ATOM      5  C8  UNL     1      13.616   1.131  21.343  0.00  0.00    +0.035 A 
ATOM      6  C9  UNL     1      14.563   1.194  20.291  0.00  0.00    +0.024 A 
ATOM      7  C10 UNL     1      15.753   0.450  20.357  0.00  0.00    +0.007 A 
ATOM      8  C11 UNL     1      15.973  -0.356  21.473  0.00  0.00    -0.025 A 
ATOM      9  C12 UNL     1      15.055  -0.438  22.481  0.00  0.00    +0.034 A 
ATOM     10  C13 UNL     1      13.861   0.288  22.445  0.00  0.00    +0.046 A 
ATOM     11  N3  UNL     1      15.487  -1.325  23.495  0.00  0.00    -0.332 N 
ATOM     12  C14 UNL     1      14.758  -1.650  24.715  0.00  0.00    +0.129 C 
ATOM     13  C15 UNL     1      16.792  -1.871  23.125  0.00  0.00    +0.109 C 
ATOM     14  C16 UNL     1      17.145  -1.233  21.758  0.00  0.00    +0.056 C 
ENDBRANCH   3   5
BRANCH   1  18
ATOM     15  N1  UNL     1       8.976   5.748  20.914  0.00  0.00    -0.300 NA
ATOM     16  C4  UNL     1       9.124   5.477  22.364  0.00  0.00    +0.085 C 
ATOM     17  C5  UNL     1      10.425   4.713  22.695  0.00  0.00    +0.028 C 
ATOM     18  C6  UNL     1      10.975   3.988  21.456  0.00  0.00    +0.078 C 
ATOM     19  C17 UNL     1      11.257   4.990  20.315  0.00  0.00    +0.028 C 
ATOM     20  C18 UNL     1      10.258   6.162  20.305  0.00  0.00    +0.085 C 
BRANCH  15  22
ATOM     21  C1  UNL     1       6.464   5.936  20.599  0.00  0.00    +0.024 C 
ATOM     22  C2  UNL     1       7.828   6.651  20.630  0.00  0.00    +0.050 C 
ATOM     23  C3  UNL     1       7.812   7.814  21.627  0.00  0.00    +0.024 C 
ENDBRANCH  15  22
ENDBRANCH   1  18
TORSDOF 3
ENDMDL
MODEL 2
REMARK VINA RESULT:    -5.899     17.000     17.805
REMARK INTER + INTRA:          -7.444
REMARK INTER:                  -6.933
REMARK INTRA:                  -0.511
REMARK UNBOUND:                -0.511
REMARK  Name = /home/qwerty/github/datacon2025hack/step_04_hit_selection/docking/ligands/lig_717.pdb
REMARK  6 active torsions:
REMARK  status: ('A' for Active; 'I' for Inactive)
REMARK    1  A    between atoms: C1_1  and  C2_2
REMARK    2  A    between atoms: C2_2  and  C3_3
REMARK    3  A    between atoms: C2_2  and  N1_4
REMARK    4  A    between atoms: C6_7  and  C7_8
REMARK    5  A    between atoms: N2_10  and  C8_11
REMARK    6  A    between atoms: N3_17  and  C14_18
REMARK                            x       y       z     vdW  Elec       q    Type
REMARK                         _______ _______ _______ _____ _____    ______ ____
ROOT
ATOM      1  C7  UNL     1      18.588  10.728  35.796  0.00  0.00    +0.220 C 
ATOM      2  O1  UNL     1      18.215   9.877  34.943  0.00  0.00    -0.275 OA
ATOM      3  N2  UNL     1      19.876  10.612  36.421  0.00  0.00    -0.285 N 
ATOM      4  H13 UNL     1      20.285  11.468  36.863  0.00  0.00    +0.155 HD
ENDROOT
BRANCH   3   5
ATOM      5  C8  UNL     1      20.688   9.426  36.375  0.00  0.00    +0.035 A 
ATOM      6  C9  UNL     1      20.593   8.430  37.378  0.00  0.00    +0.024 A 
ATOM      7  C10 UNL     1      21.412   7.289  37.329  0.00  0.00    +0.007 A 
ATOM      8  C11 UNL     1      22.324   7.168  36.282  0.00  0.00    -0.025 A 
ATOM      9  C12 UNL     1      22.435   8.135  35.323  0.00  0.00    +0.034 A 
ATOM     10  C13 UNL     1      21.637   9.282  35.344  0.00  0.00    +0.046 A 
ATOM     11  N3  UNL     1      23.431   7.803  34.375  0.00  0.00    -0.332 N 
ATOM     12  C14 UNL     1      23.815   8.605  33.220  0.00  0.00    +0.129 C 
ATOM     13  C15 UNL     1      24.024   6.516  34.739  0.00  0.00    +0.109 C 
ATOM     14  C16 UNL     1      23.293   6.064  36.028  0.00  0.00    +0.056 C 
ENDBRANCH   3   5
BRANCH   1  18
ATOM     15  N1  UNL     1      15.778  13.780  36.545  0.00  0.00    -0.300 NA
ATOM     16  C4  UNL     1      16.292  13.790  35.154  0.00  0.00    +0.085 C 
ATOM     17  C5  UNL     1      17.159  12.552  34.834  0.00  0.00    +0.028 C 
ATOM     18  C6  UNL     1      17.693  11.899  36.118  0.00  0.00    +0.078 C 
ATOM     19  C17 UNL     1      16.529  11.472  37.040  0.00  0.00    +0.028 C 
ATOM     20  C18 UNL     1      15.328  12.431  36.948  0.00  0.00    +0.085 C 
BRANCH  15  22
ATOM     21  C1  UNL     1      15.402  16.279  36.784  0.00  0.00    +0.024 C 
ATOM     22  C2  UNL     1      14.789  14.866  36.782  0.00  0.00    +0.050 C 
ATOM     23  C3  UNL     1      13.645  14.769  35.767  0.00  0.00    +0.024 C 
ENDBRANCH  15  22
ENDBRANCH   1  18
TORSDOF 3
ENDMDL
MODEL 3
REMARK VINA RESULT:    -5.796      8.122     11.903
REMARK INTER + INTRA:          -7.324
REMARK INTER:                  -6.780
REMARK INTRA:                  -0.543
REMARK UNBOUND:                -0.511
REMARK  Name = /home/qwerty/github/datacon2025hack/step_04_hit_selection/docking/ligands/lig_717.pdb
REMARK  6 active torsions:
REMARK  status: ('A' for Active; 'I' for Inactive)
REMARK    1  A    between atoms: C1_1  and  C2_2
REMARK    2  A    between atoms: C2_2  and  C3_3
REMARK    3  A    between atoms: C2_2  and  N1_4
REMARK    4  A    between atoms: C6_7  and  C7_8
REMARK    5  A    between atoms: N2_10  and  C8_11
REMARK    6  A    between atoms: N3_17  and  C14_18
REMARK                            x       y       z     vdW  Elec       q    Type
REMARK                         _______ _______ _______ _____ _____    ______ ____
ROOT
ATOM      1  C7  UNL     1      21.233   4.081  24.551  0.00  0.00    +0.220 C 
ATOM      2  O1  UNL     1      21.021   5.280  24.881  0.00  0.00    -0.275 OA
ATOM      3  N2  UNL     1      21.089   3.669  23.182  0.00  0.00    -0.285 N 
ATOM      4  H13 UNL     1      21.563   2.785  22.884  0.00  0.00    +0.155 HD
ENDROOT
BRANCH   3   5
ATOM      5  C8  UNL     1      20.432   4.453  22.172  0.00  0.00    +0.035 A 
ATOM      6  C9  UNL     1      19.020   4.469  22.054  0.00  0.00    +0.024 A 
ATOM      7  C10 UNL     1      18.398   5.223  21.045  0.00  0.00    +0.007 A 
ATOM      8  C11 UNL     1      19.199   5.941  20.159  0.00  0.00    -0.025 A 
ATOM      9  C12 UNL     1      20.562   5.912  20.254  0.00  0.00    +0.034 A 
ATOM     10  C13 UNL     1      21.212   5.172  21.244  0.00  0.00    +0.046 A 
ATOM     11  N3  UNL     1      21.161   6.701  19.243  0.00  0.00    -0.332 N 
ATOM     12  C14 UNL     1      22.592   6.897  19.046  0.00  0.00    +0.129 C 
ATOM     13  C15 UNL     1      20.110   7.295  18.417  0.00  0.00    +0.109 C 
ATOM     14  C16 UNL     1      18.770   6.795  19.015  0.00  0.00    +0.056 C 
ENDBRANCH   3   5
BRANCH   1  18
ATOM     15  N1  UNL     1      22.127   1.334  27.622  0.00  0.00    -0.300 NA
ATOM     16  C4  UNL     1      22.236   2.748  28.055  0.00  0.00    +0.085 C 
ATOM     17  C5  UNL     1      21.711   3.737  26.990  0.00  0.00    +0.028 C 
ATOM     18  C6  UNL     1      21.688   3.092  25.595  0.00  0.00    +0.078 C 
ATOM     19  C17 UNL     1      20.799   1.829  25.590  0.00  0.00    +0.028 C 
ATOM     20  C18 UNL     1      20.846   1.075  26.932  0.00  0.00    +0.085 C 
BRANCH  15  22
ATOM     21  C1  UNL     1      23.883   0.524  29.267  0.00  0.00    +0.024 C 
ATOM     22  C2  UNL     1      22.448   0.387  28.723  0.00  0.00    +0.050 C 
ATOM     23  C3  UNL     1      21.421   0.524  29.853  0.00  0.00    +0.024 C 
ENDBRANCH  15  22
ENDBRANCH   1  18
TORSDOF 3
ENDMDL
MODEL 4
REMARK VINA RESULT:    -5.760      7.121     11.403
REMARK INTER + INTRA:          -7.281
REMARK INTER:                  -6.720
REMARK INTRA:                  -0.560
REMARK UNBOUND:                -0.511
REMARK  Name = /home/qwerty/github/datacon2025hack/step_04_hit_selection/docking/ligands/lig_717.pdb
REMARK  6 active torsions:
REMARK  status: ('A' for Active; 'I' for Inactive)
REMARK    1  A    between atoms: C1_1  and  C2_2
REMARK    2  A    between atoms: C2_2  and  C3_3
REMARK    3  A    between atoms: C2_2  and  N1_4
REMARK    4  A    between atoms: C6_7  and  C7_8
REMARK    5  A    between atoms: N2_10  and  C8_11
REMARK    6  A    between atoms: N3_17  and  C14_18
REMARK                            x       y       z     vdW  Elec       q    Type
REMARK                         _______ _______ _______ _____ _____    ______ ____
ROOT
ATOM      1  C7  UNL     1      21.198   4.032  24.481  0.00  0.00    +0.220 C 
ATOM      2  O1  UNL     1      20.999   5.237  24.797  0.00  0.00    -0.275 OA
ATOM      3  N2  UNL     1      21.032   3.602  23.120  0.00  0.00    -0.285 N 
ATOM      4  H13 UNL     1      21.496   2.711  22.828  0.00  0.00    +0.155 HD
ENDROOT
BRANCH   3   5
ATOM      5  C8  UNL     1      20.367   4.377  22.108  0.00  0.00    +0.035 A 
ATOM      6  C9  UNL     1      21.091   5.218  21.228  0.00  0.00    +0.024 A 
ATOM      7  C10 UNL     1      20.420   5.986  20.261  0.00  0.00    +0.007 A 
ATOM      8  C11 UNL     1      19.030   5.910  20.198  0.00  0.00    -0.025 A 
ATOM      9  C12 UNL     1      18.323   5.117  21.058  0.00  0.00    +0.034 A 
ATOM     10  C13 UNL     1      18.960   4.343  22.031  0.00  0.00    +0.046 A 
ATOM     11  N3  UNL     1      16.933   5.213  20.815  0.00  0.00    -0.332 N 
ATOM     12  C14 UNL     1      15.887   4.505  21.543  0.00  0.00    +0.129 C 
ATOM     13  C15 UNL     1      16.705   6.143  19.709  0.00  0.00    +0.109 C 
ATOM     14  C16 UNL     1      18.110   6.631  19.273  0.00  0.00    +0.056 C 
ENDBRANCH   3   5
BRANCH   1  18
ATOM     15  N1  UNL     1      22.124   1.344  27.593  0.00  0.00    -0.300 NA
ATOM     16  C4  UNL     1      22.342   2.763  27.965  0.00  0.00    +0.085 C 
ATOM     17  C5  UNL     1      21.808   3.744  26.897  0.00  0.00    +0.028 C 
ATOM     18  C6  UNL     1      21.661   3.054  25.532  0.00  0.00    +0.078 C 
ATOM     19  C17 UNL     1      20.702   1.847  25.629  0.00  0.00    +0.028 C 
ATOM     20  C18 UNL     1      20.790   1.138  26.993  0.00  0.00    +0.085 C 
BRANCH  15  22
ATOM     21  C1  UNL     1      23.890   0.589  29.255  0.00  0.00    +0.024 C 
ATOM     22  C2  UNL     1      22.459   0.418  28.708  0.00  0.00    +0.050 C 
ATOM     23  C3  UNL     1      21.427   0.551  29.833  0.00  0.00    +0.024 C 
ENDBRANCH  15  22
ENDBRANCH   1  18
TORSDOF 3
ENDMDL
MODEL 5
REMARK VINA RESULT:    -5.750      5.451     10.124
REMARK INTER + INTRA:          -7.269
REMARK INTER:                  -6.744
REMARK INTRA:                  -0.525
REMARK UNBOUND:                -0.511
REMARK  Name = /home/qwerty/github/datacon2025hack/step_04_hit_selection/docking/ligands/lig_717.pdb
REMARK  6 active torsions:
REMARK  status: ('A' for Active; 'I' for Inactive)
REMARK    1  A    between atoms: C1_1  and  C2_2
REMARK    2  A    between atoms: C2_2  and  C3_3
REMARK    3  A    between atoms: C2_2  and  N1_4
REMARK    4  A    between atoms: C6_7  and  C7_8
REMARK    5  A    between atoms: N2_10  and  C8_11
REMARK    6  A    between atoms: N3_17  and  C14_18
REMARK                            x       y       z     vdW  Elec       q    Type
REMARK                         _______ _______ _______ _____ _____    ______ ____
ROOT
ATOM      1  C7  UNL     1      19.291   0.596  25.044  0.00  0.00    +0.220 C 
ATOM      2  O1  UNL     1      20.026   1.002  24.103  0.00  0.00    -0.275 OA
ATOM      3  N2  UNL     1      18.023  -0.018  24.761  0.00  0.00    -0.285 N 
ATOM      4  H13 UNL     1      17.592  -0.617  25.502  0.00  0.00    +0.155 HD
ENDROOT
BRANCH   3   5
ATOM      5  C8  UNL     1      17.367   0.046  23.483  0.00  0.00    +0.035 A 
ATOM      6  C9  UNL     1      17.344  -1.069  22.609  0.00  0.00    +0.024 A 
ATOM      7  C10 UNL     1      16.718  -0.979  21.355  0.00  0.00    +0.007 A 
ATOM      8  C11 UNL     1      16.134   0.232  20.987  0.00  0.00    -0.025 A 
ATOM      9  C12 UNL     1      16.171   1.318  21.816  0.00  0.00    +0.034 A 
ATOM     10  C13 UNL     1      16.787   1.261  23.069  0.00  0.00    +0.046 A 
ATOM     11  N3  UNL     1      15.530   2.433  21.227  0.00  0.00    -0.332 N 
ATOM     12  C14 UNL     1      15.384   3.752  21.828  0.00  0.00    +0.129 C 
ATOM     13  C15 UNL     1      15.032   2.052  19.905  0.00  0.00    +0.109 C 
ATOM     14  C16 UNL     1      15.429   0.566  19.716  0.00  0.00    +0.056 C 
ENDBRANCH   3   5
BRANCH   1  18
ATOM     15  N1  UNL     1      20.541   1.316  29.005  0.00  0.00    -0.300 NA
ATOM     16  C4  UNL     1      21.575   1.653  27.997  0.00  0.00    +0.085 C 
ATOM     17  C5  UNL     1      21.039   1.581  26.550  0.00  0.00    +0.028 C 
ATOM     18  C6  UNL     1      19.774   0.712  26.468  0.00  0.00    +0.078 C 
ATOM     19  C17 UNL     1      18.665   1.270  27.387  0.00  0.00    +0.028 C 
ATOM     20  C18 UNL     1      19.235   1.916  28.664  0.00  0.00    +0.085 C 
BRANCH  15  22
ATOM     21  C1  UNL     1      20.557   0.518  31.415  0.00  0.00    +0.024 C 
ATOM     22  C2  UNL     1      21.008   1.579  30.392  0.00  0.00    +0.050 C 
ATOM     23  C3  UNL     1      22.531   1.744  30.415  0.00  0.00    +0.024 C 
ENDBRANCH  15  22
ENDBRANCH   1  18
TORSDOF 3
ENDMDL
MODEL 6
REMARK VINA RESULT:    -5.702     12.452     15.895
REMARK INTER + INTRA:          -7.212
REMARK INTER:                  -6.669
REMARK INTRA:                  -0.544
REMARK UNBOUND:                -0.511
REMARK  Name = /home/qwerty/github/datacon2025hack/step_04_hit_selection/docking/ligands/lig_717.pdb
REMARK  6 active torsions:
REMARK  status: ('A' for Active; 'I' for Inactive)
REMARK    1  A    between atoms: C1_1  and  C2_2
REMARK    2  A    between atoms: C2_2  and  C3_3
REMARK    3  A    between atoms: C2_2  and  N1_4
REMARK    4  A    between atoms: C6_7  and  C7_8
REMARK    5  A    between atoms: N2_10  and  C8_11
REMARK    6  A    between atoms: N3_17  and  C14_18
REMARK                            x       y       z     vdW  Elec       q    Type
REMARK                         _______ _______ _______ _____ _____    ______ ____
ROOT
ATOM      1  C7  UNL     1      18.904   1.329  33.406  0.00  0.00    +0.220 C 
ATOM      2  O1  UNL     1      17.676   1.207  33.144  0.00  0.00    -0.275 OA
ATOM      3  N2  UNL     1      19.330   1.731  34.718  0.00  0.00    -0.285 N 
ATOM      4  H13 UNL     1      20.315   1.521  35.000  0.00  0.00    +0.155 HD
ENDROOT
BRANCH   3   5
ATOM      5  C8  UNL     1      18.455   2.299  35.707  0.00  0.00    +0.035 A 
ATOM      6  C9  UNL     1      17.723   1.481  36.602  0.00  0.00    +0.024 A 
ATOM      7  C10 UNL     1      16.855   2.055  37.546  0.00  0.00    +0.007 A 
ATOM      8  C11 UNL     1      16.721   3.442  37.572  0.00  0.00    -0.025 A 
ATOM      9  C12 UNL     1      17.407   4.236  36.697  0.00  0.00    +0.034 A 
ATOM     10  C13 UNL     1      18.278   3.697  35.746  0.00  0.00    +0.046 A 
ATOM     11  N3  UNL     1      17.103   5.603  36.901  0.00  0.00    -0.332 N 
ATOM     12  C14 UNL     1      17.653   6.723  36.148  0.00  0.00    +0.129 C 
ATOM     13  C15 UNL     1      16.139   5.718  37.995  0.00  0.00    +0.109 C 
ATOM     14  C16 UNL     1      15.862   4.268  38.467  0.00  0.00    +0.056 C 
ENDBRANCH   3   5
BRANCH   1  18
ATOM     15  N1  UNL     1      21.714   0.790  30.310  0.00  0.00    -0.300 NA
ATOM     16  C4  UNL     1      20.314   0.583  29.868  0.00  0.00    +0.085 C 
ATOM     17  C5  UNL     1      19.286   0.982  30.951  0.00  0.00    +0.028 C 
ATOM     18  C6  UNL     1      19.927   0.999  32.347  0.00  0.00    +0.078 C 
ATOM     19  C17 UNL     1      21.113   1.988  32.393  0.00  0.00    +0.028 C 
ATOM     20  C18 UNL     1      21.868   2.058  31.053  0.00  0.00    +0.085 C 
BRANCH  15  22
ATOM     21  C1  UNL     1      24.140   0.936  29.572  0.00  0.00    +0.024 C 
ATOM     22  C2  UNL     1      22.684   0.594  29.199  0.00  0.00    +0.050 C 
ATOM     23  C3  UNL     1      22.583  -0.835  28.657  0.00  0.00    +0.024 C 
ENDBRANCH  15  22
ENDBRANCH   1  18
TORSDOF 3
ENDMDL
MODEL 7
REMARK VINA RESULT:    -5.655      1.544      2.505
REMARK INTER + INTRA:          -7.157
REMARK INTER:                  -6.708
REMARK INTRA:                  -0.449
REMARK UNBOUND:                -0.511
REMARK  Name = /home/qwerty/github/datacon2025hack/step_04_hit_selection/docking/ligands/lig_717.pdb
REMARK  6 active torsions:
REMARK  status: ('A' for Active; 'I' for Inactive)
REMARK    1  A    between atoms: C1_1  and  C2_2
REMARK    2  A    between atoms: C2_2  and  C3_3
REMARK    3  A    between atoms: C2_2  and  N1_4
REMARK    4  A    between atoms: C6_7  and  C7_8
REMARK    5  A    between atoms: N2_10  and  C8_11
REMARK    6  A    between atoms: N3_17  and  C14_18
REMARK                            x       y       z     vdW  Elec       q    Type
REMARK                         _______ _______ _______ _____ _____    ______ ____
ROOT
ATOM      1  C7  UNL     1      10.795   1.436  22.349  0.00  0.00    +0.220 C 
ATOM      2  O1  UNL     1      10.261   0.307  22.526  0.00  0.00    -0.275 OA
ATOM      3  N2  UNL     1      12.210   1.607  22.537  0.00  0.00    -0.285 N 
ATOM      4  H13 UNL     1      12.667   2.435  22.090  0.00  0.00    +0.155 HD
ENDROOT
BRANCH   3   5
ATOM      5  C8  UNL     1      13.052   0.653  23.205  0.00  0.00    +0.035 A 
ATOM      6  C9  UNL     1      12.810   0.265  24.546  0.00  0.00    +0.024 A 
ATOM      7  C10 UNL     1      13.659  -0.651  25.188  0.00  0.00    +0.007 A 
ATOM      8  C11 UNL     1      14.749  -1.157  24.482  0.00  0.00    -0.025 A 
ATOM      9  C12 UNL     1      15.001  -0.772  23.196  0.00  0.00    +0.034 A 
ATOM     10  C13 UNL     1      14.177   0.138  22.529  0.00  0.00    +0.046 A 
ATOM     11  N3  UNL     1      16.163  -1.403  22.692  0.00  0.00    -0.332 N 
ATOM     12  C14 UNL     1      16.724  -1.224  21.359  0.00  0.00    +0.129 C 
ATOM     13  C15 UNL     1      16.720  -2.272  23.728  0.00  0.00    +0.109 C 
ATOM     14  C16 UNL     1      15.782  -2.123  24.953  0.00  0.00    +0.056 C 
ENDBRANCH   3   5
BRANCH   1  18
ATOM     15  N1  UNL     1       8.692   4.920  21.249  0.00  0.00    -0.300 NA
ATOM     16  C4  UNL     1       8.340   4.430  22.603  0.00  0.00    +0.085 C 
ATOM     17  C5  UNL     1       9.259   3.281  23.076  0.00  0.00    +0.028 C 
ATOM     18  C6  UNL     1       9.948   2.595  21.886  0.00  0.00    +0.078 C 
ATOM     19  C17 UNL     1      10.788   3.610  21.080  0.00  0.00    +0.028 C 
ATOM     20  C18 UNL     1      10.155   5.015  21.069  0.00  0.00    +0.085 C 
BRANCH  15  22
ATOM     21  C1  UNL     1       6.427   5.915  20.677  0.00  0.00    +0.024 C 
ATOM     22  C2  UNL     1       7.936   6.148  20.887  0.00  0.00    +0.050 C 
ATOM     23  C3  UNL     1       8.178   7.244  21.930  0.00  0.00    +0.024 C 
ENDBRANCH  15  22
ENDBRANCH   1  18
TORSDOF 3
ENDMDL
MODEL 8
REMARK VINA RESULT:    -5.510     16.390     18.978
REMARK INTER + INTRA:          -6.987
REMARK INTER:                  -6.394
REMARK INTRA:                  -0.593
REMARK UNBOUND:                -0.511
REMARK  Name = /home/qwerty/github/datacon2025hack/step_04_hit_selection/docking/ligands/lig_717.pdb
REMARK  6 active torsions:
REMARK  status: ('A' for Active; 'I' for Inactive)
REMARK    1  A    between atoms: C1_1  and  C2_2
REMARK    2  A    between atoms: C2_2  and  C3_3
REMARK    3  A    between atoms: C2_2  and  N1_4
REMARK    4  A    between atoms: C6_7  and  C7_8
REMARK    5  A    between atoms: N2_10  and  C8_11
REMARK    6  A    between atoms: N3_17  and  C14_18
REMARK                            x       y       z     vdW  Elec       q    Type
REMARK                         _______ _______ _______ _____ _____    ______ ____
ROOT
ATOM      1  C7  UNL     1      18.165  10.056  37.425  0.00  0.00    +0.220 C 
ATOM      2  O1  UNL     1      17.706   9.958  38.596  0.00  0.00    -0.275 OA
ATOM      3  N2  UNL     1      17.425  10.757  36.413  0.00  0.00    -0.285 N 
ATOM      4  H13 UNL     1      17.945  11.095  35.571  0.00  0.00    +0.155 HD
ENDROOT
BRANCH   3   5
ATOM      5  C8  UNL     1      16.040  11.123  36.538  0.00  0.00    +0.035 A 
ATOM      6  C9  UNL     1      15.655  12.395  37.029  0.00  0.00    +0.024 A 
ATOM      7  C10 UNL     1      14.296  12.725  37.166  0.00  0.00    +0.007 A 
ATOM      8  C11 UNL     1      13.340  11.770  36.823  0.00  0.00    -0.025 A 
ATOM      9  C12 UNL     1      13.705  10.533  36.370  0.00  0.00    +0.034 A 
ATOM     10  C13 UNL     1      15.047  10.174  36.222  0.00  0.00    +0.046 A 
ATOM     11  N3  UNL     1      12.570   9.733  36.100  0.00  0.00    -0.332 N 
ATOM     12  C14 UNL     1      12.588   8.363  35.603  0.00  0.00    +0.129 C 
ATOM     13  C15 UNL     1      11.363  10.503  36.400  0.00  0.00    +0.109 C 
ATOM     14  C16 UNL     1      11.856  11.886  36.893  0.00  0.00    +0.056 C 
ENDBRANCH   3   5
BRANCH   1  18
ATOM     15  N1  UNL     1      21.815   8.374  36.154  0.00  0.00    -0.300 NA
ATOM     16  C4  UNL     1      20.816   7.357  36.560  0.00  0.00    +0.085 C 
ATOM     17  C5  UNL     1      19.422   7.969  36.826  0.00  0.00    +0.028 C 
ATOM     18  C6  UNL     1      19.520   9.477  37.106  0.00  0.00    +0.078 C 
ATOM     19  C17 UNL     1      20.174  10.214  35.916  0.00  0.00    +0.028 C 
ATOM     20  C18 UNL     1      21.241   9.355  35.210  0.00  0.00    +0.085 C 
BRANCH  15  22
ATOM     21  C1  UNL     1      23.310   6.323  36.239  0.00  0.00    +0.024 C 
ATOM     22  C2  UNL     1      23.093   7.754  35.711  0.00  0.00    +0.050 C 
ATOM     23  C3  UNL     1      23.197   7.793  34.183  0.00  0.00    +0.024 C 
ENDBRANCH  15  22
ENDBRANCH   1  18
TORSDOF 3
ENDMDL
MODEL 9
REMARK VINA RESULT:    -5.417      8.995     12.203
REMARK INTER + INTRA:          -6.877
REMARK INTER:                  -6.461
REMARK INTRA:                  -0.417
REMARK UNBOUND:                -0.511
REMARK  Name = /home/qwerty/github/datacon2025hack/step_04_hit_selection/docking/ligands/lig_717.pdb
REMARK  6 active torsions:
REMARK  status: ('A' for Active; 'I' for Inactive)
REMARK    1  A    between atoms: C1_1  and  C2_2
REMARK    2  A    between atoms: C2_2  and  C3_3
REMARK    3  A    between atoms: C2_2  and  N1_4
REMARK    4  A    between atoms: C6_7  and  C7_8
REMARK    5  A    between atoms: N2_10  and  C8_11
REMARK    6  A    between atoms: N3_17  and  C14_18
REMARK                            x       y       z     vdW  Elec       q    Type
REMARK                         _______ _______ _______ _____ _____    ______ ____
ROOT
ATOM      1  C7  UNL     1      20.919   3.323  24.702  0.00  0.00    +0.220 C 
ATOM      2  O1  UNL     1      20.856   2.447  23.797  0.00  0.00    -0.275 OA
ATOM      3  N2  UNL     1      20.778   4.715  24.376  0.00  0.00    -0.285 N 
ATOM      4  H13 UNL     1      20.518   5.374  25.145  0.00  0.00    +0.155 HD
ENDROOT
BRANCH   3   5
ATOM      5  C8  UNL     1      20.859   5.239  23.040  0.00  0.00    +0.035 A 
ATOM      6  C9  UNL     1      19.815   5.035  22.103  0.00  0.00    +0.024 A 
ATOM      7  C10 UNL     1      19.924   5.535  20.795  0.00  0.00    +0.007 A 
ATOM      8  C11 UNL     1      21.084   6.222  20.438  0.00  0.00    -0.025 A 
ATOM      9  C12 UNL     1      22.103   6.402  21.329  0.00  0.00    +0.034 A 
ATOM     10  C13 UNL     1      22.026   5.917  22.637  0.00  0.00    +0.046 A 
ATOM     11  N3  UNL     1      23.177   7.111  20.741  0.00  0.00    -0.332 N 
ATOM     12  C14 UNL     1      24.424   7.478  21.401  0.00  0.00    +0.129 C 
ATOM     13  C15 UNL     1      22.839   7.420  19.352  0.00  0.00    +0.109 C 
ATOM     14  C16 UNL     1      21.426   6.827  19.119  0.00  0.00    +0.056 C 
ENDBRANCH   3   5
BRANCH   1  18
ATOM     15  N1  UNL     1      21.691   1.874  28.585  0.00  0.00    -0.300 NA
ATOM     16  C4  UNL     1      20.755   1.017  27.819  0.00  0.00    +0.085 C 
ATOM     17  C5  UNL     1      20.640   1.441  26.338  0.00  0.00    +0.028 C 
ATOM     18  C6  UNL     1      21.091   2.896  26.139  0.00  0.00    +0.078 C 
ATOM     19  C17 UNL     1      22.552   3.085  26.603  0.00  0.00    +0.028 C 
ATOM     20  C18 UNL     1      22.905   2.187  27.804  0.00  0.00    +0.085 C 
BRANCH  15  22
ATOM     21  C1  UNL     1      22.148   2.431  31.020  0.00  0.00    +0.024 C 
ATOM     22  C2  UNL     1      21.945   1.341  29.950  0.00  0.00    +0.050 C 
ATOM     23  C3  UNL     1      20.825   0.379  30.359  0.00  0.00    +0.024 C 
ENDBRANCH  15  22
ENDBRANCH   1  18
TORSDOF 3
ENDMDL
