MODEL 1
REMARK VINA RESULT:    -6.180      0.000      0.000
REMARK INTER + INTRA:          -7.295
REMARK INTER:                  -6.902
REMARK INTRA:                  -0.393
REMARK UNBOUND:                -0.393
REMARK  Name = /home/qwerty/github/datacon2025hack/step_04_hit_selection/docking/ligands/lig_108.pdb
REMARK  3 active torsions:
REMARK  status: ('A' for Active; 'I' for Inactive)
REMARK    1  A    between atoms: C1_1  and  C2_2
REMARK    2  A    between atoms: C7_9  and  C8_11
REMARK    3  A    between atoms: C11_14  and  N3_15
REMARK                            x       y       z     vdW  Elec       q    Type
REMARK                         _______ _______ _______ _____ _____    ______ ____
ROOT
ATOM      1  C1  UNL     1      16.048   2.327  20.495  0.00  0.00    +0.045 C 
ATOM      2  C2  UNL     1      16.302   1.131  21.362  0.00  0.00    -0.031 A 
ATOM      3  C3  UNL     1      15.807  -0.142  20.994  0.00  0.00    +0.114 A 
ATOM      4  N1  UNL     1      16.056  -1.232  21.776  0.00  0.00    -0.258 NA
ATOM      5  C4  UNL     1      16.801  -1.100  22.903  0.00  0.00    +0.064 A 
ATOM      6  C5  UNL     1      17.325   0.100  23.280  0.00  0.00    +0.058 A 
ATOM      7  C6  UNL     1      17.084   1.250  22.527  0.00  0.00    +0.030 A 
ATOM      8  N2  UNL     1      18.052  -0.012  24.493  0.00  0.00    -0.265 N 
ATOM      9  C7  UNL     1      19.032   0.929  24.965  0.00  0.00    +0.251 C 
ATOM     10  O1  UNL     1      19.645   1.656  24.138  0.00  0.00    -0.270 OA
ATOM     11  C18 UNL     1      17.991  -1.412  24.932  0.00  0.00    +0.120 C 
ATOM     12  C19 UNL     1      17.152  -2.168  23.870  0.00  0.00    +0.076 C 
ENDROOT
BRANCH   9  13
ATOM     13  C8  UNL     1      19.360   1.033  26.403  0.00  0.00    +0.037 A 
ATOM     14  C9  UNL     1      20.694   0.942  26.832  0.00  0.00    +0.015 A 
ATOM     15  C10 UNL     1      21.011   1.047  28.188  0.00  0.00    +0.024 A 
ATOM     16  C11 UNL     1      20.000   1.253  29.142  0.00  0.00    +0.030 A 
ATOM     17  C16 UNL     1      18.670   1.366  28.711  0.00  0.00    +0.024 A 
ATOM     18  C17 UNL     1      18.352   1.262  27.354  0.00  0.00    +0.015 A 
BRANCH  16  19
ATOM     19  N3  UNL     1      20.321   1.359  30.543  0.00  0.00    -0.326 N 
ATOM     20  C12 UNL     1      21.607   1.920  30.968  0.00  0.00    +0.133 C 
ATOM     21  C13 UNL     1      21.469   2.527  32.367  0.00  0.00    +0.178 C 
ATOM     22  O2  UNL     1      20.909   1.592  33.270  0.00  0.00    -0.377 OA
ATOM     23  C14 UNL     1      19.583   1.287  32.880  0.00  0.00    +0.178 C 
ATOM     24  C15 UNL     1      19.565   0.574  31.525  0.00  0.00    +0.133 C 
ENDBRANCH  16  19
ENDBRANCH   9  13
TORSDOF 2
ENDMDL
MODEL 2
REMARK VINA RESULT:    -6.115      6.203      9.498
REMARK INTER + INTRA:          -7.223
REMARK INTER:                  -6.935
REMARK INTRA:                  -0.288
REMARK UNBOUND:                -0.393
REMARK  Name = /home/qwerty/github/datacon2025hack/step_04_hit_selection/docking/ligands/lig_108.pdb
REMARK  3 active torsions:
REMARK  status: ('A' for Active; 'I' for Inactive)
REMARK    1  A    between atoms: C1_1  and  C2_2
REMARK    2  A    between atoms: C7_9  and  C8_11
REMARK    3  A    between atoms: C11_14  and  N3_15
REMARK                            x       y       z     vdW  Elec       q    Type
REMARK                         _______ _______ _______ _____ _____    ______ ____
ROOT
ATOM      1  C1  UNL     1      22.953   1.782  28.079  0.00  0.00    +0.045 C 
ATOM      2  C2  UNL     1      22.171   1.524  29.332  0.00  0.00    -0.031 A 
ATOM      3  C3  UNL     1      21.523   0.284  29.533  0.00  0.00    +0.114 A 
ATOM      4  N1  UNL     1      20.829   0.046  30.684  0.00  0.00    -0.258 NA
ATOM      5  C4  UNL     1      20.776   0.997  31.651  0.00  0.00    +0.064 A 
ATOM      6  C5  UNL     1      21.411   2.195  31.514  0.00  0.00    +0.058 A 
ATOM      7  C6  UNL     1      22.119   2.496  30.350  0.00  0.00    +0.030 A 
ATOM      8  N2  UNL     1      21.201   3.023  32.647  0.00  0.00    -0.265 N 
ATOM      9  C7  UNL     1      22.010   4.155  33.011  0.00  0.00    +0.251 C 
ATOM     10  O1  UNL     1      23.209   4.212  32.627  0.00  0.00    -0.270 OA
ATOM     11  C18 UNL     1      20.357   2.287  33.597  0.00  0.00    +0.120 C 
ATOM     12  C19 UNL     1      20.059   0.913  32.946  0.00  0.00    +0.076 C 
ENDROOT
BRANCH   9  13
ATOM     13  C8  UNL     1      21.468   5.239  33.858  0.00  0.00    +0.037 A 
ATOM     14  C9  UNL     1      20.168   5.724  33.640  0.00  0.00    +0.015 A 
ATOM     15  C10 UNL     1      19.648   6.743  34.441  0.00  0.00    +0.024 A 
ATOM     16  C11 UNL     1      20.415   7.292  35.482  0.00  0.00    +0.030 A 
ATOM     17  C16 UNL     1      21.705   6.792  35.714  0.00  0.00    +0.024 A 
ATOM     18  C17 UNL     1      22.226   5.772  34.913  0.00  0.00    +0.015 A 
BRANCH  16  19
ATOM     19  N3  UNL     1      19.885   8.345  36.310  0.00  0.00    -0.326 N 
ATOM     20  C12 UNL     1      20.263   9.740  36.065  0.00  0.00    +0.133 C 
ATOM     21  C13 UNL     1      19.153  10.673  36.561  0.00  0.00    +0.178 C 
ATOM     22  O2  UNL     1      18.815  10.382  37.905  0.00  0.00    -0.377 OA
ATOM     23  C14 UNL     1      18.257   9.085  37.988  0.00  0.00    +0.178 C 
ATOM     24  C15 UNL     1      19.293   8.021  37.612  0.00  0.00    +0.133 C 
ENDBRANCH  16  19
ENDBRANCH   9  13
TORSDOF 2
ENDMDL
MODEL 3
REMARK VINA RESULT:    -6.004     11.939     14.840
REMARK INTER + INTRA:          -7.099
REMARK INTER:                  -6.742
REMARK INTRA:                  -0.357
REMARK UNBOUND:                -0.393
REMARK  Name = /home/qwerty/github/datacon2025hack/step_04_hit_selection/docking/ligands/lig_108.pdb
REMARK  3 active torsions:
REMARK  status: ('A' for Active; 'I' for Inactive)
REMARK    1  A    between atoms: C1_1  and  C2_2
REMARK    2  A    between atoms: C7_9  and  C8_11
REMARK    3  A    between atoms: C11_14  and  N3_15
REMARK                            x       y       z     vdW  Elec       q    Type
REMARK                         _______ _______ _______ _____ _____    ______ ____
ROOT
ATOM      1  C1  UNL     1      11.427  10.503  36.955  0.00  0.00    +0.045 C 
ATOM      2  C2  UNL     1      12.642  11.366  36.800  0.00  0.00    -0.031 A 
ATOM      3  C3  UNL     1      12.516  12.769  36.672  0.00  0.00    +0.114 A 
ATOM      4  N1  UNL     1      13.626  13.554  36.551  0.00  0.00    -0.258 NA
ATOM      5  C4  UNL     1      14.860  12.988  36.575  0.00  0.00    +0.064 A 
ATOM      6  C5  UNL     1      15.031  11.645  36.728  0.00  0.00    +0.058 A 
ATOM      7  C6  UNL     1      13.929  10.796  36.838  0.00  0.00    +0.030 A 
ATOM      8  N2  UNL     1      16.405  11.294  36.710  0.00  0.00    -0.265 N 
ATOM      9  C7  UNL     1      16.957  10.067  37.220  0.00  0.00    +0.251 C 
ATOM     10  O1  UNL     1      16.342   9.435  38.120  0.00  0.00    -0.270 OA
ATOM     11  C18 UNL     1      17.187  12.524  36.533  0.00  0.00    +0.120 C 
ATOM     12  C19 UNL     1      16.163  13.684  36.441  0.00  0.00    +0.076 C 
ENDROOT
BRANCH   9  13
ATOM     13  C8  UNL     1      18.253   9.551  36.729  0.00  0.00    +0.037 A 
ATOM     14  C9  UNL     1      19.215   9.080  37.637  0.00  0.00    +0.015 A 
ATOM     15  C10 UNL     1      20.438   8.584  37.179  0.00  0.00    +0.024 A 
ATOM     16  C11 UNL     1      20.720   8.543  35.804  0.00  0.00    +0.030 A 
ATOM     17  C16 UNL     1      19.750   8.993  34.896  0.00  0.00    +0.024 A 
ATOM     18  C17 UNL     1      18.525   9.489  35.353  0.00  0.00    +0.015 A 
BRANCH  16  19
ATOM     19  N3  UNL     1      21.981   8.036  35.326  0.00  0.00    -0.326 N 
ATOM     20  C12 UNL     1      22.860   7.275  36.219  0.00  0.00    +0.133 C 
ATOM     21  C13 UNL     1      23.737   6.326  35.398  0.00  0.00    +0.178 C 
ATOM     22  O2  UNL     1      24.410   7.026  34.367  0.00  0.00    -0.377 OA
ATOM     23  C14 UNL     1      23.468   7.534  33.441  0.00  0.00    +0.178 C 
ATOM     24  C15 UNL     1      22.571   8.586  34.100  0.00  0.00    +0.133 C 
ENDBRANCH  16  19
ENDBRANCH   9  13
TORSDOF 2
ENDMDL
MODEL 4
REMARK VINA RESULT:    -5.989      6.523     10.524
REMARK INTER + INTRA:          -7.082
REMARK INTER:                  -6.683
REMARK INTRA:                  -0.399
REMARK UNBOUND:                -0.393
REMARK  Name = /home/qwerty/github/datacon2025hack/step_04_hit_selection/docking/ligands/lig_108.pdb
REMARK  3 active torsions:
REMARK  status: ('A' for Active; 'I' for Inactive)
REMARK    1  A    between atoms: C1_1  and  C2_2
REMARK    2  A    between atoms: C7_9  and  C8_11
REMARK    3  A    between atoms: C11_14  and  N3_15
REMARK                            x       y       z     vdW  Elec       q    Type
REMARK                         _______ _______ _______ _____ _____    ______ ____
ROOT
ATOM      1  C1  UNL     1      15.711  -2.316  24.686  0.00  0.00    +0.045 C 
ATOM      2  C2  UNL     1      15.772  -1.449  23.465  0.00  0.00    -0.031 A 
ATOM      3  C3  UNL     1      16.820  -1.601  22.527  0.00  0.00    +0.114 A 
ATOM      4  N1  UNL     1      16.861  -0.823  21.406  0.00  0.00    -0.258 NA
ATOM      5  C4  UNL     1      15.880   0.087  21.178  0.00  0.00    +0.064 A 
ATOM      6  C5  UNL     1      14.835   0.245  22.037  0.00  0.00    +0.058 A 
ATOM      7  C6  UNL     1      14.754  -0.511  23.207  0.00  0.00    +0.030 A 
ATOM      8  N2  UNL     1      13.949   1.260  21.591  0.00  0.00    -0.265 N 
ATOM      9  C7  UNL     1      12.586   1.423  22.021  0.00  0.00    +0.251 C 
ATOM     10  O1  UNL     1      11.948   0.426  22.455  0.00  0.00    -0.270 OA
ATOM     11  C18 UNL     1      14.473   1.798  20.330  0.00  0.00    +0.120 C 
ATOM     12  C19 UNL     1      15.778   1.018  20.029  0.00  0.00    +0.076 C 
ENDROOT
BRANCH   9  13
ATOM     13  C8  UNL     1      11.908   2.734  21.930  0.00  0.00    +0.037 A 
ATOM     14  C9  UNL     1      12.399   3.834  22.652  0.00  0.00    +0.015 A 
ATOM     15  C10 UNL     1      11.767   5.077  22.564  0.00  0.00    +0.024 A 
ATOM     16  C11 UNL     1      10.637   5.245  21.748  0.00  0.00    +0.030 A 
ATOM     17  C16 UNL     1      10.160   4.152  21.010  0.00  0.00    +0.024 A 
ATOM     18  C17 UNL     1      10.792   2.908  21.096  0.00  0.00    +0.015 A 
BRANCH  16  19
ATOM     19  N3  UNL     1       9.979   6.524  21.656  0.00  0.00    -0.326 N 
ATOM     20  C12 UNL     1      10.721   7.708  21.213  0.00  0.00    +0.133 C 
ATOM     21  C13 UNL     1       9.757   8.716  20.579  0.00  0.00    +0.178 C 
ATOM     22  O2  UNL     1       8.674   8.992  21.447  0.00  0.00    -0.377 OA
ATOM     23  C14 UNL     1       7.899   7.822  21.631  0.00  0.00    +0.178 C 
ATOM     24  C15 UNL     1       8.708   6.742  22.355  0.00  0.00    +0.133 C 
ENDBRANCH  16  19
ENDBRANCH   9  13
TORSDOF 2
ENDMDL
MODEL 5
REMARK VINA RESULT:    -5.961      6.462     10.580
REMARK INTER + INTRA:          -7.051
REMARK INTER:                  -6.670
REMARK INTRA:                  -0.381
REMARK UNBOUND:                -0.393
REMARK  Name = /home/qwerty/github/datacon2025hack/step_04_hit_selection/docking/ligands/lig_108.pdb
REMARK  3 active torsions:
REMARK  status: ('A' for Active; 'I' for Inactive)
REMARK    1  A    between atoms: C1_1  and  C2_2
REMARK    2  A    between atoms: C7_9  and  C8_11
REMARK    3  A    between atoms: C11_14  and  N3_15
REMARK                            x       y       z     vdW  Elec       q    Type
REMARK                         _______ _______ _______ _____ _____    ______ ____
ROOT
ATOM      1  C1  UNL     1      16.910  -1.371  18.818  0.00  0.00    +0.045 C 
ATOM      2  C2  UNL     1      16.559  -0.660  20.090  0.00  0.00    -0.031 A 
ATOM      3  C3  UNL     1      16.928  -1.203  21.343  0.00  0.00    +0.114 A 
ATOM      4  N1  UNL     1      16.624  -0.544  22.498  0.00  0.00    -0.258 NA
ATOM      5  C4  UNL     1      15.983   0.651  22.446  0.00  0.00    +0.064 A 
ATOM      6  C5  UNL     1      15.637   1.228  21.261  0.00  0.00    +0.058 A 
ATOM      7  C6  UNL     1      15.907   0.588  20.051  0.00  0.00    +0.030 A 
ATOM      8  N2  UNL     1      14.969   2.464  21.464  0.00  0.00    -0.265 N 
ATOM      9  C7  UNL     1      14.815   3.498  20.476  0.00  0.00    +0.251 C 
ATOM     10  O1  UNL     1      15.645   3.584  19.531  0.00  0.00    -0.270 OA
ATOM     11  C18 UNL     1      14.883   2.702  22.910  0.00  0.00    +0.120 C 
ATOM     12  C19 UNL     1      15.564   1.490  23.595  0.00  0.00    +0.076 C 
ENDROOT
BRANCH   9  13
ATOM     13  C8  UNL     1      13.719   4.486  20.570  0.00  0.00    +0.037 A 
ATOM     14  C9  UNL     1      12.439   4.169  20.085  0.00  0.00    +0.015 A 
ATOM     15  C10 UNL     1      11.397   5.095  20.178  0.00  0.00    +0.024 A 
ATOM     16  C11 UNL     1      11.613   6.353  20.763  0.00  0.00    +0.030 A 
ATOM     17  C16 UNL     1      12.885   6.661  21.267  0.00  0.00    +0.024 A 
ATOM     18  C17 UNL     1      13.928   5.735  21.176  0.00  0.00    +0.015 A 
BRANCH  16  19
ATOM     19  N3  UNL     1      10.544   7.314  20.858  0.00  0.00    -0.326 N 
ATOM     20  C12 UNL     1       9.149   6.885  20.720  0.00  0.00    +0.133 C 
ATOM     21  C13 UNL     1       8.232   7.852  21.476  0.00  0.00    +0.178 C 
ATOM     22  O2  UNL     1       8.477   9.189  21.084  0.00  0.00    -0.377 OA
ATOM     23  C14 UNL     1       9.787   9.567  21.464  0.00  0.00    +0.178 C 
ATOM     24  C15 UNL     1      10.832   8.744  20.704  0.00  0.00    +0.133 C 
ENDBRANCH  16  19
ENDBRANCH   9  13
TORSDOF 2
ENDMDL
MODEL 6
REMARK VINA RESULT:    -5.960     12.081     14.725
REMARK INTER + INTRA:          -7.049
REMARK INTER:                  -6.645
REMARK INTRA:                  -0.404
REMARK UNBOUND:                -0.393
REMARK  Name = /home/qwerty/github/datacon2025hack/step_04_hit_selection/docking/ligands/lig_108.pdb
REMARK  3 active torsions:
REMARK  status: ('A' for Active; 'I' for Inactive)
REMARK    1  A    between atoms: C1_1  and  C2_2
REMARK    2  A    between atoms: C7_9  and  C8_11
REMARK    3  A    between atoms: C11_14  and  N3_15
REMARK                            x       y       z     vdW  Elec       q    Type
REMARK                         _______ _______ _______ _____ _____    ______ ____
ROOT
ATOM      1  C1  UNL     1      24.304   7.503  32.745  0.00  0.00    +0.045 C 
ATOM      2  C2  UNL     1      23.587   7.362  34.054  0.00  0.00    -0.031 A 
ATOM      3  C3  UNL     1      24.015   6.413  35.010  0.00  0.00    +0.114 A 
ATOM      4  N1  UNL     1      23.371   6.301  36.209  0.00  0.00    -0.258 NA
ATOM      5  C4  UNL     1      22.327   7.120  36.494  0.00  0.00    +0.064 A 
ATOM      6  C5  UNL     1      21.900   8.070  35.616  0.00  0.00    +0.058 A 
ATOM      7  C6  UNL     1      22.510   8.214  34.369  0.00  0.00    +0.030 A 
ATOM      8  N2  UNL     1      20.791   8.789  36.132  0.00  0.00    -0.265 N 
ATOM      9  C7  UNL     1      20.345  10.076  35.668  0.00  0.00    +0.251 C 
ATOM     10  O1  UNL     1      21.163  10.852  35.106  0.00  0.00    -0.270 OA
ATOM     11  C18 UNL     1      20.482   8.253  37.464  0.00  0.00    +0.120 C 
ATOM     12  C19 UNL     1      21.509   7.125  37.731  0.00  0.00    +0.076 C 
ENDROOT
BRANCH   9  13
ATOM     13  C8  UNL     1      18.949  10.519  35.872  0.00  0.00    +0.037 A 
ATOM     14  C9  UNL     1      18.682  11.749  36.493  0.00  0.00    +0.015 A 
ATOM     15  C10 UNL     1      17.365  12.177  36.681  0.00  0.00    +0.024 A 
ATOM     16  C11 UNL     1      16.290  11.385  36.245  0.00  0.00    +0.030 A 
ATOM     17  C16 UNL     1      16.558  10.167  35.604  0.00  0.00    +0.024 A 
ATOM     18  C17 UNL     1      17.875   9.738  35.415  0.00  0.00    +0.015 A 
BRANCH  16  19
ATOM     19  N3  UNL     1      14.930  11.819  36.439  0.00  0.00    -0.326 N 
ATOM     20  C12 UNL     1      14.641  13.213  36.789  0.00  0.00    +0.133 C 
ATOM     21  C13 UNL     1      13.234  13.587  36.309  0.00  0.00    +0.178 C 
ATOM     22  O2  UNL     1      12.278  12.652  36.774  0.00  0.00    -0.377 OA
ATOM     23  C14 UNL     1      12.529  11.384  36.198  0.00  0.00    +0.178 C 
ATOM     24  C15 UNL     1      13.874  10.828  36.672  0.00  0.00    +0.133 C 
ENDBRANCH  16  19
ENDBRANCH   9  13
TORSDOF 2
ENDMDL
MODEL 7
REMARK VINA RESULT:    -5.943      2.937      8.862
REMARK INTER + INTRA:          -7.031
REMARK INTER:                  -6.705
REMARK INTRA:                  -0.327
REMARK UNBOUND:                -0.393
REMARK  Name = /home/qwerty/github/datacon2025hack/step_04_hit_selection/docking/ligands/lig_108.pdb
REMARK  3 active torsions:
REMARK  status: ('A' for Active; 'I' for Inactive)
REMARK    1  A    between atoms: C1_1  and  C2_2
REMARK    2  A    between atoms: C7_9  and  C8_11
REMARK    3  A    between atoms: C11_14  and  N3_15
REMARK                            x       y       z     vdW  Elec       q    Type
REMARK                         _______ _______ _______ _____ _____    ______ ____
ROOT
ATOM      1  C1  UNL     1      21.690   0.138  29.639  0.00  0.00    +0.045 C 
ATOM      2  C2  UNL     1      21.752   0.998  28.413  0.00  0.00    -0.031 A 
ATOM      3  C3  UNL     1      22.840   1.877  28.205  0.00  0.00    +0.114 A 
ATOM      4  N1  UNL     1      22.903   2.644  27.078  0.00  0.00    -0.258 NA
ATOM      5  C4  UNL     1      21.927   2.548  26.140  0.00  0.00    +0.064 A 
ATOM      6  C5  UNL     1      20.876   1.693  26.283  0.00  0.00    +0.058 A 
ATOM      7  C6  UNL     1      20.754   0.900  27.424  0.00  0.00    +0.030 A 
ATOM      8  N2  UNL     1      19.984   1.782  25.182  0.00  0.00    -0.265 N 
ATOM      9  C7  UNL     1      19.013   0.786  24.816  0.00  0.00    +0.251 C 
ATOM     10  O1  UNL     1      19.198  -0.416  25.152  0.00  0.00    -0.270 OA
ATOM     11  C18 UNL     1      20.514   2.783  24.248  0.00  0.00    +0.120 C 
ATOM     12  C19 UNL     1      21.829   3.313  24.873  0.00  0.00    +0.076 C 
ENDROOT
BRANCH   9  13
ATOM     13  C8  UNL     1      17.818   1.141  24.021  0.00  0.00    +0.037 A 
ATOM     14  C9  UNL     1      17.422   0.334  22.943  0.00  0.00    +0.015 A 
ATOM     15  C10 UNL     1      16.289   0.659  22.193  0.00  0.00    +0.024 A 
ATOM     16  C11 UNL     1      15.526   1.795  22.512  0.00  0.00    +0.030 A 
ATOM     17  C16 UNL     1      15.909   2.588  23.604  0.00  0.00    +0.024 A 
ATOM     18  C17 UNL     1      17.043   2.263  24.355  0.00  0.00    +0.015 A 
BRANCH  16  19
ATOM     19  N3  UNL     1      14.359   2.138  21.741  0.00  0.00    -0.326 N 
ATOM     20  C12 UNL     1      13.027   1.715  22.185  0.00  0.00    +0.133 C 
ATOM     21  C13 UNL     1      11.970   2.686  21.649  0.00  0.00    +0.178 C 
ATOM     22  O2  UNL     1      12.099   2.848  20.248  0.00  0.00    -0.377 OA
ATOM     23  C14 UNL     1      13.336   3.467  19.951  0.00  0.00    +0.178 C 
ATOM     24  C15 UNL     1      14.506   2.560  20.343  0.00  0.00    +0.133 C 
ENDBRANCH  16  19
ENDBRANCH   9  13
TORSDOF 2
ENDMDL
MODEL 8
REMARK VINA RESULT:    -5.928     14.462     15.116
REMARK INTER + INTRA:          -7.014
REMARK INTER:                  -6.824
REMARK INTRA:                  -0.190
REMARK UNBOUND:                -0.393
REMARK  Name = /home/qwerty/github/datacon2025hack/step_04_hit_selection/docking/ligands/lig_108.pdb
REMARK  3 active torsions:
REMARK  status: ('A' for Active; 'I' for Inactive)
REMARK    1  A    between atoms: C1_1  and  C2_2
REMARK    2  A    between atoms: C7_9  and  C8_11
REMARK    3  A    between atoms: C11_14  and  N3_15
REMARK                            x       y       z     vdW  Elec       q    Type
REMARK                         _______ _______ _______ _____ _____    ______ ____
ROOT
ATOM      1  C1  UNL     1       7.802  11.949  29.398  0.00  0.00    +0.045 C 
ATOM      2  C2  UNL     1       9.048  12.747  29.153  0.00  0.00    -0.031 A 
ATOM      3  C3  UNL     1       9.239  13.423  27.927  0.00  0.00    +0.114 A 
ATOM      4  N1  UNL     1      10.365  14.165  27.715  0.00  0.00    -0.258 NA
ATOM      5  C4  UNL     1      11.298  14.271  28.695  0.00  0.00    +0.064 A 
ATOM      6  C5  UNL     1      11.141  13.663  29.904  0.00  0.00    +0.058 A 
ATOM      7  C6  UNL     1      10.018  12.878  30.166  0.00  0.00    +0.030 A 
ATOM      8  N2  UNL     1      12.250  13.910  30.754  0.00  0.00    -0.265 N 
ATOM      9  C7  UNL     1      12.251  13.762  32.185  0.00  0.00    +0.251 C 
ATOM     10  O1  UNL     1      11.165  13.854  32.820  0.00  0.00    -0.270 OA
ATOM     11  C18 UNL     1      13.202  14.757  30.025  0.00  0.00    +0.120 C 
ATOM     12  C19 UNL     1      12.579  15.017  28.630  0.00  0.00    +0.076 C 
ENDROOT
BRANCH   9  13
ATOM     13  C8  UNL     1      13.509  13.537  32.929  0.00  0.00    +0.037 A 
ATOM     14  C9  UNL     1      14.566  12.833  32.331  0.00  0.00    +0.015 A 
ATOM     15  C10 UNL     1      15.761  12.624  33.025  0.00  0.00    +0.024 A 
ATOM     16  C11 UNL     1      15.922  13.121  34.329  0.00  0.00    +0.030 A 
ATOM     17  C16 UNL     1      14.874  13.844  34.918  0.00  0.00    +0.024 A 
ATOM     18  C17 UNL     1      13.679  14.054  34.223  0.00  0.00    +0.015 A 
BRANCH  16  19
ATOM     19  N3  UNL     1      17.150  12.906  35.052  0.00  0.00    -0.326 N 
ATOM     20  C12 UNL     1      17.118  12.469  36.451  0.00  0.00    +0.133 C 
ATOM     21  C13 UNL     1      18.401  11.701  36.783  0.00  0.00    +0.178 C 
ATOM     22  O2  UNL     1      19.546  12.455  36.428  0.00  0.00    -0.377 OA
ATOM     23  C14 UNL     1      19.586  12.630  35.024  0.00  0.00    +0.178 C 
ATOM     24  C15 UNL     1      18.403  13.477  34.548  0.00  0.00    +0.133 C 
ENDBRANCH  16  19
ENDBRANCH   9  13
TORSDOF 2
ENDMDL
MODEL 9
REMARK VINA RESULT:    -5.876      4.150     11.198
REMARK INTER + INTRA:          -6.956
REMARK INTER:                  -6.564
REMARK INTRA:                  -0.391
REMARK UNBOUND:                -0.393
REMARK  Name = /home/qwerty/github/datacon2025hack/step_04_hit_selection/docking/ligands/lig_108.pdb
REMARK  3 active torsions:
REMARK  status: ('A' for Active; 'I' for Inactive)
REMARK    1  A    between atoms: C1_1  and  C2_2
REMARK    2  A    between atoms: C7_9  and  C8_11
REMARK    3  A    between atoms: C11_14  and  N3_15
REMARK                            x       y       z     vdW  Elec       q    Type
REMARK                         _______ _______ _______ _____ _____    ______ ____
ROOT
ATOM      1  C1  UNL     1      19.712   6.742  37.496  0.00  0.00    +0.045 C 
ATOM      2  C2  UNL     1      20.943   6.701  36.641  0.00  0.00    -0.031 A 
ATOM      3  C3  UNL     1      22.110   7.398  37.028  0.00  0.00    +0.114 A 
ATOM      4  N1  UNL     1      23.236   7.342  36.258  0.00  0.00    -0.258 NA
ATOM      5  C4  UNL     1      23.242   6.597  35.124  0.00  0.00    +0.064 A 
ATOM      6  C5  UNL     1      22.150   5.884  34.728  0.00  0.00    +0.058 A 
ATOM      7  C6  UNL     1      20.969   5.921  35.469  0.00  0.00    +0.030 A 
ATOM      8  N2  UNL     1      22.396   5.197  33.510  0.00  0.00    -0.265 N 
ATOM      9  C7  UNL     1      21.638   4.078  33.019  0.00  0.00    +0.251 C 
ATOM     10  O1  UNL     1      21.014   3.344  33.833  0.00  0.00    -0.270 OA
ATOM     11  C18 UNL     1      23.770   5.495  33.090  0.00  0.00    +0.120 C 
ATOM     12  C19 UNL     1      24.364   6.439  34.167  0.00  0.00    +0.076 C 
ENDROOT
BRANCH   9  13
ATOM     13  C8  UNL     1      21.605   3.751  31.578  0.00  0.00    +0.037 A 
ATOM     14  C9  UNL     1      21.983   2.474  31.134  0.00  0.00    +0.015 A 
ATOM     15  C10 UNL     1      21.947   2.156  29.774  0.00  0.00    +0.024 A 
ATOM     16  C11 UNL     1      21.526   3.109  28.832  0.00  0.00    +0.030 A 
ATOM     17  C16 UNL     1      21.128   4.378  29.277  0.00  0.00    +0.024 A 
ATOM     18  C17 UNL     1      21.163   4.696  30.638  0.00  0.00    +0.015 A 
BRANCH  16  19
ATOM     19  N3  UNL     1      21.491   2.789  27.428  0.00  0.00    -0.326 N 
ATOM     20  C12 UNL     1      20.706   1.646  26.948  0.00  0.00    +0.133 C 
ATOM     21  C13 UNL     1      20.284   1.882  25.495  0.00  0.00    +0.178 C 
ATOM     22  O2  UNL     1      21.402   2.206  24.690  0.00  0.00    -0.377 OA
ATOM     23  C14 UNL     1      21.950   3.442  25.109  0.00  0.00    +0.178 C 
ATOM     24  C15 UNL     1      22.513   3.335  26.529  0.00  0.00    +0.133 C 
ENDBRANCH  16  19
ENDBRANCH   9  13
TORSDOF 2
ENDMDL
