REMARK  Name = /home/qwerty/github/datacon2025hack/step_04_hit_selection/docking/ligands/lig_518.pdb
REMARK  11 active torsions:
REMARK  status: ('A' for Active; 'I' for Inactive)
REMARK    1  A    between atoms: C1_1  and  C2_2
REMARK    2  A    between atoms: C2_2  and  C3_3
REMARK    3  A    between atoms: C3_3  and  C4_4
REMARK    4  A    between atoms: C3_3  and  N2_17
REMARK    5  A    between atoms: C4_4  and  N1_5
REMARK    6  A    between atoms: C5_6  and  C6_8
REMARK    7  A    between atoms: C7_9  and  C8_10
REMARK    8  A    between atoms: C12_15  and  C13_16
REMARK    9  A    between atoms: N2_17  and  C14_18
REMARK   10  A    between atoms: C14_18  and  C15_19
REMARK   11  A    between atoms: C16_21  and  C17_22
REMARK                            x       y       z     vdW  Elec       q    Type
REMARK                         _______ _______ _______ _____ _____    ______ ____
ROOT
ATOM      1  C4  UNL     1       0.948  -0.514   1.101  0.00  0.00    +0.123 C 
ENDROOT
BRANCH   1   2
ATOM      2  N1  UNL     1      -0.451  -0.238   0.772  0.00  0.00    -0.310 N 
ATOM      3  C5  UNL     1      -0.902   1.067   0.392  0.00  0.00    +0.245 C 
ATOM      4  O1  UNL     1      -0.075   1.967   0.080  0.00  0.00    -0.270 OA
ATOM      5  H9  UNL     1      -1.174  -0.956   1.023  0.00  0.00    +0.149 HD
BRANCH   3   6
ATOM      6  C6  UNL     1      -2.346   1.370   0.366  0.00  0.00    +0.043 A 
ATOM      7  C7  UNL     1      -3.043   1.415  -0.866  0.00  0.00    -0.035 A 
ATOM      8  C8  UNL     1      -2.335   1.156  -2.170  0.00  0.00    +0.044 C 
ATOM      9  C9  UNL     1      -4.418   1.702  -0.875  0.00  0.00    +0.042 A 
ATOM     10  C10 UNL     1      -5.099   1.937   0.319  0.00  0.00    +0.124 A 
ATOM     11  F1  UNL     1      -6.428   2.212   0.295  0.00  0.00    -0.205 F 
ATOM     12  C11 UNL     1      -4.418   1.887   1.538  0.00  0.00    +0.042 A 
ATOM     13  C12 UNL     1      -3.042   1.605   1.576  0.00  0.00    -0.035 A 
ATOM     14  C13 UNL     1      -2.334   1.554   2.908  0.00  0.00    +0.044 C 
ENDBRANCH   3   6
ENDBRANCH   1   2
BRANCH   1  15
ATOM     15  C3  UNL     1       1.288  -1.997   0.852  0.00  0.00    +0.071 C 
BRANCH  15  17
ATOM     16  C1  UNL     1       3.068  -3.798   1.230  0.00  0.00    +0.005 C 
ATOM     17  C2  UNL     1       2.763  -2.301   1.214  0.00  0.00    +0.017 C 
ENDBRANCH  15  17
BRANCH  15  18
ATOM     18  N2  UNL     1       0.871  -2.432  -0.507  0.00  0.00    -0.304 NA
ATOM     19  H18 UNL     1       0.697  -3.465  -0.477  0.00  0.00    +0.123 HD
BRANCH  18  20
ATOM     20  C14 UNL     1       1.804  -2.178  -1.621  0.00  0.00    +0.180 C 
BRANCH  20  21
ATOM     21  C15 UNL     1       1.897  -0.725  -1.956  0.00  0.00    +0.241 A 
ATOM     22  N3  UNL     1       2.993   0.028  -1.737  0.00  0.00    -0.195 NA
ATOM     23  C16 UNL     1       2.581   1.227  -2.197  0.00  0.00    +0.169 A 
ATOM     24  C17 UNL     1       3.405   2.468  -2.115  0.00  0.00    +0.091 C 
ATOM     25  N4  UNL     1       1.312   1.203  -2.651  0.00  0.00    -0.062 NA
ATOM     26  O2  UNL     1       0.926  -0.026  -2.490  0.00  0.00    -0.337 OA
ENDBRANCH  20  21
ENDBRANCH  18  20
ENDBRANCH  15  18
ENDBRANCH   1  15
TORSDOF 7
