MODEL 1
REMARK VINA RESULT:    -5.441      0.000      0.000
REMARK INTER + INTRA:          -8.672
REMARK INTER:                  -7.826
REMARK INTRA:                  -0.846
REMARK UNBOUND:                -0.846
REMARK  Name = /home/qwerty/github/datacon2025hack/step_04_hit_selection/docking/ligands/lig_611.pdb
REMARK  11 active torsions:
REMARK  status: ('A' for Active; 'I' for Inactive)
REMARK    1  A    between atoms: C1_1  and  C2_2
REMARK    2  A    between atoms: C2_2  and  C3_3
REMARK    3  A    between atoms: C2_2  and  O1_4
REMARK    4  A    between atoms: O1_4  and  C4_5
REMARK    5  A    between atoms: C7_9  and  C8_10
REMARK    6  A    between atoms: C12_16  and  C13_17
REMARK    7  A    between atoms: C14_18  and  C15_19
REMARK    8  A    between atoms: C15_19  and  N3_20
REMARK    9  A    between atoms: N3_20  and  C16_21
REMARK   10  A    between atoms: C16_21  and  C17_22
REMARK   11  A    between atoms: C17_22  and  O3_23
REMARK                            x       y       z     vdW  Elec       q    Type
REMARK                         _______ _______ _______ _____ _____    ______ ____
ROOT
ATOM      1  C8  UNL     1      19.695   2.516  27.502  0.00  0.00    +0.248 C 
ATOM      2  O2  UNL     1      19.845   3.621  26.904  0.00  0.00    -0.270 OA
ATOM      3  N2  UNL     1      20.262   2.332  28.821  0.00  0.00    -0.293 N 
ATOM      4  C9  UNL     1      20.591   3.542  29.599  0.00  0.00    +0.108 C 
ATOM      5  C10 UNL     1      20.566   3.281  31.098  0.00  0.00    +0.019 C 
ATOM      6  C11 UNL     1      21.446   2.083  31.447  0.00  0.00    +0.006 C 
ATOM      7  C12 UNL     1      20.985   0.808  30.716  0.00  0.00    +0.008 C 
ATOM      8  C13 UNL     1      19.671   0.268  31.313  0.00  0.00    +0.009 C 
ATOM      9  C14 UNL     1      20.849   1.016  29.176  0.00  0.00    +0.093 C 
ENDROOT
BRANCH   1  14
ATOM     10  C4  UNL     1      16.877   0.154  26.569  0.00  0.00    +0.140 A 
ATOM     11  C5  UNL     1      17.510  -0.577  25.557  0.00  0.00    +0.156 A 
ATOM     12  N1  UNL     1      18.776  -0.275  25.185  0.00  0.00    -0.259 NA
ATOM     13  C6  UNL     1      19.483   0.719  25.784  0.00  0.00    +0.124 A 
ATOM     14  C7  UNL     1      18.917   1.453  26.833  0.00  0.00    +0.058 A 
ATOM     15  C18 UNL     1      17.599   1.174  27.215  0.00  0.00    +0.061 A 
BRANCH  10  16
ATOM     16  O1  UNL     1      15.544  -0.163  26.886  0.00  0.00    -0.488 OA
BRANCH  16  18
ATOM     17  C1  UNL     1      13.982  -1.965  27.317  0.00  0.00    +0.051 C 
ATOM     18  C2  UNL     1      14.755  -1.175  26.259  0.00  0.00    +0.167 C 
ATOM     19  C3  UNL     1      13.786  -0.504  25.289  0.00  0.00    +0.051 C 
ENDBRANCH  16  18
ENDBRANCH  10  16
ENDBRANCH   1  14
BRANCH   9  20
ATOM     20  C15 UNL     1      22.159   0.746  28.404  0.00  0.00    +0.103 C 
BRANCH  20  21
ATOM     21  N3  UNL     1      22.966  -0.305  29.035  0.00  0.00    -0.312 NA
ATOM     22  H23 UNL     1      22.591  -0.477  29.996  0.00  0.00    +0.122 HD
BRANCH  21  23
ATOM     23  C16 UNL     1      24.382   0.079  29.158  0.00  0.00    +0.108 C 
BRANCH  23  24
ATOM     24  C17 UNL     1      25.324  -1.135  29.142  0.00  0.00    +0.171 C 
BRANCH  24  25
ATOM     25  O3  UNL     1      24.581  -2.295  28.899  0.00  0.00    -0.394 OA
ATOM     26  H28 UNL     1      23.650  -2.000  28.728  0.00  0.00    +0.209 HD
ENDBRANCH  24  25
ENDBRANCH  23  24
ENDBRANCH  21  23
ENDBRANCH  20  21
ENDBRANCH   9  20
TORSDOF 8
ENDMDL
MODEL 2
REMARK VINA RESULT:    -5.338      1.539      2.128
REMARK INTER + INTRA:          -8.524
REMARK INTER:                  -7.765
REMARK INTRA:                  -0.759
REMARK UNBOUND:                -0.846
REMARK  Name = /home/qwerty/github/datacon2025hack/step_04_hit_selection/docking/ligands/lig_611.pdb
REMARK  11 active torsions:
REMARK  status: ('A' for Active; 'I' for Inactive)
REMARK    1  A    between atoms: C1_1  and  C2_2
REMARK    2  A    between atoms: C2_2  and  C3_3
REMARK    3  A    between atoms: C2_2  and  O1_4
REMARK    4  A    between atoms: O1_4  and  C4_5
REMARK    5  A    between atoms: C7_9  and  C8_10
REMARK    6  A    between atoms: C12_16  and  C13_17
REMARK    7  A    between atoms: C14_18  and  C15_19
REMARK    8  A    between atoms: C15_19  and  N3_20
REMARK    9  A    between atoms: N3_20  and  C16_21
REMARK   10  A    between atoms: C16_21  and  C17_22
REMARK   11  A    between atoms: C17_22  and  O3_23
REMARK                            x       y       z     vdW  Elec       q    Type
REMARK                         _______ _______ _______ _____ _____    ______ ____
ROOT
ATOM      1  C8  UNL     1      19.532   2.815  27.927  0.00  0.00    +0.248 C 
ATOM      2  O2  UNL     1      19.774   3.913  27.346  0.00  0.00    -0.270 OA
ATOM      3  N2  UNL     1      20.232   2.483  29.149  0.00  0.00    -0.293 N 
ATOM      4  C9  UNL     1      20.845   3.590  29.910  0.00  0.00    +0.108 C 
ATOM      5  C10 UNL     1      20.976   3.263  31.390  0.00  0.00    +0.019 C 
ATOM      6  C11 UNL     1      21.696   1.931  31.581  0.00  0.00    +0.006 C 
ATOM      7  C12 UNL     1      20.950   0.777  30.884  0.00  0.00    +0.008 C 
ATOM      8  C13 UNL     1      19.658   0.412  31.640  0.00  0.00    +0.009 C 
ATOM      9  C14 UNL     1      20.648   1.079  29.384  0.00  0.00    +0.093 C 
ENDROOT
BRANCH   1  14
ATOM     10  C4  UNL     1      17.857   0.212  25.736  0.00  0.00    +0.140 A 
ATOM     11  C5  UNL     1      16.560   0.268  26.256  0.00  0.00    +0.156 A 
ATOM     12  N1  UNL     1      16.274   1.089  27.294  0.00  0.00    -0.259 NA
ATOM     13  C6  UNL     1      17.214   1.897  27.850  0.00  0.00    +0.124 A 
ATOM     14  C7  UNL     1      18.517   1.917  27.341  0.00  0.00    +0.058 A 
ATOM     15  C18 UNL     1      18.839   1.056  26.284  0.00  0.00    +0.061 A 
BRANCH  10  16
ATOM     16  O1  UNL     1      18.118  -0.693  24.691  0.00  0.00    -0.488 OA
BRANCH  16  18
ATOM     17  C1  UNL     1      16.980  -1.647  22.776  0.00  0.00    +0.051 C 
ATOM     18  C2  UNL     1      17.262  -1.757  24.276  0.00  0.00    +0.167 C 
ATOM     19  C3  UNL     1      17.950  -3.084  24.587  0.00  0.00    +0.051 C 
ENDBRANCH  16  18
ENDBRANCH  10  16
ENDBRANCH   1  14
BRANCH   9  20
ATOM     20  C15 UNL     1      21.787   0.652  28.432  0.00  0.00    +0.103 C 
BRANCH  20  21
ATOM     21  N3  UNL     1      22.665  -0.356  29.038  0.00  0.00    -0.312 NA
ATOM     22  H23 UNL     1      22.324  -0.551  30.007  0.00  0.00    +0.122 HD
BRANCH  21  23
ATOM     23  C16 UNL     1      24.061   0.101  29.125  0.00  0.00    +0.108 C 
BRANCH  23  24
ATOM     24  C17 UNL     1      25.061  -1.066  29.165  0.00  0.00    +0.171 C 
BRANCH  24  25
ATOM     25  O3  UNL     1      24.369  -2.274  29.022  0.00  0.00    -0.394 OA
ATOM     26  H28 UNL     1      23.421  -2.035  28.858  0.00  0.00    +0.209 HD
ENDBRANCH  24  25
ENDBRANCH  23  24
ENDBRANCH  21  23
ENDBRANCH  20  21
ENDBRANCH   9  20
TORSDOF 8
ENDMDL
MODEL 3
REMARK VINA RESULT:    -5.336      1.869      2.539
REMARK INTER + INTRA:          -8.522
REMARK INTER:                  -7.571
REMARK INTRA:                  -0.951
REMARK UNBOUND:                -0.846
REMARK  Name = /home/qwerty/github/datacon2025hack/step_04_hit_selection/docking/ligands/lig_611.pdb
REMARK  11 active torsions:
REMARK  status: ('A' for Active; 'I' for Inactive)
REMARK    1  A    between atoms: C1_1  and  C2_2
REMARK    2  A    between atoms: C2_2  and  C3_3
REMARK    3  A    between atoms: C2_2  and  O1_4
REMARK    4  A    between atoms: O1_4  and  C4_5
REMARK    5  A    between atoms: C7_9  and  C8_10
REMARK    6  A    between atoms: C12_16  and  C13_17
REMARK    7  A    between atoms: C14_18  and  C15_19
REMARK    8  A    between atoms: C15_19  and  N3_20
REMARK    9  A    between atoms: N3_20  and  C16_21
REMARK   10  A    between atoms: C16_21  and  C17_22
REMARK   11  A    between atoms: C17_22  and  O3_23
REMARK                            x       y       z     vdW  Elec       q    Type
REMARK                         _______ _______ _______ _____ _____    ______ ____
ROOT
ATOM      1  C8  UNL     1      21.311   3.793  28.807  0.00  0.00    +0.248 C 
ATOM      2  O2  UNL     1      21.742   4.982  28.786  0.00  0.00    -0.270 OA
ATOM      3  N2  UNL     1      21.138   3.116  30.074  0.00  0.00    -0.293 N 
ATOM      4  C9  UNL     1      21.031   3.950  31.287  0.00  0.00    +0.108 C 
ATOM      5  C10 UNL     1      20.256   3.252  32.394  0.00  0.00    +0.019 C 
ATOM      6  C11 UNL     1      20.840   1.868  32.666  0.00  0.00    +0.006 C 
ATOM      7  C12 UNL     1      20.809   0.982  31.406  0.00  0.00    +0.008 C 
ATOM      8  C13 UNL     1      19.373   0.528  31.080  0.00  0.00    +0.009 C 
ATOM      9  C14 UNL     1      21.466   1.672  30.172  0.00  0.00    +0.093 C 
ENDROOT
BRANCH   1  14
ATOM     10  C4  UNL     1      19.427   1.923  26.097  0.00  0.00    +0.140 A 
ATOM     11  C5  UNL     1      20.407   1.909  25.098  0.00  0.00    +0.156 A 
ATOM     12  N1  UNL     1      21.600   2.517  25.301  0.00  0.00    -0.259 NA
ATOM     13  C6  UNL     1      21.899   3.136  26.473  0.00  0.00    +0.124 A 
ATOM     14  C7  UNL     1      20.975   3.143  27.524  0.00  0.00    +0.058 A 
ATOM     15  C18 UNL     1      19.726   2.542  27.324  0.00  0.00    +0.061 A 
BRANCH  10  16
ATOM     16  O1  UNL     1      18.186   1.323  25.821  0.00  0.00    -0.488 OA
BRANCH  16  18
ATOM     17  C1  UNL     1      16.316   0.001  26.615  0.00  0.00    +0.051 C 
ATOM     18  C2  UNL     1      17.792   0.006  26.208  0.00  0.00    +0.167 C 
ATOM     19  C3  UNL     1      18.016  -0.935  25.027  0.00  0.00    +0.051 C 
ENDBRANCH  16  18
ENDBRANCH  10  16
ENDBRANCH   1  14
BRANCH   9  20
ATOM     20  C15 UNL     1      22.987   1.422  30.068  0.00  0.00    +0.103 C 
BRANCH  20  21
ATOM     21  N3  UNL     1      23.347   0.709  28.837  0.00  0.00    -0.312 NA
ATOM     22  H23 UNL     1      22.751   1.072  28.059  0.00  0.00    +0.122 HD
BRANCH  21  23
ATOM     23  C16 UNL     1      23.123  -0.742  28.947  0.00  0.00    +0.108 C 
BRANCH  23  24
ATOM     24  C17 UNL     1      24.436  -1.541  28.955  0.00  0.00    +0.171 C 
BRANCH  24  25
ATOM     25  O3  UNL     1      25.518  -0.654  28.950  0.00  0.00    -0.394 OA
ATOM     26  H28 UNL     1      25.692  -0.420  29.898  0.00  0.00    +0.209 HD
ENDBRANCH  24  25
ENDBRANCH  23  24
ENDBRANCH  21  23
ENDBRANCH  20  21
ENDBRANCH   9  20
TORSDOF 8
ENDMDL
MODEL 4
REMARK VINA RESULT:    -5.330      3.373      7.475
REMARK INTER + INTRA:          -8.513
REMARK INTER:                  -7.921
REMARK INTRA:                  -0.592
REMARK UNBOUND:                -0.846
REMARK  Name = /home/qwerty/github/datacon2025hack/step_04_hit_selection/docking/ligands/lig_611.pdb
REMARK  11 active torsions:
REMARK  status: ('A' for Active; 'I' for Inactive)
REMARK    1  A    between atoms: C1_1  and  C2_2
REMARK    2  A    between atoms: C2_2  and  C3_3
REMARK    3  A    between atoms: C2_2  and  O1_4
REMARK    4  A    between atoms: O1_4  and  C4_5
REMARK    5  A    between atoms: C7_9  and  C8_10
REMARK    6  A    between atoms: C12_16  and  C13_17
REMARK    7  A    between atoms: C14_18  and  C15_19
REMARK    8  A    between atoms: C15_19  and  N3_20
REMARK    9  A    between atoms: N3_20  and  C16_21
REMARK   10  A    between atoms: C16_21  and  C17_22
REMARK   11  A    between atoms: C17_22  and  O3_23
REMARK                            x       y       z     vdW  Elec       q    Type
REMARK                         _______ _______ _______ _____ _____    ______ ____
ROOT
ATOM      1  C8  UNL     1      20.558   2.841  30.065  0.00  0.00    +0.248 C 
ATOM      2  O2  UNL     1      19.606   2.241  30.644  0.00  0.00    -0.270 OA
ATOM      3  N2  UNL     1      20.785   2.630  28.652  0.00  0.00    -0.293 N 
ATOM      4  C9  UNL     1      19.663   2.102  27.850  0.00  0.00    +0.108 C 
ATOM      5  C10 UNL     1      19.769   2.502  26.386  0.00  0.00    +0.019 C 
ATOM      6  C11 UNL     1      21.138   2.123  25.827  0.00  0.00    +0.006 C 
ATOM      7  C12 UNL     1      22.279   2.803  26.609  0.00  0.00    +0.008 C 
ATOM      8  C13 UNL     1      22.348   4.310  26.295  0.00  0.00    +0.009 C 
ATOM      9  C14 UNL     1      22.178   2.561  28.146  0.00  0.00    +0.093 C 
ENDROOT
BRANCH   1  14
ATOM     10  C4  UNL     1      22.224   5.995  31.355  0.00  0.00    +0.140 A 
ATOM     11  C5  UNL     1      23.015   5.444  32.370  0.00  0.00    +0.156 A 
ATOM     12  N1  UNL     1      22.965   4.117  32.631  0.00  0.00    -0.259 NA
ATOM     13  C6  UNL     1      22.175   3.274  31.916  0.00  0.00    +0.124 A 
ATOM     14  C7  UNL     1      21.396   3.762  30.860  0.00  0.00    +0.058 A 
ATOM     15  C18 UNL     1      21.415   5.136  30.591  0.00  0.00    +0.061 A 
BRANCH  10  16
ATOM     16  O1  UNL     1      22.272   7.386  31.154  0.00  0.00    -0.488 OA
BRANCH  16  18
ATOM     17  C1  UNL     1      23.775   9.286  31.229  0.00  0.00    +0.051 C 
ATOM     18  C2  UNL     1      22.882   8.335  32.029  0.00  0.00    +0.167 C 
ATOM     19  C3  UNL     1      21.782   9.119  32.740  0.00  0.00    +0.051 C 
ENDBRANCH  16  18
ENDBRANCH  10  16
ENDBRANCH   1  14
BRANCH   9  20
ATOM     20  C15 UNL     1      22.893   1.274  28.612  0.00  0.00    +0.103 C 
BRANCH  20  21
ATOM     21  N3  UNL     1      22.158   0.064  28.228  0.00  0.00    -0.312 NA
ATOM     22  H23 UNL     1      21.155   0.188  28.494  0.00  0.00    +0.122 HD
BRANCH  21  23
ATOM     23  C16 UNL     1      22.667  -1.137  28.911  0.00  0.00    +0.108 C 
BRANCH  23  24
ATOM     24  C17 UNL     1      24.203  -1.170  28.977  0.00  0.00    +0.171 C 
BRANCH  24  25
ATOM     25  O3  UNL     1      24.643  -2.493  28.857  0.00  0.00    -0.394 OA
ATOM     26  H28 UNL     1      24.279  -2.832  28.000  0.00  0.00    +0.209 HD
ENDBRANCH  24  25
ENDBRANCH  23  24
ENDBRANCH  21  23
ENDBRANCH  20  21
ENDBRANCH   9  20
TORSDOF 8
ENDMDL
MODEL 5
REMARK VINA RESULT:    -5.327     10.638     14.076
REMARK INTER + INTRA:          -8.508
REMARK INTER:                  -7.640
REMARK INTRA:                  -0.867
REMARK UNBOUND:                -0.846
REMARK  Name = /home/qwerty/github/datacon2025hack/step_04_hit_selection/docking/ligands/lig_611.pdb
REMARK  11 active torsions:
REMARK  status: ('A' for Active; 'I' for Inactive)
REMARK    1  A    between atoms: C1_1  and  C2_2
REMARK    2  A    between atoms: C2_2  and  C3_3
REMARK    3  A    between atoms: C2_2  and  O1_4
REMARK    4  A    between atoms: O1_4  and  C4_5
REMARK    5  A    between atoms: C7_9  and  C8_10
REMARK    6  A    between atoms: C12_16  and  C13_17
REMARK    7  A    between atoms: C14_18  and  C15_19
REMARK    8  A    between atoms: C15_19  and  N3_20
REMARK    9  A    between atoms: N3_20  and  C16_21
REMARK   10  A    between atoms: C16_21  and  C17_22
REMARK   11  A    between atoms: C17_22  and  O3_23
REMARK                            x       y       z     vdW  Elec       q    Type
REMARK                         _______ _______ _______ _____ _____    ______ ____
ROOT
ATOM      1  C8  UNL     1      11.212   6.561  22.723  0.00  0.00    +0.248 C 
ATOM      2  O2  UNL     1      11.220   6.242  23.947  0.00  0.00    -0.270 OA
ATOM      3  N2  UNL     1      10.685   7.847  22.320  0.00  0.00    -0.293 N 
ATOM      4  C9  UNL     1      10.600   8.903  23.348  0.00  0.00    +0.108 C 
ATOM      5  C10 UNL     1      10.652  10.297  22.739  0.00  0.00    +0.019 C 
ATOM      6  C11 UNL     1       9.602  10.440  21.641  0.00  0.00    +0.006 C 
ATOM      7  C12 UNL     1       9.809   9.404  20.519  0.00  0.00    +0.008 C 
ATOM      8  C13 UNL     1      11.041   9.750  19.661  0.00  0.00    +0.009 C 
ATOM      9  C14 UNL     1       9.904   7.945  21.062  0.00  0.00    +0.093 C 
ENDROOT
BRANCH   1  14
ATOM     10  C4  UNL     1      13.459   4.973  20.111  0.00  0.00    +0.140 A 
ATOM     11  C5  UNL     1      12.757   3.783  19.891  0.00  0.00    +0.156 A 
ATOM     12  N1  UNL     1      11.633   3.511  20.596  0.00  0.00    -0.259 NA
ATOM     13  C6  UNL     1      11.135   4.379  21.515  0.00  0.00    +0.124 A 
ATOM     14  C7  UNL     1      11.769   5.605  21.744  0.00  0.00    +0.058 A 
ATOM     15  C18 UNL     1      12.948   5.893  21.043  0.00  0.00    +0.061 A 
BRANCH  10  16
ATOM     16  O1  UNL     1      14.648   5.188  19.392  0.00  0.00    -0.488 OA
BRANCH  16  18
ATOM     17  C1  UNL     1      16.394   3.542  19.733  0.00  0.00    +0.051 C 
ATOM     18  C2  UNL     1      15.971   5.004  19.894  0.00  0.00    +0.167 C 
ATOM     19  C3  UNL     1      16.918   5.915  19.115  0.00  0.00    +0.051 C 
ENDBRANCH  16  18
ENDBRANCH  10  16
ENDBRANCH   1  14
BRANCH   9  20
ATOM     20  C15 UNL     1       8.532   7.246  21.184  0.00  0.00    +0.103 C 
BRANCH  20  21
ATOM     21  N3  UNL     1       8.388   6.142  20.227  0.00  0.00    -0.312 NA
ATOM     22  H23 UNL     1       8.202   6.548  19.282  0.00  0.00    +0.122 HD
BRANCH  21  23
ATOM     23  C16 UNL     1       7.268   5.250  20.571  0.00  0.00    +0.108 C 
BRANCH  23  24
ATOM     24  C17 UNL     1       6.083   5.393  19.603  0.00  0.00    +0.171 C 
BRANCH  24  25
ATOM     25  O3  UNL     1       6.090   4.324  18.701  0.00  0.00    -0.394 OA
ATOM     26  H28 UNL     1       6.586   4.637  17.901  0.00  0.00    +0.209 HD
ENDBRANCH  24  25
ENDBRANCH  23  24
ENDBRANCH  21  23
ENDBRANCH  20  21
ENDBRANCH   9  20
TORSDOF 8
ENDMDL
MODEL 6
REMARK VINA RESULT:    -5.303     14.108     16.431
REMARK INTER + INTRA:          -8.473
REMARK INTER:                  -7.501
REMARK INTRA:                  -0.972
REMARK UNBOUND:                -0.846
REMARK  Name = /home/qwerty/github/datacon2025hack/step_04_hit_selection/docking/ligands/lig_611.pdb
REMARK  11 active torsions:
REMARK  status: ('A' for Active; 'I' for Inactive)
REMARK    1  A    between atoms: C1_1  and  C2_2
REMARK    2  A    between atoms: C2_2  and  C3_3
REMARK    3  A    between atoms: C2_2  and  O1_4
REMARK    4  A    between atoms: O1_4  and  C4_5
REMARK    5  A    between atoms: C7_9  and  C8_10
REMARK    6  A    between atoms: C12_16  and  C13_17
REMARK    7  A    between atoms: C14_18  and  C15_19
REMARK    8  A    between atoms: C15_19  and  N3_20
REMARK    9  A    between atoms: N3_20  and  C16_21
REMARK   10  A    between atoms: C16_21  and  C17_22
REMARK   11  A    between atoms: C17_22  and  O3_23
REMARK                            x       y       z     vdW  Elec       q    Type
REMARK                         _______ _______ _______ _____ _____    ______ ____
ROOT
ATOM      1  C8  UNL     1      11.709  11.842  29.526  0.00  0.00    +0.248 C 
ATOM      2  O2  UNL     1      12.436  10.883  29.135  0.00  0.00    -0.270 OA
ATOM      3  N2  UNL     1      10.461  12.118  28.848  0.00  0.00    -0.293 N 
ATOM      4  C9  UNL     1       9.865  11.033  28.044  0.00  0.00    +0.108 C 
ATOM      5  C10 UNL     1       8.356  11.180  27.917  0.00  0.00    +0.019 C 
ATOM      6  C11 UNL     1       7.994  12.573  27.409  0.00  0.00    +0.006 C 
ATOM      7  C12 UNL     1       8.520  13.674  28.350  0.00  0.00    +0.008 C 
ATOM      8  C13 UNL     1       7.707  13.724  29.658  0.00  0.00    +0.009 C 
ATOM      9  C14 UNL     1      10.044  13.528  28.651  0.00  0.00    +0.093 C 
ENDROOT
BRANCH   1  14
ATOM     10  C4  UNL     1      11.706  13.759  32.799  0.00  0.00    +0.140 A 
ATOM     11  C5  UNL     1      13.048  14.155  32.840  0.00  0.00    +0.156 A 
ATOM     12  N1  UNL     1      13.904  13.773  31.862  0.00  0.00    -0.259 NA
ATOM     13  C6  UNL     1      13.497  13.022  30.806  0.00  0.00    +0.124 A 
ATOM     14  C7  UNL     1      12.157  12.635  30.689  0.00  0.00    +0.058 A 
ATOM     15  C18 UNL     1      11.262  12.998  31.704  0.00  0.00    +0.061 A 
BRANCH  10  16
ATOM     16  O1  UNL     1      10.868  14.137  33.863  0.00  0.00    -0.488 OA
BRANCH  16  18
ATOM     17  C1  UNL     1       9.787  14.179  36.032  0.00  0.00    +0.051 C 
ATOM     18  C2  UNL     1      10.995  13.707  35.219  0.00  0.00    +0.167 C 
ATOM     19  C3  UNL     1      11.081  12.183  35.239  0.00  0.00    +0.051 C 
ENDBRANCH  16  18
ENDBRANCH  10  16
ENDBRANCH   1  14
BRANCH   9  20
ATOM     20  C15 UNL     1      10.942  14.253  27.625  0.00  0.00    +0.103 C 
BRANCH  20  21
ATOM     21  N3  UNL     1      11.763  15.297  28.249  0.00  0.00    -0.312 NA
ATOM     22  H23 UNL     1      11.400  16.228  27.944  0.00  0.00    +0.122 HD
BRANCH  21  23
ATOM     23  C16 UNL     1      13.178  15.204  27.853  0.00  0.00    +0.108 C 
BRANCH  23  24
ATOM     24  C17 UNL     1      13.394  14.258  26.661  0.00  0.00    +0.171 C 
BRANCH  24  25
ATOM     25  O3  UNL     1      14.557  13.509  26.868  0.00  0.00    -0.394 OA
ATOM     26  H28 UNL     1      14.818  13.654  27.813  0.00  0.00    +0.209 HD
ENDBRANCH  24  25
ENDBRANCH  23  24
ENDBRANCH  21  23
ENDBRANCH  20  21
ENDBRANCH   9  20
TORSDOF 8
ENDMDL
MODEL 7
REMARK VINA RESULT:    -5.241      4.546      7.596
REMARK INTER + INTRA:          -8.384
REMARK INTER:                  -7.600
REMARK INTRA:                  -0.784
REMARK UNBOUND:                -0.846
REMARK  Name = /home/qwerty/github/datacon2025hack/step_04_hit_selection/docking/ligands/lig_611.pdb
REMARK  11 active torsions:
REMARK  status: ('A' for Active; 'I' for Inactive)
REMARK    1  A    between atoms: C1_1  and  C2_2
REMARK    2  A    between atoms: C2_2  and  C3_3
REMARK    3  A    between atoms: C2_2  and  O1_4
REMARK    4  A    between atoms: O1_4  and  C4_5
REMARK    5  A    between atoms: C7_9  and  C8_10
REMARK    6  A    between atoms: C12_16  and  C13_17
REMARK    7  A    between atoms: C14_18  and  C15_19
REMARK    8  A    between atoms: C15_19  and  N3_20
REMARK    9  A    between atoms: N3_20  and  C16_21
REMARK   10  A    between atoms: C16_21  and  C17_22
REMARK   11  A    between atoms: C17_22  and  O3_23
REMARK                            x       y       z     vdW  Elec       q    Type
REMARK                         _______ _______ _______ _____ _____    ______ ____
ROOT
ATOM      1  C8  UNL     1      21.153   4.367  32.244  0.00  0.00    +0.248 C 
ATOM      2  O2  UNL     1      19.973   4.223  32.678  0.00  0.00    -0.270 OA
ATOM      3  N2  UNL     1      22.057   5.276  32.915  0.00  0.00    -0.293 N 
ATOM      4  C9  UNL     1      21.744   5.647  34.309  0.00  0.00    +0.108 C 
ATOM      5  C10 UNL     1      22.990   6.044  35.088  0.00  0.00    +0.019 C 
ATOM      6  C11 UNL     1      23.768   7.122  34.338  0.00  0.00    +0.006 C 
ATOM      7  C12 UNL     1      24.193   6.644  32.936  0.00  0.00    +0.008 C 
ATOM      8  C13 UNL     1      25.328   5.605  33.022  0.00  0.00    +0.009 C 
ATOM      9  C14 UNL     1      22.997   6.089  32.104  0.00  0.00    +0.093 C 
ENDROOT
BRANCH   1  14
ATOM     10  C4  UNL     1      21.726   3.258  28.662  0.00  0.00    +0.140 A 
ATOM     11  C5  UNL     1      22.357   2.031  28.895  0.00  0.00    +0.156 A 
ATOM     12  N1  UNL     1      22.610   1.622  30.160  0.00  0.00    -0.259 NA
ATOM     13  C6  UNL     1      22.247   2.362  31.240  0.00  0.00    +0.124 A 
ATOM     14  C7  UNL     1      21.572   3.576  31.069  0.00  0.00    +0.058 A 
ATOM     15  C18 UNL     1      21.324   4.029  29.767  0.00  0.00    +0.061 A 
BRANCH  10  16
ATOM     16  O1  UNL     1      21.529   3.664  27.330  0.00  0.00    -0.488 OA
BRANCH  16  18
ATOM     17  C1  UNL     1      21.222   2.529  25.211  0.00  0.00    +0.051 C 
ATOM     18  C2  UNL     1      22.220   3.151  26.191  0.00  0.00    +0.167 C 
ATOM     19  C3  UNL     1      22.972   4.298  25.520  0.00  0.00    +0.051 C 
ENDBRANCH  16  18
ENDBRANCH  10  16
ENDBRANCH   1  14
BRANCH   9  20
ATOM     20  C15 UNL     1      22.259   7.176  31.292  0.00  0.00    +0.103 C 
BRANCH  20  21
ATOM     21  N3  UNL     1      23.183   7.995  30.499  0.00  0.00    -0.312 NA
ATOM     22  H23 UNL     1      24.155   7.649  30.663  0.00  0.00    +0.122 HD
BRANCH  21  23
ATOM     23  C16 UNL     1      23.132   9.417  30.878  0.00  0.00    +0.108 C 
BRANCH  23  24
ATOM     24  C17 UNL     1      21.701   9.977  30.870  0.00  0.00    +0.171 C 
BRANCH  24  25
ATOM     25  O3  UNL     1      21.243  10.061  29.551  0.00  0.00    -0.394 OA
ATOM     26  H28 UNL     1      20.500  10.718  29.555  0.00  0.00    +0.209 HD
ENDBRANCH  24  25
ENDBRANCH  23  24
ENDBRANCH  21  23
ENDBRANCH  20  21
ENDBRANCH   9  20
TORSDOF 8
ENDMDL
MODEL 8
REMARK VINA RESULT:    -5.055     13.386     15.018
REMARK INTER + INTRA:          -8.117
REMARK INTER:                  -7.134
REMARK INTRA:                  -0.983
REMARK UNBOUND:                -0.846
REMARK  Name = /home/qwerty/github/datacon2025hack/step_04_hit_selection/docking/ligands/lig_611.pdb
REMARK  11 active torsions:
REMARK  status: ('A' for Active; 'I' for Inactive)
REMARK    1  A    between atoms: C1_1  and  C2_2
REMARK    2  A    between atoms: C2_2  and  C3_3
REMARK    3  A    between atoms: C2_2  and  O1_4
REMARK    4  A    between atoms: O1_4  and  C4_5
REMARK    5  A    between atoms: C7_9  and  C8_10
REMARK    6  A    between atoms: C12_16  and  C13_17
REMARK    7  A    between atoms: C14_18  and  C15_19
REMARK    8  A    between atoms: C15_19  and  N3_20
REMARK    9  A    between atoms: N3_20  and  C16_21
REMARK   10  A    between atoms: C16_21  and  C17_22
REMARK   11  A    between atoms: C17_22  and  O3_23
REMARK                            x       y       z     vdW  Elec       q    Type
REMARK                         _______ _______ _______ _____ _____    ______ ____
ROOT
ATOM      1  C8  UNL     1       8.655  12.235  28.349  0.00  0.00    +0.248 C 
ATOM      2  O2  UNL     1       7.862  13.221  28.321  0.00  0.00    -0.270 OA
ATOM      3  N2  UNL     1       9.919  12.351  29.044  0.00  0.00    -0.293 N 
ATOM      4  C9  UNL     1      10.047  13.417  30.057  0.00  0.00    +0.108 C 
ATOM      5  C10 UNL     1      11.087  13.077  31.114  0.00  0.00    +0.019 C 
ATOM      6  C11 UNL     1      12.415  12.707  30.459  0.00  0.00    +0.006 C 
ATOM      7  C12 UNL     1      12.263  11.502  29.511  0.00  0.00    +0.008 C 
ATOM      8  C13 UNL     1      12.061  10.194  30.300  0.00  0.00    +0.009 C 
ATOM      9  C14 UNL     1      11.122  11.701  28.467  0.00  0.00    +0.093 C 
ENDROOT
BRANCH   1  14
ATOM     10  C4  UNL     1       7.928   9.642  25.677  0.00  0.00    +0.140 A 
ATOM     11  C5  UNL     1       7.427   8.612  26.480  0.00  0.00    +0.156 A 
ATOM     12  N1  UNL     1       7.374   8.758  27.825  0.00  0.00    -0.259 NA
ATOM     13  C6  UNL     1       7.776   9.901  28.440  0.00  0.00    +0.124 A 
ATOM     14  C7  UNL     1       8.243  10.982  27.683  0.00  0.00    +0.058 A 
ATOM     15  C18 UNL     1       8.331  10.841  26.292  0.00  0.00    +0.061 A 
BRANCH  10  16
ATOM     16  O1  UNL     1       8.012   9.425  24.290  0.00  0.00    -0.488 OA
BRANCH  16  18
ATOM     17  C1  UNL     1      10.031   9.095  22.990  0.00  0.00    +0.051 C 
ATOM     18  C2  UNL     1       8.922  10.069  23.398  0.00  0.00    +0.167 C 
ATOM     19  C3  UNL     1       8.149  10.533  22.166  0.00  0.00    +0.051 C 
ENDBRANCH  16  18
ENDBRANCH  10  16
ENDBRANCH   1  14
BRANCH   9  20
ATOM     20  C15 UNL     1      11.589  12.406  27.175  0.00  0.00    +0.103 C 
BRANCH  20  21
ATOM     21  N3  UNL     1      13.002  12.797  27.239  0.00  0.00    -0.312 NA
ATOM     22  H23 UNL     1      13.351  12.618  28.208  0.00  0.00    +0.122 HD
BRANCH  21  23
ATOM     23  C16 UNL     1      13.200  14.224  26.937  0.00  0.00    +0.108 C 
BRANCH  23  24
ATOM     24  C17 UNL     1      12.044  15.099  27.447  0.00  0.00    +0.171 C 
BRANCH  24  25
ATOM     25  O3  UNL     1      12.398  15.666  28.675  0.00  0.00    -0.394 OA
ATOM     26  H28 UNL     1      11.929  16.538  28.726  0.00  0.00    +0.209 HD
ENDBRANCH  24  25
ENDBRANCH  23  24
ENDBRANCH  21  23
ENDBRANCH  20  21
ENDBRANCH   9  20
TORSDOF 8
ENDMDL
MODEL 9
REMARK VINA RESULT:    -5.046      3.313      7.227
REMARK INTER + INTRA:          -8.105
REMARK INTER:                  -7.207
REMARK INTRA:                  -0.898
REMARK UNBOUND:                -0.846
REMARK  Name = /home/qwerty/github/datacon2025hack/step_04_hit_selection/docking/ligands/lig_611.pdb
REMARK  11 active torsions:
REMARK  status: ('A' for Active; 'I' for Inactive)
REMARK    1  A    between atoms: C1_1  and  C2_2
REMARK    2  A    between atoms: C2_2  and  C3_3
REMARK    3  A    between atoms: C2_2  and  O1_4
REMARK    4  A    between atoms: O1_4  and  C4_5
REMARK    5  A    between atoms: C7_9  and  C8_10
REMARK    6  A    between atoms: C12_16  and  C13_17
REMARK    7  A    between atoms: C14_18  and  C15_19
REMARK    8  A    between atoms: C15_19  and  N3_20
REMARK    9  A    between atoms: N3_20  and  C16_21
REMARK   10  A    between atoms: C16_21  and  C17_22
REMARK   11  A    between atoms: C17_22  and  O3_23
REMARK                            x       y       z     vdW  Elec       q    Type
REMARK                         _______ _______ _______ _____ _____    ______ ____
ROOT
ATOM      1  C8  UNL     1      21.739   1.086  29.394  0.00  0.00    +0.248 C 
ATOM      2  O2  UNL     1      22.729   0.325  29.195  0.00  0.00    -0.270 OA
ATOM      3  N2  UNL     1      20.933   1.522  28.275  0.00  0.00    -0.293 N 
ATOM      4  C9  UNL     1      21.001   0.728  27.032  0.00  0.00    +0.108 C 
ATOM      5  C10 UNL     1      19.734   0.858  26.200  0.00  0.00    +0.019 C 
ATOM      6  C11 UNL     1      19.402   2.328  25.957  0.00  0.00    +0.006 C 
ATOM      7  C12 UNL     1      19.204   3.091  27.281  0.00  0.00    +0.008 C 
ATOM      8  C13 UNL     1      17.877   2.699  27.958  0.00  0.00    +0.009 C 
ATOM      9  C14 UNL     1      20.402   2.908  28.263  0.00  0.00    +0.093 C 
ENDROOT
BRANCH   1  14
ATOM     10  C4  UNL     1      21.790   2.914  32.718  0.00  0.00    +0.140 A 
ATOM     11  C5  UNL     1      20.820   2.176  33.406  0.00  0.00    +0.156 A 
ATOM     12  N1  UNL     1      20.165   1.164  32.789  0.00  0.00    -0.259 NA
ATOM     13  C6  UNL     1      20.435   0.813  31.504  0.00  0.00    +0.124 A 
ATOM     14  C7  UNL     1      21.427   1.486  30.782  0.00  0.00    +0.058 A 
ATOM     15  C18 UNL     1      22.097   2.552  31.394  0.00  0.00    +0.061 A 
BRANCH  10  16
ATOM     16  O1  UNL     1      22.407   3.988  33.384  0.00  0.00    -0.488 OA
BRANCH  16  18
ATOM     17  C1  UNL     1      22.083   5.967  34.745  0.00  0.00    +0.051 C 
ATOM     18  C2  UNL     1      21.977   5.349  33.349  0.00  0.00    +0.167 C 
ATOM     19  C3  UNL     1      22.862   6.112  32.367  0.00  0.00    +0.051 C 
ENDBRANCH  16  18
ENDBRANCH  10  16
ENDBRANCH   1  14
BRANCH   9  20
ATOM     20  C15 UNL     1      21.525   3.949  28.060  0.00  0.00    +0.103 C 
BRANCH  20  21
ATOM     21  N3  UNL     1      21.134   5.008  27.123  0.00  0.00    -0.312 NA
ATOM     22  H23 UNL     1      20.114   4.909  26.919  0.00  0.00    +0.122 HD
BRANCH  21  23
ATOM     23  C16 UNL     1      21.866   4.921  25.848  0.00  0.00    +0.108 C 
BRANCH  23  24
ATOM     24  C17 UNL     1      22.948   3.829  25.864  0.00  0.00    +0.171 C 
BRANCH  24  25
ATOM     25  O3  UNL     1      22.704   2.921  24.828  0.00  0.00    -0.394 OA
ATOM     26  H28 UNL     1      21.734   2.976  24.631  0.00  0.00    +0.209 HD
ENDBRANCH  24  25
ENDBRANCH  23  24
ENDBRANCH  21  23
ENDBRANCH  20  21
ENDBRANCH   9  20
TORSDOF 8
ENDMDL
