MODEL 1
REMARK VINA RESULT:    -7.560      0.000      0.000
REMARK INTER + INTRA:         -10.399
REMARK INTER:                  -9.328
REMARK INTRA:                  -1.071
REMARK UNBOUND:                -1.071
REMARK  Name = /home/qwerty/github/datacon2025hack/step_04_hit_selection/docking/ligands/lig_642.pdb
REMARK  5 active torsions:
REMARK  status: ('A' for Active; 'I' for Inactive)
REMARK    1  A    between atoms: C1_1  and  C2_2
REMARK    2  A    between atoms: C3_3  and  N1_4
REMARK    3  A    between atoms: C4_5  and  C5_7
REMARK    4  A    between atoms: C8_12  and  C9_13
REMARK    5  A    between atoms: C19_23  and  C20_24
REMARK                            x       y       z     vdW  Elec       q    Type
REMARK                         _______ _______ _______ _____ _____    ______ ____
ROOT
ATOM      1  C1  UNL     1       9.800   7.090  23.872  0.00  0.00    +0.046 C 
ATOM      2  C2  UNL     1       8.751   6.404  23.025  0.00  0.00    -0.019 A 
ATOM      3  C3  UNL     1       8.328   5.090  23.348  0.00  0.00    +0.037 A 
ATOM      4  C16 UNL     1       7.333   4.473  22.576  0.00  0.00    +0.023 A 
ATOM      5  C17 UNL     1       6.760   5.137  21.495  0.00  0.00    +0.003 A 
ATOM      6  C18 UNL     1       7.182   6.420  21.158  0.00  0.00    +0.012 A 
ATOM      7  C19 UNL     1       8.179   7.061  21.907  0.00  0.00    +0.024 A 
ENDROOT
BRANCH   7   8
ATOM      8  C20 UNL     1       8.625   8.405  21.483  0.00  0.00    +0.165 A 
ATOM      9  N3  UNL     1       7.883   9.517  21.655  0.00  0.00    -0.129 NA
ATOM     10  N4  UNL     1       8.574  10.526  21.145  0.00  0.00    -0.134 NA
ATOM     11  C21 UNL     1       9.730  10.020  20.672  0.00  0.00    +0.134 A 
ATOM     12  N5  UNL     1       9.793   8.684  20.866  0.00  0.00    -0.311 N 
ATOM     13  C22 UNL     1      10.816   7.757  20.380  0.00  0.00    +0.125 C 
ATOM     14  C23 UNL     1      12.165   7.998  21.075  0.00  0.00    +0.022 C 
ATOM     15  C24 UNL     1      12.569   9.482  21.186  0.00  0.00    +0.002 C 
ATOM     16  C25 UNL     1      12.197  10.302  19.938  0.00  0.00    +0.008 C 
ATOM     17  C26 UNL     1      10.761  10.871  19.971  0.00  0.00    +0.076 C 
ENDBRANCH   7   8
BRANCH   3  18
ATOM     18  N1  UNL     1       8.940   4.366  24.430  0.00  0.00    -0.277 N 
ATOM     19  C4  UNL     1       8.482   4.468  25.790  0.00  0.00    +0.303 C 
ATOM     20  O1  UNL     1       7.550   5.263  26.080  0.00  0.00    -0.265 OA
ATOM     21  H4  UNL     1       9.817   3.833  24.236  0.00  0.00    +0.155 HD
BRANCH  19  22
ATOM     22  C5  UNL     1       9.109   3.637  26.843  0.00  0.00    +0.302 C 
ATOM     23  O2  UNL     1       9.999   4.157  27.569  0.00  0.00    -0.265 OA
ATOM     24  N2  UNL     1       8.736   2.261  27.068  0.00  0.00    -0.293 N 
ATOM     25  C6  UNL     1       7.590   1.598  26.464  0.00  0.00    +0.109 C 
ATOM     26  C7  UNL     1       7.418   0.288  27.220  0.00  0.00    +0.028 C 
ATOM     27  C8  UNL     1       8.747   0.053  27.947  0.00  0.00    +0.038 C 
ATOM     28  C15 UNL     1       9.416   1.426  28.045  0.00  0.00    +0.116 C 
BRANCH  27  29
ATOM     29  C9  UNL     1       8.574  -0.629  29.292  0.00  0.00    -0.043 A 
ATOM     30  C10 UNL     1       7.383  -0.491  30.032  0.00  0.00    +0.004 A 
ATOM     31  C11 UNL     1       7.236  -1.132  31.266  0.00  0.00    +0.000 A 
ATOM     32  C12 UNL     1       8.274  -1.916  31.774  0.00  0.00    +0.000 A 
ATOM     33  C13 UNL     1       9.459  -2.064  31.049  0.00  0.00    +0.000 A 
ATOM     34  C14 UNL     1       9.611  -1.424  29.815  0.00  0.00    +0.004 A 
ENDBRANCH  27  29
ENDBRANCH  19  22
ENDBRANCH   3  18
TORSDOF 4
ENDMDL
MODEL 2
REMARK VINA RESULT:    -7.475      8.575     11.390
REMARK INTER + INTRA:         -10.295
REMARK INTER:                  -9.168
REMARK INTRA:                  -1.127
REMARK UNBOUND:                -1.071
REMARK  Name = /home/qwerty/github/datacon2025hack/step_04_hit_selection/docking/ligands/lig_642.pdb
REMARK  5 active torsions:
REMARK  status: ('A' for Active; 'I' for Inactive)
REMARK    1  A    between atoms: C1_1  and  C2_2
REMARK    2  A    between atoms: C3_3  and  N1_4
REMARK    3  A    between atoms: C4_5  and  C5_7
REMARK    4  A    between atoms: C8_12  and  C9_13
REMARK    5  A    between atoms: C19_23  and  C20_24
REMARK                            x       y       z     vdW  Elec       q    Type
REMARK                         _______ _______ _______ _____ _____    ______ ____
ROOT
ATOM      1  C1  UNL     1      19.406   8.540  20.340  0.00  0.00    +0.046 C 
ATOM      2  C2  UNL     1      18.483   9.645  19.879  0.00  0.00    -0.019 A 
ATOM      3  C3  UNL     1      17.103   9.384  19.691  0.00  0.00    +0.037 A 
ATOM      4  C16 UNL     1      16.249  10.423  19.292  0.00  0.00    +0.023 A 
ATOM      5  C17 UNL     1      16.744  11.706  19.077  0.00  0.00    +0.003 A 
ATOM      6  C18 UNL     1      18.102  11.968  19.239  0.00  0.00    +0.012 A 
ATOM      7  C19 UNL     1      18.982  10.949  19.632  0.00  0.00    +0.024 A 
ENDROOT
BRANCH   7   8
ATOM      8  C20 UNL     1      20.420  11.267  19.747  0.00  0.00    +0.165 A 
ATOM      9  N3  UNL     1      21.299  11.086  18.742  0.00  0.00    -0.129 NA
ATOM     10  N4  UNL     1      22.489  11.451  19.196  0.00  0.00    -0.134 NA
ATOM     11  C21 UNL     1      22.322  11.855  20.472  0.00  0.00    +0.134 A 
ATOM     12  N5  UNL     1      21.030  11.748  20.852  0.00  0.00    -0.311 N 
ATOM     13  C22 UNL     1      20.470  11.959  22.188  0.00  0.00    +0.125 C 
ATOM     14  C23 UNL     1      20.548  13.438  22.600  0.00  0.00    +0.022 C 
ATOM     15  C24 UNL     1      21.902  14.112  22.299  0.00  0.00    +0.002 C 
ATOM     16  C25 UNL     1      23.105  13.186  22.550  0.00  0.00    +0.008 C 
ATOM     17  C26 UNL     1      23.475  12.302  21.338  0.00  0.00    +0.076 C 
ENDBRANCH   7   8
BRANCH   3  18
ATOM     18  N1  UNL     1      16.577   8.057  19.861  0.00  0.00    -0.277 N 
ATOM     19  C4  UNL     1      15.958   7.616  21.082  0.00  0.00    +0.303 C 
ATOM     20  O1  UNL     1      15.919   8.386  22.079  0.00  0.00    -0.265 OA
ATOM     21  H4  UNL     1      16.750   7.355  19.107  0.00  0.00    +0.155 HD
BRANCH  19  22
ATOM     22  C5  UNL     1      15.369   6.260  21.165  0.00  0.00    +0.302 C 
ATOM     23  O2  UNL     1      14.172   6.101  20.797  0.00  0.00    -0.265 OA
ATOM     24  N2  UNL     1      16.111   5.121  21.646  0.00  0.00    -0.293 N 
ATOM     25  C6  UNL     1      17.545   5.106  21.897  0.00  0.00    +0.109 C 
ATOM     26  C7  UNL     1      17.922   3.642  22.082  0.00  0.00    +0.028 C 
ATOM     27  C8  UNL     1      16.605   2.908  22.360  0.00  0.00    +0.038 C 
ATOM     28  C15 UNL     1      15.501   3.811  21.806  0.00  0.00    +0.116 C 
BRANCH  27  29
ATOM     29  C9  UNL     1      16.577   1.502  21.788  0.00  0.00    -0.043 A 
ATOM     30  C10 UNL     1      16.282   1.274  20.429  0.00  0.00    +0.004 A 
ATOM     31  C11 UNL     1      16.268  -0.026  19.916  0.00  0.00    +0.000 A 
ATOM     32  C12 UNL     1      16.547  -1.111  20.750  0.00  0.00    +0.000 A 
ATOM     33  C13 UNL     1      16.843  -0.898  22.099  0.00  0.00    +0.000 A 
ATOM     34  C14 UNL     1      16.858   0.401  22.617  0.00  0.00    +0.004 A 
ENDBRANCH  27  29
ENDBRANCH  19  22
ENDBRANCH   3  18
TORSDOF 4
ENDMDL
MODEL 3
REMARK VINA RESULT:    -7.452      7.718     13.836
REMARK INTER + INTRA:         -10.266
REMARK INTER:                  -9.156
REMARK INTRA:                  -1.110
REMARK UNBOUND:                -1.071
REMARK  Name = /home/qwerty/github/datacon2025hack/step_04_hit_selection/docking/ligands/lig_642.pdb
REMARK  5 active torsions:
REMARK  status: ('A' for Active; 'I' for Inactive)
REMARK    1  A    between atoms: C1_1  and  C2_2
REMARK    2  A    between atoms: C3_3  and  N1_4
REMARK    3  A    between atoms: C4_5  and  C5_7
REMARK    4  A    between atoms: C8_12  and  C9_13
REMARK    5  A    between atoms: C19_23  and  C20_24
REMARK                            x       y       z     vdW  Elec       q    Type
REMARK                         _______ _______ _______ _____ _____    ______ ____
ROOT
ATOM      1  C1  UNL     1      16.733   1.956  23.813  0.00  0.00    +0.046 C 
ATOM      2  C2  UNL     1      16.527   1.476  22.394  0.00  0.00    -0.019 A 
ATOM      3  C3  UNL     1      16.531   2.406  21.324  0.00  0.00    +0.037 A 
ATOM      4  C16 UNL     1      16.369   1.949  20.007  0.00  0.00    +0.023 A 
ATOM      5  C17 UNL     1      16.202   0.593  19.742  0.00  0.00    +0.003 A 
ATOM      6  C18 UNL     1      16.176  -0.326  20.788  0.00  0.00    +0.012 A 
ATOM      7  C19 UNL     1      16.330   0.100  22.115  0.00  0.00    +0.024 A 
ENDROOT
BRANCH   7   8
ATOM      8  C20 UNL     1      16.251  -0.908  23.192  0.00  0.00    +0.165 A 
ATOM      9  N3  UNL     1      17.253  -1.763  23.478  0.00  0.00    -0.129 NA
ATOM     10  N4  UNL     1      16.836  -2.530  24.475  0.00  0.00    -0.134 NA
ATOM     11  C21 UNL     1      15.587  -2.132  24.789  0.00  0.00    +0.134 A 
ATOM     12  N5  UNL     1      15.185  -1.114  23.997  0.00  0.00    -0.311 N 
ATOM     13  C22 UNL     1      13.859  -0.498  23.934  0.00  0.00    +0.125 C 
ATOM     14  C23 UNL     1      13.542   0.279  25.221  0.00  0.00    +0.022 C 
ATOM     15  C24 UNL     1      13.899  -0.470  26.521  0.00  0.00    +0.002 C 
ATOM     16  C25 UNL     1      13.605  -1.978  26.449  0.00  0.00    +0.008 C 
ATOM     17  C26 UNL     1      14.763  -2.812  25.856  0.00  0.00    +0.076 C 
ENDBRANCH   7   8
BRANCH   3  18
ATOM     18  N1  UNL     1      16.654   3.816  21.577  0.00  0.00    -0.277 N 
ATOM     19  C4  UNL     1      17.926   4.476  21.701  0.00  0.00    +0.303 C 
ATOM     20  O1  UNL     1      18.989   3.802  21.651  0.00  0.00    -0.265 OA
ATOM     21  H4  UNL     1      15.787   4.359  21.787  0.00  0.00    +0.155 HD
BRANCH  19  22
ATOM     22  C5  UNL     1      17.982   5.944  21.886  0.00  0.00    +0.302 C 
ATOM     23  O2  UNL     1      18.118   6.398  23.055  0.00  0.00    -0.265 OA
ATOM     24  N2  UNL     1      17.888   6.868  20.781  0.00  0.00    -0.293 N 
ATOM     25  C6  UNL     1      17.946   6.495  19.376  0.00  0.00    +0.109 C 
ATOM     26  C7  UNL     1      18.122   7.796  18.605  0.00  0.00    +0.028 C 
ATOM     27  C8  UNL     1      17.722   8.911  19.579  0.00  0.00    +0.038 C 
ATOM     28  C15 UNL     1      17.856   8.308  20.979  0.00  0.00    +0.116 C 
BRANCH  27  29
ATOM     29  C9  UNL     1      18.531  10.182  19.391  0.00  0.00    -0.043 A 
ATOM     30  C10 UNL     1      17.972  11.447  19.657  0.00  0.00    +0.004 A 
ATOM     31  C11 UNL     1      18.733  12.608  19.486  0.00  0.00    +0.000 A 
ATOM     32  C12 UNL     1      20.056  12.519  19.050  0.00  0.00    +0.000 A 
ATOM     33  C13 UNL     1      20.624  11.270  18.785  0.00  0.00    +0.000 A 
ATOM     34  C14 UNL     1      19.866  10.106  18.954  0.00  0.00    +0.004 A 
ENDBRANCH  27  29
ENDBRANCH  19  22
ENDBRANCH   3  18
TORSDOF 4
ENDMDL
MODEL 4
REMARK VINA RESULT:    -7.376      5.619      7.150
REMARK INTER + INTRA:         -10.173
REMARK INTER:                  -9.053
REMARK INTRA:                  -1.119
REMARK UNBOUND:                -1.071
REMARK  Name = /home/qwerty/github/datacon2025hack/step_04_hit_selection/docking/ligands/lig_642.pdb
REMARK  5 active torsions:
REMARK  status: ('A' for Active; 'I' for Inactive)
REMARK    1  A    between atoms: C1_1  and  C2_2
REMARK    2  A    between atoms: C3_3  and  N1_4
REMARK    3  A    between atoms: C4_5  and  C5_7
REMARK    4  A    between atoms: C8_12  and  C9_13
REMARK    5  A    between atoms: C19_23  and  C20_24
REMARK                            x       y       z     vdW  Elec       q    Type
REMARK                         _______ _______ _______ _____ _____    ______ ____
ROOT
ATOM      1  C1  UNL     1      10.582   7.056  23.170  0.00  0.00    +0.046 C 
ATOM      2  C2  UNL     1      10.539   8.120  22.096  0.00  0.00    -0.019 A 
ATOM      3  C3  UNL     1      11.291   7.956  20.906  0.00  0.00    +0.037 A 
ATOM      4  C16 UNL     1      11.222   8.933  19.902  0.00  0.00    +0.023 A 
ATOM      5  C17 UNL     1      10.424  10.062  20.064  0.00  0.00    +0.003 A 
ATOM      6  C18 UNL     1       9.696  10.241  21.237  0.00  0.00    +0.012 A 
ATOM      7  C19 UNL     1       9.749   9.286  22.261  0.00  0.00    +0.024 A 
ENDROOT
BRANCH   7   8
ATOM      8  C20 UNL     1       8.994   9.543  23.505  0.00  0.00    +0.165 A 
ATOM      9  N3  UNL     1       7.660   9.377  23.607  0.00  0.00    -0.129 NA
ATOM     10  N4  UNL     1       7.321   9.715  24.842  0.00  0.00    -0.134 NA
ATOM     11  C21 UNL     1       8.450  10.080  25.481  0.00  0.00    +0.134 A 
ATOM     12  N5  UNL     1       9.524   9.987  24.666  0.00  0.00    -0.311 N 
ATOM     13  C22 UNL     1      10.896  10.414  24.941  0.00  0.00    +0.125 C 
ATOM     14  C23 UNL     1      11.548   9.540  26.024  0.00  0.00    +0.022 C 
ATOM     15  C24 UNL     1      10.648   9.262  27.245  0.00  0.00    +0.002 C 
ATOM     16  C25 UNL     1       9.798  10.478  27.656  0.00  0.00    +0.008 C 
ATOM     17  C26 UNL     1       8.451  10.578  26.906  0.00  0.00    +0.076 C 
ENDBRANCH   7   8
BRANCH   3  18
ATOM     18  N1  UNL     1      12.160   6.822  20.736  0.00  0.00    -0.277 N 
ATOM     19  C4  UNL     1      11.710   5.575  20.179  0.00  0.00    +0.303 C 
ATOM     20  O1  UNL     1      10.497   5.425  19.876  0.00  0.00    -0.265 OA
ATOM     21  H4  UNL     1      13.124   6.873  21.135  0.00  0.00    +0.155 HD
BRANCH  19  22
ATOM     22  C5  UNL     1      12.675   4.473  19.961  0.00  0.00    +0.302 C 
ATOM     23  O2  UNL     1      13.539   4.600  19.051  0.00  0.00    -0.265 OA
ATOM     24  N2  UNL     1      12.662   3.266  20.751  0.00  0.00    -0.293 N 
ATOM     25  C6  UNL     1      11.877   3.069  21.960  0.00  0.00    +0.109 C 
ATOM     26  C7  UNL     1      12.414   1.799  22.605  0.00  0.00    +0.028 C 
ATOM     27  C8  UNL     1      13.202   1.078  21.506  0.00  0.00    +0.038 C 
ATOM     28  C15 UNL     1      13.555   2.152  20.475  0.00  0.00    +0.116 C 
BRANCH  27  29
ATOM     29  C9  UNL     1      14.412   0.330  22.036  0.00  0.00    -0.043 A 
ATOM     30  C10 UNL     1      15.640   0.349  21.345  0.00  0.00    +0.004 A 
ATOM     31  C11 UNL     1      16.748  -0.339  21.851  0.00  0.00    +0.000 A 
ATOM     32  C12 UNL     1      16.643  -1.049  23.048  0.00  0.00    +0.000 A 
ATOM     33  C13 UNL     1      15.432  -1.073  23.744  0.00  0.00    +0.000 A 
ATOM     34  C14 UNL     1      14.321  -0.388  23.242  0.00  0.00    +0.004 A 
ENDBRANCH  27  29
ENDBRANCH  19  22
ENDBRANCH   3  18
TORSDOF 4
ENDMDL
MODEL 5
REMARK VINA RESULT:    -7.267      9.808     14.299
REMARK INTER + INTRA:         -10.038
REMARK INTER:                  -9.132
REMARK INTRA:                  -0.906
REMARK UNBOUND:                -1.071
REMARK  Name = /home/qwerty/github/datacon2025hack/step_04_hit_selection/docking/ligands/lig_642.pdb
REMARK  5 active torsions:
REMARK  status: ('A' for Active; 'I' for Inactive)
REMARK    1  A    between atoms: C1_1  and  C2_2
REMARK    2  A    between atoms: C3_3  and  N1_4
REMARK    3  A    between atoms: C4_5  and  C5_7
REMARK    4  A    between atoms: C8_12  and  C9_13
REMARK    5  A    between atoms: C19_23  and  C20_24
REMARK                            x       y       z     vdW  Elec       q    Type
REMARK                         _______ _______ _______ _____ _____    ______ ____
ROOT
ATOM      1  C1  UNL     1      12.247  14.707  27.696  0.00  0.00    +0.046 C 
ATOM      2  C2  UNL     1      12.029  14.511  29.179  0.00  0.00    -0.019 A 
ATOM      3  C3  UNL     1      12.977  15.012  30.107  0.00  0.00    +0.037 A 
ATOM      4  C16 UNL     1      12.752  14.852  31.482  0.00  0.00    +0.023 A 
ATOM      5  C17 UNL     1      11.610  14.205  31.944  0.00  0.00    +0.003 A 
ATOM      6  C18 UNL     1      10.683  13.692  31.041  0.00  0.00    +0.012 A 
ATOM      7  C19 UNL     1      10.882  13.831  29.660  0.00  0.00    +0.024 A 
ENDROOT
BRANCH   7   8
ATOM      8  C20 UNL     1       9.892  13.231  28.741  0.00  0.00    +0.165 A 
ATOM      9  N3  UNL     1       8.706  13.805  28.457  0.00  0.00    -0.129 NA
ATOM     10  N4  UNL     1       8.072  12.992  27.625  0.00  0.00    -0.134 NA
ATOM     11  C21 UNL     1       8.878  11.933  27.409  0.00  0.00    +0.134 A 
ATOM     12  N5  UNL     1      10.033  12.050  28.100  0.00  0.00    -0.311 N 
ATOM     13  C22 UNL     1      11.100  11.058  28.235  0.00  0.00    +0.125 C 
ATOM     14  C23 UNL     1      11.833  10.841  26.902  0.00  0.00    +0.022 C 
ATOM     15  C24 UNL     1      10.903  10.700  25.679  0.00  0.00    +0.002 C 
ATOM     16  C25 UNL     1       9.623   9.903  25.984  0.00  0.00    +0.008 C 
ATOM     17  C26 UNL     1       8.469  10.766  26.543  0.00  0.00    +0.076 C 
ENDBRANCH   7   8
BRANCH   3  18
ATOM     18  N1  UNL     1      14.187  15.642  29.652  0.00  0.00    -0.277 N 
ATOM     19  C4  UNL     1      15.463  14.978  29.673  0.00  0.00    +0.303 C 
ATOM     20  O1  UNL     1      15.561  13.822  30.162  0.00  0.00    -0.265 OA
ATOM     21  H4  UNL     1      14.155  16.655  29.402  0.00  0.00    +0.155 HD
BRANCH  19  22
ATOM     22  C5  UNL     1      16.658  15.657  29.120  0.00  0.00    +0.302 C 
ATOM     23  O2  UNL     1      16.982  16.782  29.591  0.00  0.00    -0.265 OA
ATOM     24  N2  UNL     1      17.459  15.080  28.068  0.00  0.00    -0.293 N 
ATOM     25  C6  UNL     1      17.338  13.714  27.582  0.00  0.00    +0.109 C 
ATOM     26  C7  UNL     1      18.566  13.467  26.718  0.00  0.00    +0.028 C 
ATOM     27  C8  UNL     1      19.128  14.855  26.391  0.00  0.00    +0.038 C 
ATOM     28  C15 UNL     1      18.577  15.791  27.470  0.00  0.00    +0.116 C 
BRANCH  27  29
ATOM     29  C9  UNL     1      20.643  14.875  26.294  0.00  0.00    -0.043 A 
ATOM     30  C10 UNL     1      21.368  16.071  26.456  0.00  0.00    +0.004 A 
ATOM     31  C11 UNL     1      22.764  16.071  26.371  0.00  0.00    +0.000 A 
ATOM     32  C12 UNL     1      23.449  14.880  26.124  0.00  0.00    +0.000 A 
ATOM     33  C13 UNL     1      22.742  13.686  25.963  0.00  0.00    +0.000 A 
ATOM     34  C14 UNL     1      21.346  13.681  26.047  0.00  0.00    +0.004 A 
ENDBRANCH  27  29
ENDBRANCH  19  22
ENDBRANCH   3  18
TORSDOF 4
ENDMDL
MODEL 6
REMARK VINA RESULT:    -7.263      9.614     13.758
REMARK INTER + INTRA:         -10.033
REMARK INTER:                  -8.912
REMARK INTRA:                  -1.121
REMARK UNBOUND:                -1.071
REMARK  Name = /home/qwerty/github/datacon2025hack/step_04_hit_selection/docking/ligands/lig_642.pdb
REMARK  5 active torsions:
REMARK  status: ('A' for Active; 'I' for Inactive)
REMARK    1  A    between atoms: C1_1  and  C2_2
REMARK    2  A    between atoms: C3_3  and  N1_4
REMARK    3  A    between atoms: C4_5  and  C5_7
REMARK    4  A    between atoms: C8_12  and  C9_13
REMARK    5  A    between atoms: C19_23  and  C20_24
REMARK                            x       y       z     vdW  Elec       q    Type
REMARK                         _______ _______ _______ _____ _____    ______ ____
ROOT
ATOM      1  C1  UNL     1      19.725  12.626  23.008  0.00  0.00    +0.046 C 
ATOM      2  C2  UNL     1      19.856  13.043  21.561  0.00  0.00    -0.019 A 
ATOM      3  C3  UNL     1      19.486  12.145  20.529  0.00  0.00    +0.037 A 
ATOM      4  C16 UNL     1      19.582  12.551  19.189  0.00  0.00    +0.023 A 
ATOM      5  C17 UNL     1      20.039  13.825  18.864  0.00  0.00    +0.003 A 
ATOM      6  C18 UNL     1      20.423  14.708  19.870  0.00  0.00    +0.012 A 
ATOM      7  C19 UNL     1      20.344  14.330  21.218  0.00  0.00    +0.024 A 
ENDROOT
BRANCH   7   8
ATOM      8  C20 UNL     1      20.806  15.285  22.246  0.00  0.00    +0.165 A 
ATOM      9  N3  UNL     1      20.083  16.353  22.639  0.00  0.00    -0.129 NA
ATOM     10  N4  UNL     1      20.802  16.994  23.549  0.00  0.00    -0.134 NA
ATOM     11  C21 UNL     1      21.952  16.309  23.704  0.00  0.00    +0.134 A 
ATOM     12  N5  UNL     1      21.989  15.228  22.895  0.00  0.00    -0.311 N 
ATOM     13  C22 UNL     1      23.110  14.313  22.674  0.00  0.00    +0.125 C 
ATOM     14  C23 UNL     1      23.407  13.479  23.929  0.00  0.00    +0.022 C 
ATOM     15  C24 UNL     1      23.418  14.285  25.243  0.00  0.00    +0.002 C 
ATOM     16  C25 UNL     1      24.048  15.680  25.089  0.00  0.00    +0.008 C 
ATOM     17  C26 UNL     1      23.050  16.769  24.633  0.00  0.00    +0.076 C 
ENDBRANCH   7   8
BRANCH   3  18
ATOM     18  N1  UNL     1      19.057  10.808  20.837  0.00  0.00    -0.277 N 
ATOM     19  C4  UNL     1      19.968   9.697  20.912  0.00  0.00    +0.303 C 
ATOM     20  O1  UNL     1      21.186   9.865  20.640  0.00  0.00    -0.265 OA
ATOM     21  H4  UNL     1      18.032  10.619  20.901  0.00  0.00    +0.155 HD
BRANCH  19  22
ATOM     22  C5  UNL     1      19.470   8.360  21.310  0.00  0.00    +0.302 C 
ATOM     23  O2  UNL     1      19.643   7.984  22.501  0.00  0.00    -0.265 OA
ATOM     24  N2  UNL     1      18.799   7.478  20.387  0.00  0.00    -0.293 N 
ATOM     25  C6  UNL     1      18.340   7.854  19.057  0.00  0.00    +0.109 C 
ATOM     26  C7  UNL     1      17.432   6.724  18.593  0.00  0.00    +0.028 C 
ATOM     27  C8  UNL     1      17.753   5.534  19.505  0.00  0.00    +0.038 C 
ATOM     28  C15 UNL     1      18.391   6.133  20.760  0.00  0.00    +0.116 C 
BRANCH  27  29
ATOM     29  C9  UNL     1      16.540   4.670  19.800  0.00  0.00    -0.043 A 
ATOM     30  C10 UNL     1      15.236   5.124  19.521  0.00  0.00    +0.004 A 
ATOM     31  C11 UNL     1      14.130   4.312  19.792  0.00  0.00    +0.000 A 
ATOM     32  C12 UNL     1      14.312   3.042  20.342  0.00  0.00    +0.000 A 
ATOM     33  C13 UNL     1      15.600   2.579  20.622  0.00  0.00    +0.000 A 
ATOM     34  C14 UNL     1      16.710   3.388  20.353  0.00  0.00    +0.004 A 
ENDBRANCH  27  29
ENDBRANCH  19  22
ENDBRANCH   3  18
TORSDOF 4
ENDMDL
MODEL 7
REMARK VINA RESULT:    -7.228     10.474     11.729
REMARK INTER + INTRA:          -9.989
REMARK INTER:                  -8.875
REMARK INTRA:                  -1.114
REMARK UNBOUND:                -1.071
REMARK  Name = /home/qwerty/github/datacon2025hack/step_04_hit_selection/docking/ligands/lig_642.pdb
REMARK  5 active torsions:
REMARK  status: ('A' for Active; 'I' for Inactive)
REMARK    1  A    between atoms: C1_1  and  C2_2
REMARK    2  A    between atoms: C3_3  and  N1_4
REMARK    3  A    between atoms: C4_5  and  C5_7
REMARK    4  A    between atoms: C8_12  and  C9_13
REMARK    5  A    between atoms: C19_23  and  C20_24
REMARK                            x       y       z     vdW  Elec       q    Type
REMARK                         _______ _______ _______ _____ _____    ______ ____
ROOT
ATOM      1  C1  UNL     1      19.998   9.039  22.291  0.00  0.00    +0.046 C 
ATOM      2  C2  UNL     1      19.255   8.174  21.297  0.00  0.00    -0.019 A 
ATOM      3  C3  UNL     1      19.090   6.789  21.549  0.00  0.00    +0.037 A 
ATOM      4  C16 UNL     1      18.373   6.000  20.636  0.00  0.00    +0.023 A 
ATOM      5  C17 UNL     1      17.826   6.563  19.487  0.00  0.00    +0.003 A 
ATOM      6  C18 UNL     1      18.000   7.919  19.222  0.00  0.00    +0.012 A 
ATOM      7  C19 UNL     1      18.716   8.733  20.111  0.00  0.00    +0.024 A 
ENDROOT
BRANCH   7   8
ATOM      8  C20 UNL     1      18.912  10.156  19.763  0.00  0.00    +0.165 A 
ATOM      9  N3  UNL     1      17.967  11.098  19.952  0.00  0.00    -0.129 NA
ATOM     10  N4  UNL     1      18.469  12.244  19.514  0.00  0.00    -0.134 NA
ATOM     11  C21 UNL     1      19.715  11.988  19.067  0.00  0.00    +0.134 A 
ATOM     12  N5  UNL     1      20.025  10.681  19.206  0.00  0.00    -0.311 N 
ATOM     13  C22 UNL     1      21.220   9.987  18.723  0.00  0.00    +0.125 C 
ATOM     14  C23 UNL     1      22.476  10.443  19.482  0.00  0.00    +0.022 C 
ATOM     15  C24 UNL     1      22.586  11.970  19.672  0.00  0.00    +0.002 C 
ATOM     16  C25 UNL     1      22.106  12.766  18.446  0.00  0.00    +0.008 C 
ATOM     17  C26 UNL     1      20.587  13.052  18.445  0.00  0.00    +0.076 C 
ENDBRANCH   7   8
BRANCH   3  18
ATOM     18  N1  UNL     1      19.686   6.176  22.704  0.00  0.00    -0.277 N 
ATOM     19  C4  UNL     1      20.893   5.396  22.635  0.00  0.00    +0.303 C 
ATOM     20  O1  UNL     1      21.434   5.176  21.519  0.00  0.00    -0.265 OA
ATOM     21  H4  UNL     1      19.162   6.207  23.607  0.00  0.00    +0.155 HD
BRANCH  19  22
ATOM     22  C5  UNL     1      21.495   4.855  23.875  0.00  0.00    +0.302 C 
ATOM     23  O2  UNL     1      22.393   5.529  24.450  0.00  0.00    -0.265 OA
ATOM     24  N2  UNL     1      21.093   3.593  24.445  0.00  0.00    -0.293 N 
ATOM     25  C6  UNL     1      19.936   2.817  24.021  0.00  0.00    +0.109 C 
ATOM     26  C7  UNL     1      19.732   1.752  25.089  0.00  0.00    +0.028 C 
ATOM     27  C8  UNL     1      21.052   1.689  25.867  0.00  0.00    +0.038 C 
ATOM     28  C15 UNL     1      21.749   3.027  25.613  0.00  0.00    +0.116 C 
BRANCH  27  29
ATOM     29  C9  UNL     1      20.857   1.383  27.341  0.00  0.00    -0.043 A 
ATOM     30  C10 UNL     1      21.902   0.847  28.119  0.00  0.00    +0.004 A 
ATOM     31  C11 UNL     1      21.709   0.577  29.477  0.00  0.00    +0.000 A 
ATOM     32  C12 UNL     1      20.474   0.839  30.074  0.00  0.00    +0.000 A 
ATOM     33  C13 UNL     1      19.430   1.374  29.314  0.00  0.00    +0.000 A 
ATOM     34  C14 UNL     1      19.618   1.644  27.955  0.00  0.00    +0.004 A 
ENDBRANCH  27  29
ENDBRANCH  19  22
ENDBRANCH   3  18
TORSDOF 4
ENDMDL
MODEL 8
REMARK VINA RESULT:    -7.188      7.676     10.927
REMARK INTER + INTRA:          -9.940
REMARK INTER:                  -8.994
REMARK INTRA:                  -0.946
REMARK UNBOUND:                -1.071
REMARK  Name = /home/qwerty/github/datacon2025hack/step_04_hit_selection/docking/ligands/lig_642.pdb
REMARK  5 active torsions:
REMARK  status: ('A' for Active; 'I' for Inactive)
REMARK    1  A    between atoms: C1_1  and  C2_2
REMARK    2  A    between atoms: C3_3  and  N1_4
REMARK    3  A    between atoms: C4_5  and  C5_7
REMARK    4  A    between atoms: C8_12  and  C9_13
REMARK    5  A    between atoms: C19_23  and  C20_24
REMARK                            x       y       z     vdW  Elec       q    Type
REMARK                         _______ _______ _______ _____ _____    ______ ____
ROOT
ATOM      1  C1  UNL     1      19.743   8.400  19.584  0.00  0.00    +0.046 C 
ATOM      2  C2  UNL     1      18.734   9.515  19.423  0.00  0.00    -0.019 A 
ATOM      3  C3  UNL     1      17.356   9.210  19.291  0.00  0.00    +0.037 A 
ATOM      4  C16 UNL     1      16.424  10.251  19.172  0.00  0.00    +0.023 A 
ATOM      5  C17 UNL     1      16.838  11.580  19.181  0.00  0.00    +0.003 A 
ATOM      6  C18 UNL     1      18.192  11.889  19.291  0.00  0.00    +0.012 A 
ATOM      7  C19 UNL     1      19.148  10.871  19.405  0.00  0.00    +0.024 A 
ENDROOT
BRANCH   7   8
ATOM      8  C20 UNL     1      20.575  11.249  19.474  0.00  0.00    +0.165 A 
ATOM      9  N3  UNL     1      21.403  11.203  18.412  0.00  0.00    -0.129 NA
ATOM     10  N4  UNL     1      22.599  11.586  18.835  0.00  0.00    -0.134 NA
ATOM     11  C21 UNL     1      22.486  11.865  20.149  0.00  0.00    +0.134 A 
ATOM     12  N5  UNL     1      21.224  11.660  20.586  0.00  0.00    -0.311 N 
ATOM     13  C22 UNL     1      20.731  11.722  21.962  0.00  0.00    +0.125 C 
ATOM     14  C23 UNL     1      20.766  13.160  22.504  0.00  0.00    +0.022 C 
ATOM     15  C24 UNL     1      22.068  13.926  22.196  0.00  0.00    +0.002 C 
ATOM     16  C25 UNL     1      23.325  13.043  22.298  0.00  0.00    +0.008 C 
ATOM     17  C26 UNL     1      23.665  12.290  20.992  0.00  0.00    +0.076 C 
ENDBRANCH   7   8
BRANCH   3  18
ATOM     18  N1  UNL     1      16.909   7.844  19.231  0.00  0.00    -0.277 N 
ATOM     19  C4  UNL     1      16.544   7.094  20.403  0.00  0.00    +0.303 C 
ATOM     20  O1  UNL     1      16.672   7.611  21.544  0.00  0.00    -0.265 OA
ATOM     21  H4  UNL     1      16.956   7.347  18.314  0.00  0.00    +0.155 HD
BRANCH  19  22
ATOM     22  C5  UNL     1      16.019   5.716  20.263  0.00  0.00    +0.302 C 
ATOM     23  O2  UNL     1      16.822   4.795  19.951  0.00  0.00    -0.265 OA
ATOM     24  N2  UNL     1      14.628   5.393  20.471  0.00  0.00    -0.293 N 
ATOM     25  C6  UNL     1      13.638   6.296  21.038  0.00  0.00    +0.109 C 
ATOM     26  C7  UNL     1      12.420   5.438  21.352  0.00  0.00    +0.028 C 
ATOM     27  C8  UNL     1      12.606   4.146  20.547  0.00  0.00    +0.038 C 
ATOM     28  C15 UNL     1      14.104   4.055  20.247  0.00  0.00    +0.116 C 
BRANCH  27  29
ATOM     29  C9  UNL     1      12.059   2.921  21.257  0.00  0.00    -0.043 A 
ATOM     30  C10 UNL     1      10.686   2.801  21.551  0.00  0.00    +0.004 A 
ATOM     31  C11 UNL     1      10.197   1.663  22.199  0.00  0.00    +0.000 A 
ATOM     32  C12 UNL     1      11.069   0.634  22.560  0.00  0.00    +0.000 A 
ATOM     33  C13 UNL     1      12.432   0.739  22.272  0.00  0.00    +0.000 A 
ATOM     34  C14 UNL     1      12.927   1.877  21.625  0.00  0.00    +0.004 A 
ENDBRANCH  27  29
ENDBRANCH  19  22
ENDBRANCH   3  18
TORSDOF 4
ENDMDL
MODEL 9
REMARK VINA RESULT:    -7.184     11.685     12.657
REMARK INTER + INTRA:          -9.935
REMARK INTER:                  -8.807
REMARK INTRA:                  -1.128
REMARK UNBOUND:                -1.071
REMARK  Name = /home/qwerty/github/datacon2025hack/step_04_hit_selection/docking/ligands/lig_642.pdb
REMARK  5 active torsions:
REMARK  status: ('A' for Active; 'I' for Inactive)
REMARK    1  A    between atoms: C1_1  and  C2_2
REMARK    2  A    between atoms: C3_3  and  N1_4
REMARK    3  A    between atoms: C4_5  and  C5_7
REMARK    4  A    between atoms: C8_12  and  C9_13
REMARK    5  A    between atoms: C19_23  and  C20_24
REMARK                            x       y       z     vdW  Elec       q    Type
REMARK                         _______ _______ _______ _____ _____    ______ ____
ROOT
ATOM      1  C1  UNL     1      20.213   9.929  22.426  0.00  0.00    +0.046 C 
ATOM      2  C2  UNL     1      20.598   8.906  21.381  0.00  0.00    -0.019 A 
ATOM      3  C3  UNL     1      20.983   7.600  21.776  0.00  0.00    +0.037 A 
ATOM      4  C16 UNL     1      21.309   6.649  20.798  0.00  0.00    +0.023 A 
ATOM      5  C17 UNL     1      21.262   6.975  19.446  0.00  0.00    +0.003 A 
ATOM      6  C18 UNL     1      20.904   8.261  19.049  0.00  0.00    +0.012 A 
ATOM      7  C19 UNL     1      20.578   9.236  20.002  0.00  0.00    +0.024 A 
ENDROOT
BRANCH   7   8
ATOM      8  C20 UNL     1      20.248  10.598  19.533  0.00  0.00    +0.165 A 
ATOM      9  N3  UNL     1      19.000  10.983  19.202  0.00  0.00    -0.129 NA
ATOM     10  N4  UNL     1      19.075  12.246  18.810  0.00  0.00    -0.134 NA
ATOM     11  C21 UNL     1      20.366  12.619  18.909  0.00  0.00    +0.134 A 
ATOM     12  N5  UNL     1      21.135  11.603  19.359  0.00  0.00    -0.311 N 
ATOM     13  C22 UNL     1      22.593  11.567  19.475  0.00  0.00    +0.125 C 
ATOM     14  C23 UNL     1      23.091  12.526  20.568  0.00  0.00    +0.022 C 
ATOM     15  C24 UNL     1      22.430  13.919  20.542  0.00  0.00    +0.002 C 
ATOM     16  C25 UNL     1      22.190  14.446  19.116  0.00  0.00    +0.008 C 
ATOM     17  C26 UNL     1      20.848  13.990  18.501  0.00  0.00    +0.076 C 
ENDBRANCH   7   8
BRANCH   3  18
ATOM     18  N1  UNL     1      21.085   7.254  23.167  0.00  0.00    -0.277 N 
ATOM     19  C4  UNL     1      20.056   6.533  23.867  0.00  0.00    +0.303 C 
ATOM     20  O1  UNL     1      18.985   6.235  23.274  0.00  0.00    -0.265 OA
ATOM     21  H4  UNL     1      21.888   7.637  23.715  0.00  0.00    +0.155 HD
BRANCH  19  22
ATOM     22  C5  UNL     1      20.259   6.142  25.281  0.00  0.00    +0.302 C 
ATOM     23  O2  UNL     1      19.672   6.805  26.178  0.00  0.00    -0.265 OA
ATOM     24  N2  UNL     1      21.100   5.034  25.665  0.00  0.00    -0.293 N 
ATOM     25  C6  UNL     1      21.662   4.056  24.745  0.00  0.00    +0.109 C 
ATOM     26  C7  UNL     1      22.199   2.926  25.613  0.00  0.00    +0.028 C 
ATOM     27  C8  UNL     1      22.310   3.508  27.027  0.00  0.00    +0.038 C 
ATOM     28  C15 UNL     1      21.364   4.710  27.058  0.00  0.00    +0.116 C 
BRANCH  27  29
ATOM     29  C9  UNL     1      22.022   2.488  28.113  0.00  0.00    -0.043 A 
ATOM     30  C10 UNL     1      22.655   1.229  28.118  0.00  0.00    +0.004 A 
ATOM     31  C11 UNL     1      22.384   0.303  29.130  0.00  0.00    +0.000 A 
ATOM     32  C12 UNL     1      21.481   0.621  30.146  0.00  0.00    +0.000 A 
ATOM     33  C13 UNL     1      20.848   1.866  30.154  0.00  0.00    +0.000 A 
ATOM     34  C14 UNL     1      21.115   2.796  29.143  0.00  0.00    +0.004 A 
ENDBRANCH  27  29
ENDBRANCH  19  22
ENDBRANCH   3  18
TORSDOF 4
ENDMDL
