REMARK  Name = /home/qwerty/github/datacon2025hack/step_04_hit_selection/docking/ligands/lig_798.pdb
REMARK  5 active torsions:
REMARK  status: ('A' for Active; 'I' for Inactive)
REMARK    1  A    between atoms: C1_1  and  C2_2
REMARK    2  A    between atoms: C2_2  and  C3_3
REMARK    3  A    between atoms: C2_2  and  N1_9
REMARK    4  A    between atoms: N2_12  and  C11_13
REMARK    5  A    between atoms: C11_13  and  C12_14
REMARK                            x       y       z     vdW  Elec       q    Type
REMARK                         _______ _______ _______ _____ _____    ______ ____
ROOT
ATOM      1  N1  UNL     1       1.248  -0.230  -0.648  0.00  0.00    -0.293 NA
ATOM      2  C9  UNL     1       0.996  -0.108   0.799  0.00  0.00    +0.100 C 
ATOM      3  C10 UNL     1      -0.479   0.273   1.046  0.00  0.00    +0.100 C 
ATOM      4  N2  UNL     1      -1.089   1.021  -0.081  0.00  0.00    -0.294 NA
ATOM      5  C19 UNL     1      -0.102   1.881  -0.762  0.00  0.00    +0.100 C 
ATOM      6  C20 UNL     1       1.088   1.074  -1.328  0.00  0.00    +0.100 C 
ENDROOT
BRANCH   1   8
ATOM      7  C1  UNL     1       2.388  -2.427  -0.890  0.00  0.00    +0.029 C 
ATOM      8  C2  UNL     1       2.523  -0.902  -1.016  0.00  0.00    +0.084 C 
BRANCH   8   9
ATOM      9  C3  UNL     1       3.747  -0.350  -0.287  0.00  0.00    -0.031 A 
ATOM     10  C4  UNL     1       4.543   0.627  -0.915  0.00  0.00    +0.005 A 
ATOM     11  C5  UNL     1       5.660   1.161  -0.266  0.00  0.00    +0.000 A 
ATOM     12  C6  UNL     1       5.999   0.727   1.017  0.00  0.00    +0.000 A 
ATOM     13  C7  UNL     1       5.222  -0.242   1.652  0.00  0.00    +0.000 A 
ATOM     14  C8  UNL     1       4.104  -0.780   1.009  0.00  0.00    +0.005 A 
ENDBRANCH   8   9
ENDBRANCH   1   8
BRANCH   4  15
ATOM     15  C11 UNL     1      -1.812   0.142  -1.026  0.00  0.00    +0.140 C 
BRANCH  15  16
ATOM     16  C12 UNL     1      -3.157  -0.219  -0.469  0.00  0.00    +0.056 A 
ATOM     17  C13 UNL     1      -4.152   0.770  -0.313  0.00  0.00    +0.036 A 
ATOM     18  C14 UNL     1      -5.368   0.365   0.225  0.00  0.00    +0.023 A 
ATOM     19  C15 UNL     1      -6.518   1.067   0.501  0.00  0.00    +0.049 A 
ATOM     20  C16 UNL     1      -7.388   0.117   1.029  0.00  0.00    +0.196 A 
ATOM     21  O1  UNL     1      -6.807  -1.069   1.070  0.00  0.00    -0.461 OA
ATOM     22  C17 UNL     1      -5.596  -0.929   0.590  0.00  0.00    +0.153 A 
ATOM     23  C18 UNL     1      -4.612  -1.898   0.435  0.00  0.00    +0.157 A 
ATOM     24  N3  UNL     1      -3.411  -1.515  -0.092  0.00  0.00    -0.255 NA
ENDBRANCH  15  16
ENDBRANCH   4  15
TORSDOF 4
