REMARK  Name = /home/qwerty/github/datacon2025hack/step_04_hit_selection/docking/ligands/lig_750.pdb
REMARK  4 active torsions:
REMARK  status: ('A' for Active; 'I' for Inactive)
REMARK    1  A    between atoms: N1_3  and  C2_4
REMARK    2  A    between atoms: C5_7  and  N2_8
REMARK    3  A    between atoms: N6_15  and  C9_16
REMARK    4  A    between atoms: C14_21  and  C15_22
REMARK                            x       y       z     vdW  Elec       q    Type
REMARK                         _______ _______ _______ _____ _____    ______ ____
ROOT
ATOM      1  O1  UNL     1       0.824  -0.231  -0.944  0.00  0.00    -0.252 OA
ATOM      2  C1  UNL     1       1.017  -0.110   0.297  0.00  0.00    +0.308 C 
ATOM      3  N1  UNL     1      -0.085  -0.202   1.213  0.00  0.00    -0.268 N 
ATOM      4  N6  UNL     1       2.349   0.047   0.807  0.00  0.00    -0.269 N 
ATOM      5  H1  UNL     1       0.133  -0.395   2.216  0.00  0.00    +0.156 HD
ATOM      6  H7  UNL     1       2.493  -0.060   1.836  0.00  0.00    +0.156 HD
ENDROOT
BRANCH   3   7
ATOM      7  C2  UNL     1      -1.468  -0.149   0.821  0.00  0.00    +0.053 A 
ATOM      8  C3  UNL     1      -2.424  -0.857   1.559  0.00  0.00    +0.028 A 
ATOM      9  C4  UNL     1      -3.773  -0.798   1.203  0.00  0.00    +0.052 A 
ATOM     10  C5  UNL     1      -4.164  -0.011   0.111  0.00  0.00    +0.175 A 
ATOM     11  N5  UNL     1      -3.223   0.690  -0.579  0.00  0.00    -0.233 NA
ATOM     12  C8  UNL     1      -1.903   0.645  -0.253  0.00  0.00    +0.136 A 
BRANCH  10  13
ATOM     13  N2  UNL     1      -5.541   0.074  -0.283  0.00  0.00    -0.132 N 
ATOM     14  N3  UNL     1      -6.532  -0.565   0.322  0.00  0.00    -0.154 NA
ATOM     15  C6  UNL     1      -7.652  -0.228  -0.341  0.00  0.00    +0.156 A 
ATOM     16  C7  UNL     1      -7.298   0.630  -1.358  0.00  0.00    +0.156 A 
ATOM     17  N4  UNL     1      -5.966   0.805  -1.303  0.00  0.00    -0.154 NA
ENDBRANCH  10  13
ENDBRANCH   3   7
BRANCH   4  18
ATOM     18  C9  UNL     1       3.493   0.294  -0.031  0.00  0.00    +0.046 A 
ATOM     19  C10 UNL     1       3.403   1.234  -1.073  0.00  0.00    +0.024 A 
ATOM     20  C11 UNL     1       4.513   1.525  -1.866  0.00  0.00    +0.002 A 
ATOM     21  C12 UNL     1       5.731   0.894  -1.621  0.00  0.00    +0.001 A 
ATOM     22  C13 UNL     1       5.843  -0.034  -0.585  0.00  0.00    +0.014 A 
ATOM     23  C14 UNL     1       4.730  -0.358   0.216  0.00  0.00    +0.076 A 
BRANCH  23  24
ATOM     24  C15 UNL     1       4.873  -1.367   1.336  0.00  0.00    +0.419 C 
ATOM     25  F1  UNL     1       3.826  -2.271   1.299  0.00  0.00    -0.166 F 
ATOM     26  F2  UNL     1       6.055  -2.081   1.231  0.00  0.00    -0.166 F 
ATOM     27  F3  UNL     1       4.865  -0.709   2.552  0.00  0.00    -0.166 F 
ENDBRANCH  23  24
ENDBRANCH   4  18
TORSDOF 4
