MODEL 1
REMARK VINA RESULT:    -7.521      0.000      0.000
REMARK INTER + INTRA:          -9.994
REMARK INTER:                  -9.280
REMARK INTRA:                  -0.715
REMARK UNBOUND:                -0.715
REMARK  Name = /home/qwerty/github/datacon2025hack/step_04_hit_selection/docking/ligands/lig_288.pdb
REMARK  5 active torsions:
REMARK  status: ('A' for Active; 'I' for Inactive)
REMARK    1  A    between atoms: C1_2  and  C16_22
REMARK    2  A    between atoms: N1_3  and  C2_4
REMARK    3  A    between atoms: C6_10  and  C7_11
REMARK    4  A    between atoms: C19_25  and  O2_26
REMARK    5  A    between atoms: C20_27  and  O3_28
REMARK                            x       y       z     vdW  Elec       q    Type
REMARK                         _______ _______ _______ _____ _____    ______ ____
ROOT
ATOM      1  C2  UNL     1      24.405  15.280  22.937  0.00  0.00    +0.034 A 
ATOM      2  C3  UNL     1      25.372  16.170  22.402  0.00  0.00    +0.025 A 
ATOM      3  C4  UNL     1      25.453  16.398  21.017  0.00  0.00    +0.029 A 
ATOM      4  C5  UNL     1      24.574  15.701  20.195  0.00  0.00    +0.067 A 
ATOM      5  N2  UNL     1      24.446  15.786  18.862  0.00  0.00    -0.276 N 
ATOM      6  N3  UNL     1      23.474  14.967  18.479  0.00  0.00    -0.170 NA
ATOM      7  C6  UNL     1      22.982  14.345  19.577  0.00  0.00    +0.135 A 
ATOM      8  C14 UNL     1      23.665  14.810  20.691  0.00  0.00    +0.032 A 
ATOM      9  C15 UNL     1      23.537  14.581  22.063  0.00  0.00    +0.035 A 
ATOM     10  H4  UNL     1      24.999  16.392  18.216  0.00  0.00    +0.189 HD
ENDROOT
BRANCH   7  11
ATOM     11  C7  UNL     1      21.892  13.356  19.520  0.00  0.00    +0.160 A 
ATOM     12  N4  UNL     1      20.596  13.693  19.755  0.00  0.00    -0.226 NA
ATOM     13  C8  UNL     1      19.945  12.534  19.559  0.00  0.00    +0.090 A 
ATOM     14  C9  UNL     1      18.576  12.296  19.659  0.00  0.00    +0.030 A 
ATOM     15  C10 UNL     1      18.117  10.993  19.382  0.00  0.00    +0.002 A 
ATOM     16  C11 UNL     1      19.028   9.977  19.014  0.00  0.00    +0.002 A 
ATOM     17  C12 UNL     1      20.405  10.254  18.919  0.00  0.00    +0.028 A 
ATOM     18  C13 UNL     1      20.821  11.551  19.208  0.00  0.00    +0.067 A 
ATOM     19  N5  UNL     1      22.060  12.054  19.172  0.00  0.00    -0.337 N 
ATOM     20  H9  UNL     1      22.932  11.562  18.877  0.00  0.00    +0.167 HD
ENDBRANCH   7  11
BRANCH   1  23
ATOM     21  O1  UNL     1      22.920  16.843  24.876  0.00  0.00    -0.270 OA
ATOM     22  C1  UNL     1      23.427  15.745  25.231  0.00  0.00    +0.248 C 
ATOM     23  N1  UNL     1      24.353  15.074  24.360  0.00  0.00    -0.281 N 
ATOM     24  H1  UNL     1      25.100  14.487  24.795  0.00  0.00    +0.155 HD
BRANCH  22  25
ATOM     25  C16 UNL     1      23.099  15.188  26.566  0.00  0.00    +0.041 A 
ATOM     26  C17 UNL     1      22.123  15.789  27.381  0.00  0.00    +0.017 A 
ATOM     27  C18 UNL     1      21.826  15.261  28.639  0.00  0.00    +0.050 A 
ATOM     28  C19 UNL     1      22.500  14.129  29.109  0.00  0.00    +0.158 A 
ATOM     29  C20 UNL     1      23.484  13.523  28.310  0.00  0.00    +0.159 A 
ATOM     30  C21 UNL     1      23.781  14.055  27.048  0.00  0.00    +0.062 A 
BRANCH  28  31
ATOM     31  O2  UNL     1      22.180  13.625  30.369  0.00  0.00    -0.503 OA
ATOM     32  H13 UNL     1      22.071  12.633  30.539  0.00  0.00    +0.292 HD
ENDBRANCH  28  31
BRANCH  29  33
ATOM     33  O3  UNL     1      24.161  12.397  28.774  0.00  0.00    -0.503 OA
ATOM     34  H14 UNL     1      25.114  12.452  29.113  0.00  0.00    +0.292 HD
ENDBRANCH  29  33
ENDBRANCH  22  25
ENDBRANCH   1  23
TORSDOF 5
ENDMDL
MODEL 2
REMARK VINA RESULT:    -7.478      3.393      7.954
REMARK INTER + INTRA:          -9.941
REMARK INTER:                  -9.227
REMARK INTRA:                  -0.715
REMARK UNBOUND:                -0.715
REMARK  Name = /home/qwerty/github/datacon2025hack/step_04_hit_selection/docking/ligands/lig_288.pdb
REMARK  5 active torsions:
REMARK  status: ('A' for Active; 'I' for Inactive)
REMARK    1  A    between atoms: C1_2  and  C16_22
REMARK    2  A    between atoms: N1_3  and  C2_4
REMARK    3  A    between atoms: C6_10  and  C7_11
REMARK    4  A    between atoms: C19_25  and  O2_26
REMARK    5  A    between atoms: C20_27  and  O3_28
REMARK                            x       y       z     vdW  Elec       q    Type
REMARK                         _______ _______ _______ _____ _____    ______ ____
ROOT
ATOM      1  C2  UNL     1      22.269  14.242  19.597  0.00  0.00    +0.034 A 
ATOM      2  C3  UNL     1      23.075  14.774  18.558  0.00  0.00    +0.025 A 
ATOM      3  C4  UNL     1      24.211  15.549  18.851  0.00  0.00    +0.029 A 
ATOM      4  C5  UNL     1      24.497  15.796  20.190  0.00  0.00    +0.067 A 
ATOM      5  N2  UNL     1      25.538  16.471  20.701  0.00  0.00    -0.276 N 
ATOM      6  N3  UNL     1      25.442  16.451  22.025  0.00  0.00    -0.170 NA
ATOM      7  C6  UNL     1      24.323  15.766  22.363  0.00  0.00    +0.135 A 
ATOM      8  C14 UNL     1      23.708  15.326  21.201  0.00  0.00    +0.032 A 
ATOM      9  C15 UNL     1      22.589  14.529  20.948  0.00  0.00    +0.035 A 
ATOM     10  H4  UNL     1      26.309  16.932  20.170  0.00  0.00    +0.189 HD
ENDROOT
BRANCH   7  11
ATOM     11  C7  UNL     1      23.901  15.556  23.758  0.00  0.00    +0.160 A 
ATOM     12  N4  UNL     1      23.094  16.435  24.410  0.00  0.00    -0.226 NA
ATOM     13  C8  UNL     1      22.925  15.851  25.610  0.00  0.00    +0.090 A 
ATOM     14  C9  UNL     1      22.172  16.316  26.686  0.00  0.00    +0.030 A 
ATOM     15  C10 UNL     1      22.123  15.515  27.844  0.00  0.00    +0.002 A 
ATOM     16  C11 UNL     1      22.817  14.284  27.892  0.00  0.00    +0.002 A 
ATOM     17  C12 UNL     1      23.566  13.844  26.783  0.00  0.00    +0.028 A 
ATOM     18  C13 UNL     1      23.596  14.667  25.661  0.00  0.00    +0.067 A 
ATOM     19  N5  UNL     1      24.217  14.459  24.494  0.00  0.00    -0.337 N 
ATOM     20  H9  UNL     1      24.758  13.613  24.210  0.00  0.00    +0.167 HD
ENDBRANCH   7  11
BRANCH   1  23
ATOM     21  O1  UNL     1      22.205  11.404  19.010  0.00  0.00    -0.270 OA
ATOM     22  C1  UNL     1      21.119  12.018  19.195  0.00  0.00    +0.248 C 
ATOM     23  N1  UNL     1      21.115  13.455  19.258  0.00  0.00    -0.281 N 
ATOM     24  H1  UNL     1      20.260  13.958  18.933  0.00  0.00    +0.155 HD
BRANCH  22  25
ATOM     25  C16 UNL     1      19.854  11.250  19.296  0.00  0.00    +0.041 A 
ATOM     26  C17 UNL     1      19.867   9.848  19.411  0.00  0.00    +0.017 A 
ATOM     27  C18 UNL     1      18.670   9.133  19.498  0.00  0.00    +0.050 A 
ATOM     28  C19 UNL     1      17.442   9.801  19.467  0.00  0.00    +0.158 A 
ATOM     29  C20 UNL     1      17.414  11.200  19.343  0.00  0.00    +0.159 A 
ATOM     30  C21 UNL     1      18.615  11.916  19.255  0.00  0.00    +0.062 A 
BRANCH  28  31
ATOM     31  O2  UNL     1      16.265   9.059  19.557  0.00  0.00    -0.503 OA
ATOM     32  H13 UNL     1      15.447   9.279  19.001  0.00  0.00    +0.292 HD
ENDBRANCH  28  31
BRANCH  29  33
ATOM     33  O3  UNL     1      16.193  11.871  19.309  0.00  0.00    -0.503 OA
ATOM     34  H14 UNL     1      16.142  12.883  19.338  0.00  0.00    +0.292 HD
ENDBRANCH  29  33
ENDBRANCH  22  25
ENDBRANCH   1  23
TORSDOF 5
ENDMDL
MODEL 3
REMARK VINA RESULT:    -7.377     14.066     16.116
REMARK INTER + INTRA:          -9.816
REMARK INTER:                  -9.134
REMARK INTRA:                  -0.682
REMARK UNBOUND:                -0.715
REMARK  Name = /home/qwerty/github/datacon2025hack/step_04_hit_selection/docking/ligands/lig_288.pdb
REMARK  5 active torsions:
REMARK  status: ('A' for Active; 'I' for Inactive)
REMARK    1  A    between atoms: C1_2  and  C16_22
REMARK    2  A    between atoms: N1_3  and  C2_4
REMARK    3  A    between atoms: C6_10  and  C7_11
REMARK    4  A    between atoms: C19_25  and  O2_26
REMARK    5  A    between atoms: C20_27  and  O3_28
REMARK                            x       y       z     vdW  Elec       q    Type
REMARK                         _______ _______ _______ _____ _____    ______ ____
ROOT
ATOM      1  C2  UNL     1      18.538   3.216  35.000  0.00  0.00    +0.034 A 
ATOM      2  C3  UNL     1      17.568   2.516  35.762  0.00  0.00    +0.025 A 
ATOM      3  C4  UNL     1      17.111   1.249  35.359  0.00  0.00    +0.029 A 
ATOM      4  C5  UNL     1      17.621   0.724  34.176  0.00  0.00    +0.067 A 
ATOM      5  N2  UNL     1      17.360  -0.469  33.622  0.00  0.00    -0.276 N 
ATOM      6  N3  UNL     1      18.074  -0.581  32.508  0.00  0.00    -0.170 NA
ATOM      7  C6  UNL     1      18.790   0.557  32.343  0.00  0.00    +0.135 A 
ATOM      8  C14 UNL     1      18.524   1.404  33.409  0.00  0.00    +0.032 A 
ATOM      9  C15 UNL     1      19.022   2.651  33.794  0.00  0.00    +0.035 A 
ATOM     10  H4  UNL     1      16.718  -1.206  33.991  0.00  0.00    +0.189 HD
ENDROOT
BRANCH   7  11
ATOM     11  C7  UNL     1      19.690   0.780  31.200  0.00  0.00    +0.160 A 
ATOM     12  N4  UNL     1      19.222   1.063  29.954  0.00  0.00    -0.226 NA
ATOM     13  C8  UNL     1      20.350   1.234  29.243  0.00  0.00    +0.090 A 
ATOM     14  C9  UNL     1      20.467   1.553  27.892  0.00  0.00    +0.030 A 
ATOM     15  C10 UNL     1      21.765   1.705  27.366  0.00  0.00    +0.002 A 
ATOM     16  C11 UNL     1      22.897   1.540  28.197  0.00  0.00    +0.002 A 
ATOM     17  C12 UNL     1      22.742   1.221  29.559  0.00  0.00    +0.028 A 
ATOM     18  C13 UNL     1      21.443   1.071  30.040  0.00  0.00    +0.067 A 
ATOM     19  N5  UNL     1      21.045   0.788  31.286  0.00  0.00    -0.337 N 
ATOM     20  H9  UNL     1      21.649   0.672  32.129  0.00  0.00    +0.167 HD
ENDBRANCH   7  11
BRANCH   1  23
ATOM     21  O1  UNL     1      17.534   5.796  34.139  0.00  0.00    -0.270 OA
ATOM     22  C1  UNL     1      18.294   5.737  35.144  0.00  0.00    +0.248 C 
ATOM     23  N1  UNL     1      18.981   4.510  35.445  0.00  0.00    -0.281 N 
ATOM     24  H1  UNL     1      19.910   4.571  35.918  0.00  0.00    +0.155 HD
BRANCH  22  25
ATOM     25  C16 UNL     1      18.505   6.949  35.972  0.00  0.00    +0.041 A 
ATOM     26  C17 UNL     1      17.465   7.872  36.181  0.00  0.00    +0.017 A 
ATOM     27  C18 UNL     1      17.676   9.015  36.956  0.00  0.00    +0.050 A 
ATOM     28  C19 UNL     1      18.927   9.259  37.531  0.00  0.00    +0.158 A 
ATOM     29  C20 UNL     1      19.978   8.351  37.323  0.00  0.00    +0.159 A 
ATOM     30  C21 UNL     1      19.765   7.205  36.544  0.00  0.00    +0.062 A 
BRANCH  28  31
ATOM     31  O2  UNL     1      19.106  10.408  38.301  0.00  0.00    -0.503 OA
ATOM     32  H13 UNL     1      18.533  11.234  38.175  0.00  0.00    +0.292 HD
ENDBRANCH  28  31
BRANCH  29  33
ATOM     33  O3  UNL     1      21.228   8.590  37.891  0.00  0.00    -0.503 OA
ATOM     34  H14 UNL     1      21.602   7.996  38.622  0.00  0.00    +0.292 HD
ENDBRANCH  29  33
ENDBRANCH  22  25
ENDBRANCH   1  23
TORSDOF 5
ENDMDL
MODEL 4
REMARK VINA RESULT:    -7.264      7.544     12.992
REMARK INTER + INTRA:          -9.678
REMARK INTER:                  -9.304
REMARK INTRA:                  -0.373
REMARK UNBOUND:                -0.715
REMARK  Name = /home/qwerty/github/datacon2025hack/step_04_hit_selection/docking/ligands/lig_288.pdb
REMARK  5 active torsions:
REMARK  status: ('A' for Active; 'I' for Inactive)
REMARK    1  A    between atoms: C1_2  and  C16_22
REMARK    2  A    between atoms: N1_3  and  C2_4
REMARK    3  A    between atoms: C6_10  and  C7_11
REMARK    4  A    between atoms: C19_25  and  O2_26
REMARK    5  A    between atoms: C20_27  and  O3_28
REMARK                            x       y       z     vdW  Elec       q    Type
REMARK                         _______ _______ _______ _____ _____    ______ ____
ROOT
ATOM      1  C2  UNL     1      19.515  13.455  32.449  0.00  0.00    +0.034 A 
ATOM      2  C3  UNL     1      18.505  14.309  32.961  0.00  0.00    +0.025 A 
ATOM      3  C4  UNL     1      17.982  14.114  34.252  0.00  0.00    +0.029 A 
ATOM      4  C5  UNL     1      18.469  13.041  34.992  0.00  0.00    +0.067 A 
ATOM      5  N2  UNL     1      18.147  12.688  36.245  0.00  0.00    -0.276 N 
ATOM      6  N3  UNL     1      18.859  11.618  36.577  0.00  0.00    -0.170 NA
ATOM      7  C6  UNL     1      19.636  11.277  35.521  0.00  0.00    +0.135 A 
ATOM      8  C14 UNL     1      19.412  12.184  34.497  0.00  0.00    +0.032 A 
ATOM      9  C15 UNL     1      19.974  12.366  33.231  0.00  0.00    +0.035 A 
ATOM     10  H4  UNL     1      17.464  13.164  36.875  0.00  0.00    +0.189 HD
ENDROOT
BRANCH   7  11
ATOM     11  C7  UNL     1      20.553  10.125  35.537  0.00  0.00    +0.160 A 
ATOM     12  N4  UNL     1      21.340   9.810  34.473  0.00  0.00    -0.226 NA
ATOM     13  C8  UNL     1      22.033   8.748  34.918  0.00  0.00    +0.090 A 
ATOM     14  C9  UNL     1      23.002   8.016  34.236  0.00  0.00    +0.030 A 
ATOM     15  C10 UNL     1      23.616   6.948  34.920  0.00  0.00    +0.002 A 
ATOM     16  C11 UNL     1      23.250   6.647  36.252  0.00  0.00    +0.002 A 
ATOM     17  C12 UNL     1      22.269   7.411  36.912  0.00  0.00    +0.028 A 
ATOM     18  C13 UNL     1      21.680   8.453  36.200  0.00  0.00    +0.067 A 
ATOM     19  N5  UNL     1      20.747   9.319  36.613  0.00  0.00    -0.337 N 
ATOM     20  H9  UNL     1      20.326   9.386  37.565  0.00  0.00    +0.167 HD
ENDBRANCH   7  11
BRANCH   1  23
ATOM     21  O1  UNL     1      21.255  15.614  31.602  0.00  0.00    -0.270 OA
ATOM     22  C1  UNL     1      21.056  14.643  30.822  0.00  0.00    +0.248 C 
ATOM     23  N1  UNL     1      20.026  13.686  31.125  0.00  0.00    -0.281 N 
ATOM     24  H1  UNL     1      19.545  13.213  30.328  0.00  0.00    +0.155 HD
BRANCH  22  25
ATOM     25  C16 UNL     1      21.854  14.532  29.577  0.00  0.00    +0.041 A 
ATOM     26  C17 UNL     1      21.560  15.330  28.456  0.00  0.00    +0.017 A 
ATOM     27  C18 UNL     1      22.313  15.212  27.285  0.00  0.00    +0.050 A 
ATOM     28  C19 UNL     1      23.365  14.294  27.209  0.00  0.00    +0.158 A 
ATOM     29  C20 UNL     1      23.664  13.484  28.317  0.00  0.00    +0.159 A 
ATOM     30  C21 UNL     1      22.907  13.603  29.491  0.00  0.00    +0.062 A 
BRANCH  28  31
ATOM     31  O2  UNL     1      24.099  14.201  26.027  0.00  0.00    -0.503 OA
ATOM     32  H13 UNL     1      25.031  13.806  26.003  0.00  0.00    +0.292 HD
ENDBRANCH  28  31
BRANCH  29  33
ATOM     33  O3  UNL     1      24.710  12.566  28.247  0.00  0.00    -0.503 OA
ATOM     34  H14 UNL     1      24.905  11.924  29.006  0.00  0.00    +0.292 HD
ENDBRANCH  29  33
ENDBRANCH  22  25
ENDBRANCH   1  23
TORSDOF 5
ENDMDL
MODEL 5
REMARK VINA RESULT:    -7.221      9.388     12.597
REMARK INTER + INTRA:          -9.625
REMARK INTER:                  -8.889
REMARK INTRA:                  -0.736
REMARK UNBOUND:                -0.715
REMARK  Name = /home/qwerty/github/datacon2025hack/step_04_hit_selection/docking/ligands/lig_288.pdb
REMARK  5 active torsions:
REMARK  status: ('A' for Active; 'I' for Inactive)
REMARK    1  A    between atoms: C1_2  and  C16_22
REMARK    2  A    between atoms: N1_3  and  C2_4
REMARK    3  A    between atoms: C6_10  and  C7_11
REMARK    4  A    between atoms: C19_25  and  O2_26
REMARK    5  A    between atoms: C20_27  and  O3_28
REMARK                            x       y       z     vdW  Elec       q    Type
REMARK                         _______ _______ _______ _____ _____    ______ ____
ROOT
ATOM      1  C2  UNL     1      15.074  14.805  28.333  0.00  0.00    +0.034 A 
ATOM      2  C3  UNL     1      14.588  15.078  27.029  0.00  0.00    +0.025 A 
ATOM      3  C4  UNL     1      13.216  14.985  26.737  0.00  0.00    +0.029 A 
ATOM      4  C5  UNL     1      12.362  14.589  27.762  0.00  0.00    +0.067 A 
ATOM      5  N2  UNL     1      11.027  14.468  27.724  0.00  0.00    -0.276 N 
ATOM      6  N3  UNL     1      10.605  14.087  28.924  0.00  0.00    -0.170 NA
ATOM      7  C6  UNL     1      11.682  13.953  29.734  0.00  0.00    +0.135 A 
ATOM      8  C14 UNL     1      12.820  14.282  29.012  0.00  0.00    +0.032 A 
ATOM      9  C15 UNL     1      14.172  14.392  29.345  0.00  0.00    +0.035 A 
ATOM     10  H4  UNL     1      10.403  14.647  26.906  0.00  0.00    +0.189 HD
ENDROOT
BRANCH   7  11
ATOM     11  C7  UNL     1      11.582  13.533  31.141  0.00  0.00    +0.160 A 
ATOM     12  N4  UNL     1      11.365  14.421  32.148  0.00  0.00    -0.226 NA
ATOM     13  C8  UNL     1      11.298  13.631  33.234  0.00  0.00    +0.090 A 
ATOM     14  C9  UNL     1      11.080  14.014  34.555  0.00  0.00    +0.030 A 
ATOM     15  C10 UNL     1      11.025  12.999  35.530  0.00  0.00    +0.002 A 
ATOM     16  C11 UNL     1      11.185  11.643  35.160  0.00  0.00    +0.002 A 
ATOM     17  C12 UNL     1      11.400  11.292  33.814  0.00  0.00    +0.028 A 
ATOM     18  C13 UNL     1      11.455  12.325  32.881  0.00  0.00    +0.067 A 
ATOM     19  N5  UNL     1      11.631  12.241  31.557  0.00  0.00    -0.337 N 
ATOM     20  H9  UNL     1      11.716  11.372  30.987  0.00  0.00    +0.167 HD
ENDBRANCH   7  11
BRANCH   1  23
ATOM     21  O1  UNL     1      16.515  17.165  29.205  0.00  0.00    -0.270 OA
ATOM     22  C1  UNL     1      17.096  16.046  29.232  0.00  0.00    +0.248 C 
ATOM     23  N1  UNL     1      16.485  14.912  28.593  0.00  0.00    -0.281 N 
ATOM     24  H1  UNL     1      17.110  14.175  28.198  0.00  0.00    +0.155 HD
BRANCH  22  25
ATOM     25  C16 UNL     1      18.425  15.929  29.879  0.00  0.00    +0.041 A 
ATOM     26  C17 UNL     1      19.417  16.905  29.675  0.00  0.00    +0.017 A 
ATOM     27  C18 UNL     1      20.669  16.781  30.283  0.00  0.00    +0.050 A 
ATOM     28  C19 UNL     1      20.954  15.682  31.099  0.00  0.00    +0.158 A 
ATOM     29  C20 UNL     1      19.977  14.695  31.303  0.00  0.00    +0.159 A 
ATOM     30  C21 UNL     1      18.721  14.819  30.692  0.00  0.00    +0.062 A 
BRANCH  28  31
ATOM     31  O2  UNL     1      22.213  15.588  31.693  0.00  0.00    -0.503 OA
ATOM     32  H13 UNL     1      22.372  15.848  32.659  0.00  0.00    +0.292 HD
ENDBRANCH  28  31
BRANCH  29  33
ATOM     33  O3  UNL     1      20.256  13.595  32.113  0.00  0.00    -0.503 OA
ATOM     34  H14 UNL     1      19.886  13.520  33.053  0.00  0.00    +0.292 HD
ENDBRANCH  29  33
ENDBRANCH  22  25
ENDBRANCH   1  23
TORSDOF 5
ENDMDL
MODEL 6
REMARK VINA RESULT:    -7.204     12.149     14.418
REMARK INTER + INTRA:          -9.604
REMARK INTER:                  -8.918
REMARK INTRA:                  -0.686
REMARK UNBOUND:                -0.715
REMARK  Name = /home/qwerty/github/datacon2025hack/step_04_hit_selection/docking/ligands/lig_288.pdb
REMARK  5 active torsions:
REMARK  status: ('A' for Active; 'I' for Inactive)
REMARK    1  A    between atoms: C1_2  and  C16_22
REMARK    2  A    between atoms: N1_3  and  C2_4
REMARK    3  A    between atoms: C6_10  and  C7_11
REMARK    4  A    between atoms: C19_25  and  O2_26
REMARK    5  A    between atoms: C20_27  and  O3_28
REMARK                            x       y       z     vdW  Elec       q    Type
REMARK                         _______ _______ _______ _____ _____    ______ ____
ROOT
ATOM      1  C2  UNL     1      14.529  12.504  35.064  0.00  0.00    +0.034 A 
ATOM      2  C3  UNL     1      14.037  12.781  36.366  0.00  0.00    +0.025 A 
ATOM      3  C4  UNL     1      12.799  13.423  36.547  0.00  0.00    +0.029 A 
ATOM      4  C5  UNL     1      12.093  13.800  35.408  0.00  0.00    +0.067 A 
ATOM      5  N2  UNL     1      10.888  14.385  35.339  0.00  0.00    -0.276 N 
ATOM      6  N3  UNL     1      10.573  14.550  34.060  0.00  0.00    -0.170 NA
ATOM      7  C6  UNL     1      11.592  14.076  33.304  0.00  0.00    +0.135 A 
ATOM      8  C14 UNL     1      12.573  13.578  34.148  0.00  0.00    +0.032 A 
ATOM      9  C15 UNL     1      13.784  12.917  33.932  0.00  0.00    +0.035 A 
ATOM     10  H4  UNL     1      10.278  14.662  36.140  0.00  0.00    +0.189 HD
ENDROOT
BRANCH   7  11
ATOM     11  C7  UNL     1      11.582  14.108  31.833  0.00  0.00    +0.160 A 
ATOM     12  N4  UNL     1      10.579  13.550  31.103  0.00  0.00    -0.226 NA
ATOM     13  C8  UNL     1      10.933  13.838  29.838  0.00  0.00    +0.090 A 
ATOM     14  C9  UNL     1      10.254  13.511  28.666  0.00  0.00    +0.030 A 
ATOM     15  C10 UNL     1      10.810  13.945  27.447  0.00  0.00    +0.002 A 
ATOM     16  C11 UNL     1      12.012  14.689  27.433  0.00  0.00    +0.002 A 
ATOM     17  C12 UNL     1      12.669  15.005  28.637  0.00  0.00    +0.028 A 
ATOM     18  C13 UNL     1      12.093  14.552  29.821  0.00  0.00    +0.067 A 
ATOM     19  N5  UNL     1      12.518  14.738  31.076  0.00  0.00    -0.337 N 
ATOM     20  H9  UNL     1      13.342  15.297  31.387  0.00  0.00    +0.167 HD
ENDBRANCH   7  11
BRANCH   1  23
ATOM     21  O1  UNL     1      17.145  13.752  35.011  0.00  0.00    -0.270 OA
ATOM     22  C1  UNL     1      17.065  12.499  35.122  0.00  0.00    +0.248 C 
ATOM     23  N1  UNL     1      15.799  11.846  34.920  0.00  0.00    -0.281 N 
ATOM     24  H1  UNL     1      15.803  10.873  34.541  0.00  0.00    +0.155 HD
BRANCH  22  25
ATOM     25  C16 UNL     1      18.288  11.711  35.411  0.00  0.00    +0.041 A 
ATOM     26  C17 UNL     1      19.397  11.756  34.547  0.00  0.00    +0.017 A 
ATOM     27  C18 UNL     1      20.542  11.005  34.825  0.00  0.00    +0.050 A 
ATOM     28  C19 UNL     1      20.598  10.194  35.962  0.00  0.00    +0.158 A 
ATOM     29  C20 UNL     1      19.495  10.132  36.828  0.00  0.00    +0.159 A 
ATOM     30  C21 UNL     1      18.346  10.886  36.549  0.00  0.00    +0.062 A 
BRANCH  28  31
ATOM     31  O2  UNL     1      21.756   9.456  36.212  0.00  0.00    -0.503 OA
ATOM     32  H13 UNL     1      21.722   8.498  36.538  0.00  0.00    +0.292 HD
ENDBRANCH  28  31
BRANCH  29  33
ATOM     33  O3  UNL     1      19.543   9.323  37.963  0.00  0.00    -0.503 OA
ATOM     34  H14 UNL     1      19.908   9.665  38.843  0.00  0.00    +0.292 HD
ENDBRANCH  29  33
ENDBRANCH  22  25
ENDBRANCH   1  23
TORSDOF 5
ENDMDL
MODEL 7
REMARK VINA RESULT:    -7.130     14.212     16.631
REMARK INTER + INTRA:          -9.512
REMARK INTER:                  -9.066
REMARK INTRA:                  -0.446
REMARK UNBOUND:                -0.715
REMARK  Name = /home/qwerty/github/datacon2025hack/step_04_hit_selection/docking/ligands/lig_288.pdb
REMARK  5 active torsions:
REMARK  status: ('A' for Active; 'I' for Inactive)
REMARK    1  A    between atoms: C1_2  and  C16_22
REMARK    2  A    between atoms: N1_3  and  C2_4
REMARK    3  A    between atoms: C6_10  and  C7_11
REMARK    4  A    between atoms: C19_25  and  O2_26
REMARK    5  A    between atoms: C20_27  and  O3_28
REMARK                            x       y       z     vdW  Elec       q    Type
REMARK                         _______ _______ _______ _____ _____    ______ ____
ROOT
ATOM      1  C2  UNL     1      10.060   7.715  22.066  0.00  0.00    +0.034 A 
ATOM      2  C3  UNL     1       9.777   8.493  20.915  0.00  0.00    +0.025 A 
ATOM      3  C4  UNL     1       8.885   9.578  20.979  0.00  0.00    +0.029 A 
ATOM      4  C5  UNL     1       8.272   9.840  22.201  0.00  0.00    +0.067 A 
ATOM      5  N2  UNL     1       7.424  10.833  22.504  0.00  0.00    -0.276 N 
ATOM      6  N3  UNL     1       7.095  10.730  23.786  0.00  0.00    -0.170 NA
ATOM      7  C6  UNL     1       7.731   9.653  24.305  0.00  0.00    +0.135 A 
ATOM      8  C14 UNL     1       8.502   9.073  23.309  0.00  0.00    +0.032 A 
ATOM      9  C15 UNL     1       9.404   8.007  23.288  0.00  0.00    +0.035 A 
ATOM     10  H4  UNL     1       7.076  11.579  21.860  0.00  0.00    +0.189 HD
ENDROOT
BRANCH   7  11
ATOM     11  C7  UNL     1       7.587   9.235  25.709  0.00  0.00    +0.160 A 
ATOM     12  N4  UNL     1       7.615   7.927  26.082  0.00  0.00    -0.226 NA
ATOM     13  C8  UNL     1       7.497   7.995  27.419  0.00  0.00    +0.090 A 
ATOM     14  C9  UNL     1       7.476   6.940  28.328  0.00  0.00    +0.030 A 
ATOM     15  C10 UNL     1       7.368   7.258  29.696  0.00  0.00    +0.002 A 
ATOM     16  C11 UNL     1       7.288   8.607  30.113  0.00  0.00    +0.002 A 
ATOM     17  C12 UNL     1       7.316   9.648  29.166  0.00  0.00    +0.028 A 
ATOM     18  C13 UNL     1       7.416   9.293  27.824  0.00  0.00    +0.067 A 
ATOM     19  N5  UNL     1       7.476  10.095  26.754  0.00  0.00    -0.337 N 
ATOM     20  H9  UNL     1       7.501  11.138  26.749  0.00  0.00    +0.167 HD
ENDBRANCH   7  11
BRANCH   1  23
ATOM     21  O1  UNL     1       9.639   5.221  20.649  0.00  0.00    -0.270 OA
ATOM     22  C1  UNL     1      10.795   5.504  21.063  0.00  0.00    +0.248 C 
ATOM     23  N1  UNL     1      10.978   6.613  21.960  0.00  0.00    -0.281 N 
ATOM     24  H1  UNL     1      11.762   6.563  22.649  0.00  0.00    +0.155 HD
BRANCH  22  25
ATOM     25  C16 UNL     1      11.943   4.657  20.659  0.00  0.00    +0.041 A 
ATOM     26  C17 UNL     1      13.026   5.200  19.943  0.00  0.00    +0.017 A 
ATOM     27  C18 UNL     1      14.099   4.392  19.560  0.00  0.00    +0.050 A 
ATOM     28  C19 UNL     1      14.110   3.031  19.877  0.00  0.00    +0.158 A 
ATOM     29  C20 UNL     1      13.031   2.472  20.583  0.00  0.00    +0.159 A 
ATOM     30  C21 UNL     1      11.954   3.284  20.967  0.00  0.00    +0.062 A 
BRANCH  28  31
ATOM     31  O2  UNL     1      15.196   2.251  19.481  0.00  0.00    -0.503 OA
ATOM     32  H13 UNL     1      16.087   2.287  19.962  0.00  0.00    +0.292 HD
ENDBRANCH  28  31
BRANCH  29  33
ATOM     33  O3  UNL     1      13.034   1.115  20.900  0.00  0.00    -0.503 OA
ATOM     34  H14 UNL     1      12.769   0.784  21.820  0.00  0.00    +0.292 HD
ENDBRANCH  29  33
ENDBRANCH  22  25
ENDBRANCH   1  23
TORSDOF 5
ENDMDL
MODEL 8
REMARK VINA RESULT:    -7.095     10.531     14.790
REMARK INTER + INTRA:          -9.469
REMARK INTER:                  -8.799
REMARK INTRA:                  -0.670
REMARK UNBOUND:                -0.715
REMARK  Name = /home/qwerty/github/datacon2025hack/step_04_hit_selection/docking/ligands/lig_288.pdb
REMARK  5 active torsions:
REMARK  status: ('A' for Active; 'I' for Inactive)
REMARK    1  A    between atoms: C1_2  and  C16_22
REMARK    2  A    between atoms: N1_3  and  C2_4
REMARK    3  A    between atoms: C6_10  and  C7_11
REMARK    4  A    between atoms: C19_25  and  O2_26
REMARK    5  A    between atoms: C20_27  and  O3_28
REMARK                            x       y       z     vdW  Elec       q    Type
REMARK                         _______ _______ _______ _____ _____    ______ ____
ROOT
ATOM      1  C2  UNL     1      21.036   2.071  29.104  0.00  0.00    +0.034 A 
ATOM      2  C3  UNL     1      20.491   0.899  29.688  0.00  0.00    +0.025 A 
ATOM      3  C4  UNL     1      20.475   0.729  31.083  0.00  0.00    +0.029 A 
ATOM      4  C5  UNL     1      21.037   1.735  31.864  0.00  0.00    +0.067 A 
ATOM      5  N2  UNL     1      21.100   1.805  33.202  0.00  0.00    -0.276 N 
ATOM      6  N3  UNL     1      21.697   2.942  33.536  0.00  0.00    -0.170 NA
ATOM      7  C6  UNL     1      22.029   3.601  32.400  0.00  0.00    +0.135 A 
ATOM      8  C14 UNL     1      21.604   2.851  31.314  0.00  0.00    +0.032 A 
ATOM      9  C15 UNL     1      21.610   3.066  29.934  0.00  0.00    +0.035 A 
ATOM     10  H4  UNL     1      20.739   1.101  33.885  0.00  0.00    +0.189 HD
ENDROOT
BRANCH   7  11
ATOM     11  C7  UNL     1      22.718   4.902  32.399  0.00  0.00    +0.160 A 
ATOM     12  N4  UNL     1      22.265   5.960  31.674  0.00  0.00    -0.226 NA
ATOM     13  C8  UNL     1      23.138   6.933  31.988  0.00  0.00    +0.090 A 
ATOM     14  C9  UNL     1      23.148   8.250  31.533  0.00  0.00    +0.030 A 
ATOM     15  C10 UNL     1      24.156   9.103  32.023  0.00  0.00    +0.002 A 
ATOM     16  C11 UNL     1      25.113   8.623  32.947  0.00  0.00    +0.002 A 
ATOM     17  C12 UNL     1      25.070   7.287  33.388  0.00  0.00    +0.028 A 
ATOM     18  C13 UNL     1      24.063   6.473  32.875  0.00  0.00    +0.067 A 
ATOM     19  N5  UNL     1      23.811   5.188  33.152  0.00  0.00    -0.337 N 
ATOM     20  H9  UNL     1      24.308   4.583  33.841  0.00  0.00    +0.167 HD
ENDBRANCH   7  11
BRANCH   1  23
ATOM     21  O1  UNL     1      19.048   3.422  27.483  0.00  0.00    -0.270 OA
ATOM     22  C1  UNL     1      20.139   3.075  26.954  0.00  0.00    +0.248 C 
ATOM     23  N1  UNL     1      21.034   2.208  27.673  0.00  0.00    -0.281 N 
ATOM     24  H1  UNL     1      21.640   1.562  27.120  0.00  0.00    +0.155 HD
BRANCH  22  25
ATOM     25  C16 UNL     1      20.460   3.528  25.579  0.00  0.00    +0.041 A 
ATOM     26  C17 UNL     1      19.911   2.879  24.458  0.00  0.00    +0.017 A 
ATOM     27  C18 UNL     1      20.225   3.308  23.166  0.00  0.00    +0.050 A 
ATOM     28  C19 UNL     1      21.095   4.385  22.970  0.00  0.00    +0.158 A 
ATOM     29  C20 UNL     1      21.658   5.036  24.080  0.00  0.00    +0.159 A 
ATOM     30  C21 UNL     1      21.342   4.605  25.375  0.00  0.00    +0.062 A 
BRANCH  28  31
ATOM     31  O2  UNL     1      21.388   4.790  21.668  0.00  0.00    -0.503 OA
ATOM     32  H13 UNL     1      20.936   4.377  20.862  0.00  0.00    +0.292 HD
ENDBRANCH  28  31
BRANCH  29  33
ATOM     33  O3  UNL     1      22.528   6.109  23.891  0.00  0.00    -0.503 OA
ATOM     34  H14 UNL     1      22.203   7.001  23.537  0.00  0.00    +0.292 HD
ENDBRANCH  29  33
ENDBRANCH  22  25
ENDBRANCH   1  23
TORSDOF 5
ENDMDL
MODEL 9
REMARK VINA RESULT:    -7.095     10.336     13.740
REMARK INTER + INTRA:          -9.468
REMARK INTER:                  -8.795
REMARK INTRA:                  -0.674
REMARK UNBOUND:                -0.715
REMARK  Name = /home/qwerty/github/datacon2025hack/step_04_hit_selection/docking/ligands/lig_288.pdb
REMARK  5 active torsions:
REMARK  status: ('A' for Active; 'I' for Inactive)
REMARK    1  A    between atoms: C1_2  and  C16_22
REMARK    2  A    between atoms: N1_3  and  C2_4
REMARK    3  A    between atoms: C6_10  and  C7_11
REMARK    4  A    between atoms: C19_25  and  O2_26
REMARK    5  A    between atoms: C20_27  and  O3_28
REMARK                            x       y       z     vdW  Elec       q    Type
REMARK                         _______ _______ _______ _____ _____    ______ ____
ROOT
ATOM      1  C2  UNL     1      11.439  13.674  30.624  0.00  0.00    +0.034 A 
ATOM      2  C3  UNL     1      10.500  13.655  29.561  0.00  0.00    +0.025 A 
ATOM      3  C4  UNL     1      10.875  14.040  28.262  0.00  0.00    +0.029 A 
ATOM      4  C5  UNL     1      12.185  14.465  28.066  0.00  0.00    +0.067 A 
ATOM      5  N2  UNL     1      12.769  14.839  26.918  0.00  0.00    -0.276 N 
ATOM      6  N3  UNL     1      14.035  15.147  27.170  0.00  0.00    -0.170 NA
ATOM      7  C6  UNL     1      14.260  14.978  28.495  0.00  0.00    +0.135 A 
ATOM      8  C14 UNL     1      13.090  14.528  29.087  0.00  0.00    +0.032 A 
ATOM      9  C15 UNL     1      12.761  14.125  30.384  0.00  0.00    +0.035 A 
ATOM     10  H4  UNL     1      12.326  14.880  25.972  0.00  0.00    +0.189 HD
ENDROOT
BRANCH   7  11
ATOM     11  C7  UNL     1      15.564  15.238  29.127  0.00  0.00    +0.160 A 
ATOM     12  N4  UNL     1      16.218  16.421  28.977  0.00  0.00    -0.226 NA
ATOM     13  C8  UNL     1      17.315  16.254  29.737  0.00  0.00    +0.090 A 
ATOM     14  C9  UNL     1      18.345  17.165  29.959  0.00  0.00    +0.030 A 
ATOM     15  C10 UNL     1      19.389  16.774  30.821  0.00  0.00    +0.002 A 
ATOM     16  C11 UNL     1      19.372  15.499  31.433  0.00  0.00    +0.002 A 
ATOM     17  C12 UNL     1      18.312  14.605  31.188  0.00  0.00    +0.028 A 
ATOM     18  C13 UNL     1      17.303  15.025  30.325  0.00  0.00    +0.067 A 
ATOM     19  N5  UNL     1      16.198  14.368  29.955  0.00  0.00    -0.337 N 
ATOM     20  H9  UNL     1      15.881  13.431  30.288  0.00  0.00    +0.167 HD
ENDBRANCH   7  11
BRANCH   1  23
ATOM     21  O1  UNL     1      11.833  11.085  31.868  0.00  0.00    -0.270 OA
ATOM     22  C1  UNL     1      11.438  12.052  32.575  0.00  0.00    +0.248 C 
ATOM     23  N1  UNL     1      11.019  13.272  31.939  0.00  0.00    -0.281 N 
ATOM     24  H1  UNL     1      10.284  13.845  32.412  0.00  0.00    +0.155 HD
BRANCH  22  25
ATOM     25  C16 UNL     1      11.364  11.898  34.048  0.00  0.00    +0.041 A 
ATOM     26  C17 UNL     1      11.031  12.988  34.873  0.00  0.00    +0.017 A 
ATOM     27  C18 UNL     1      10.972  12.835  36.260  0.00  0.00    +0.050 A 
ATOM     28  C19 UNL     1      11.249  11.597  36.848  0.00  0.00    +0.158 A 
ATOM     29  C20 UNL     1      11.593  10.503  36.038  0.00  0.00    +0.159 A 
ATOM     30  C21 UNL     1      11.652  10.658  34.646  0.00  0.00    +0.062 A 
BRANCH  28  31
ATOM     31  O2  UNL     1      11.181  11.476  38.236  0.00  0.00    -0.503 OA
ATOM     32  H13 UNL     1      12.010  11.484  38.817  0.00  0.00    +0.292 HD
ENDBRANCH  28  31
BRANCH  29  33
ATOM     33  O3  UNL     1      11.873   9.267  36.618  0.00  0.00    -0.503 OA
ATOM     34  H14 UNL     1      11.457   8.987  37.499  0.00  0.00    +0.292 HD
ENDBRANCH  29  33
ENDBRANCH  22  25
ENDBRANCH   1  23
TORSDOF 5
ENDMDL
