MODEL 1
REMARK VINA RESULT:    -5.285      0.000      0.000
REMARK INTER + INTRA:          -8.207
REMARK INTER:                  -7.447
REMARK INTRA:                  -0.759
REMARK UNBOUND:                -0.759
REMARK  Name = /home/qwerty/github/datacon2025hack/step_04_hit_selection/docking/ligands/lig_427.pdb
REMARK  9 active torsions:
REMARK  status: ('A' for Active; 'I' for Inactive)
REMARK    1  A    between atoms: C1_1  and  C2_2
REMARK    2  A    between atoms: C2_2  and  C3_3
REMARK    3  A    between atoms: C3_3  and  C4_5
REMARK    4  A    between atoms: C4_5  and  N1_6
REMARK    5  A    between atoms: C8_10  and  C9_11
REMARK    6  A    between atoms: C9_11  and  N2_12
REMARK    7  A    between atoms: C10_13  and  C11_15
REMARK    8  A    between atoms: N3_17  and  C13_18
REMARK    9  A    between atoms: C14_20  and  C15_21
REMARK                            x       y       z     vdW  Elec       q    Type
REMARK                         _______ _______ _______ _____ _____    ______ ____
ROOT
ATOM      1  N2  UNL     1      18.359   1.260  26.565  0.00  0.00    -0.310 N 
ATOM      2  C10 UNL     1      19.650   0.871  26.071  0.00  0.00    +0.247 C 
ATOM      3  O1  UNL     1      19.789  -0.241  25.495  0.00  0.00    -0.270 OA
ATOM      4  H18 UNL     1      18.204   2.241  26.887  0.00  0.00    +0.149 HD
ENDROOT
BRANCH   2   5
ATOM      5  C11 UNL     1      20.819   1.761  26.230  0.00  0.00    +0.077 A 
ATOM      6  C12 UNL     1      21.164   2.839  25.435  0.00  0.00    +0.121 A 
ATOM      7  N3  UNL     1      22.269   3.406  25.954  0.00  0.00    -0.273 N 
ATOM      8  C13 UNL     1      22.987   4.541  25.391  0.00  0.00    +0.172 C 
ATOM      9  N4  UNL     1      22.664   2.742  27.028  0.00  0.00    -0.175 NA
ATOM     10  C14 UNL     1      21.796   1.728  27.218  0.00  0.00    +0.078 A 
BRANCH  10  11
ATOM     11  C15 UNL     1      21.878   0.771  28.370  0.00  0.00    +0.040 C 
ATOM     12  C16 UNL     1      21.108   1.192  29.614  0.00  0.00    +0.010 C 
ATOM     13  C17 UNL     1      22.622   1.309  29.583  0.00  0.00    +0.010 C 
ENDBRANCH  10  11
ENDBRANCH   2   5
BRANCH   1  14
ATOM     14  C9  UNL     1      17.207   0.359  26.556  0.00  0.00    +0.123 C 
BRANCH  14  19
ATOM     15  N1  UNL     1      16.482  -0.340  24.315  0.00  0.00    -0.295 NA
ATOM     16  C5  UNL     1      16.885   0.391  23.103  0.00  0.00    +0.085 C 
ATOM     17  C6  UNL     1      17.372   1.754  23.540  0.00  0.00    +0.017 C 
ATOM     18  C7  UNL     1      16.556   2.045  24.772  0.00  0.00    +0.022 C 
ATOM     19  C8  UNL     1      16.263   0.667  25.377  0.00  0.00    +0.074 C 
BRANCH  15  20
ATOM     20  C4  UNL     1      15.305  -1.198  24.056  0.00  0.00    +0.121 C 
BRANCH  20  21
ATOM     21  C3  UNL     1      15.522  -2.621  24.595  0.00  0.00    +0.180 C 
ATOM     22  F1  UNL     1      16.687  -2.671  25.339  0.00  0.00    -0.244 F 
BRANCH  21  24
ATOM     23  C1  UNL     1      14.103  -2.074  26.622  0.00  0.00    +0.007 C 
ATOM     24  C2  UNL     1      14.344  -3.058  25.479  0.00  0.00    +0.035 C 
ENDBRANCH  21  24
ENDBRANCH  20  21
ENDBRANCH  15  20
ENDBRANCH  14  19
ENDBRANCH   1  14
TORSDOF 7
ENDMDL
MODEL 2
REMARK VINA RESULT:    -5.250      2.085      3.358
REMARK INTER + INTRA:          -8.158
REMARK INTER:                  -7.380
REMARK INTRA:                  -0.778
REMARK UNBOUND:                -0.759
REMARK  Name = /home/qwerty/github/datacon2025hack/step_04_hit_selection/docking/ligands/lig_427.pdb
REMARK  9 active torsions:
REMARK  status: ('A' for Active; 'I' for Inactive)
REMARK    1  A    between atoms: C1_1  and  C2_2
REMARK    2  A    between atoms: C2_2  and  C3_3
REMARK    3  A    between atoms: C3_3  and  C4_5
REMARK    4  A    between atoms: C4_5  and  N1_6
REMARK    5  A    between atoms: C8_10  and  C9_11
REMARK    6  A    between atoms: C9_11  and  N2_12
REMARK    7  A    between atoms: C10_13  and  C11_15
REMARK    8  A    between atoms: N3_17  and  C13_18
REMARK    9  A    between atoms: C14_20  and  C15_21
REMARK                            x       y       z     vdW  Elec       q    Type
REMARK                         _______ _______ _______ _____ _____    ______ ____
ROOT
ATOM      1  N2  UNL     1      19.659  -0.135  25.131  0.00  0.00    -0.310 N 
ATOM      2  C10 UNL     1      19.678   0.853  26.172  0.00  0.00    +0.247 C 
ATOM      3  O1  UNL     1      18.694   0.958  26.952  0.00  0.00    -0.270 OA
ATOM      4  H18 UNL     1      20.533  -0.338  24.596  0.00  0.00    +0.149 HD
ENDROOT
BRANCH   2   5
ATOM      5  C11 UNL     1      20.841   1.749  26.343  0.00  0.00    +0.077 A 
ATOM      6  C12 UNL     1      21.262   2.747  25.483  0.00  0.00    +0.121 A 
ATOM      7  N3  UNL     1      22.327   3.356  26.036  0.00  0.00    -0.273 N 
ATOM      8  C13 UNL     1      23.101   4.431  25.431  0.00  0.00    +0.172 C 
ATOM      9  N4  UNL     1      22.626   2.794  27.195  0.00  0.00    -0.175 NA
ATOM     10  C14 UNL     1      21.734   1.805  27.406  0.00  0.00    +0.078 A 
BRANCH  10  11
ATOM     11  C15 UNL     1      21.712   0.958  28.645  0.00  0.00    +0.040 C 
ATOM     12  C16 UNL     1      23.073   0.707  29.278  0.00  0.00    +0.010 C 
ATOM     13  C17 UNL     1      22.388  -0.397  28.492  0.00  0.00    +0.010 C 
ENDBRANCH  10  11
ENDBRANCH   2   5
BRANCH   1  14
ATOM     14  C9  UNL     1      18.479  -0.947  24.836  0.00  0.00    +0.123 C 
BRANCH  14  19
ATOM     15  N1  UNL     1      16.562   0.400  24.100  0.00  0.00    -0.295 NA
ATOM     16  C5  UNL     1      15.345  -0.214  23.544  0.00  0.00    +0.085 C 
ATOM     17  C6  UNL     1      15.699  -1.628  23.139  0.00  0.00    +0.017 C 
ATOM     18  C7  UNL     1      17.152  -1.533  22.752  0.00  0.00    +0.022 C 
ATOM     19  C8  UNL     1      17.711  -0.398  23.619  0.00  0.00    +0.074 C 
BRANCH  15  20
ATOM     20  C4  UNL     1      16.645   1.835  23.748  0.00  0.00    +0.121 C 
BRANCH  20  21
ATOM     21  C3  UNL     1      15.716   2.175  22.571  0.00  0.00    +0.180 C 
ATOM     22  F1  UNL     1      14.969   3.301  22.869  0.00  0.00    -0.244 F 
BRANCH  21  24
ATOM     23  C1  UNL     1      16.306   1.335  20.254  0.00  0.00    +0.007 C 
ATOM     24  C2  UNL     1      16.525   2.435  21.291  0.00  0.00    +0.035 C 
ENDBRANCH  21  24
ENDBRANCH  20  21
ENDBRANCH  15  20
ENDBRANCH  14  19
ENDBRANCH   1  14
TORSDOF 7
ENDMDL
MODEL 3
REMARK VINA RESULT:    -5.244      1.631      2.047
REMARK INTER + INTRA:          -8.149
REMARK INTER:                  -7.471
REMARK INTRA:                  -0.678
REMARK UNBOUND:                -0.759
REMARK  Name = /home/qwerty/github/datacon2025hack/step_04_hit_selection/docking/ligands/lig_427.pdb
REMARK  9 active torsions:
REMARK  status: ('A' for Active; 'I' for Inactive)
REMARK    1  A    between atoms: C1_1  and  C2_2
REMARK    2  A    between atoms: C2_2  and  C3_3
REMARK    3  A    between atoms: C3_3  and  C4_5
REMARK    4  A    between atoms: C4_5  and  N1_6
REMARK    5  A    between atoms: C8_10  and  C9_11
REMARK    6  A    between atoms: C9_11  and  N2_12
REMARK    7  A    between atoms: C10_13  and  C11_15
REMARK    8  A    between atoms: N3_17  and  C13_18
REMARK    9  A    between atoms: C14_20  and  C15_21
REMARK                            x       y       z     vdW  Elec       q    Type
REMARK                         _______ _______ _______ _____ _____    ______ ____
ROOT
ATOM      1  N2  UNL     1      19.345  -0.165  25.045  0.00  0.00    -0.310 N 
ATOM      2  C10 UNL     1      19.472   0.764  26.133  0.00  0.00    +0.247 C 
ATOM      3  O1  UNL     1      18.546   0.863  26.982  0.00  0.00    -0.270 OA
ATOM      4  H18 UNL     1      20.172  -0.370  24.443  0.00  0.00    +0.149 HD
ENDROOT
BRANCH   2   5
ATOM      5  C11 UNL     1      20.679   1.607  26.270  0.00  0.00    +0.077 A 
ATOM      6  C12 UNL     1      21.035   2.691  25.489  0.00  0.00    +0.121 A 
ATOM      7  N3  UNL     1      22.177   3.204  25.981  0.00  0.00    -0.273 N 
ATOM      8  C13 UNL     1      22.917   4.326  25.420  0.00  0.00    +0.172 C 
ATOM      9  N4  UNL     1      22.586   2.500  27.024  0.00  0.00    -0.175 NA
ATOM     10  C14 UNL     1      21.688   1.513  27.220  0.00  0.00    +0.078 A 
BRANCH  10  11
ATOM     11  C15 UNL     1      21.775   0.524  28.345  0.00  0.00    +0.040 C 
ATOM     12  C16 UNL     1      21.243   1.021  29.683  0.00  0.00    +0.010 C 
ATOM     13  C17 UNL     1      22.741   0.917  29.454  0.00  0.00    +0.010 C 
ENDBRANCH  10  11
ENDBRANCH   2   5
BRANCH   1  14
ATOM     14  C9  UNL     1      18.116  -0.916  24.790  0.00  0.00    +0.123 C 
BRANCH  14  19
ATOM     15  N1  UNL     1      15.743  -0.453  24.359  0.00  0.00    -0.295 NA
ATOM     16  C5  UNL     1      15.056  -0.958  23.159  0.00  0.00    +0.085 C 
ATOM     17  C6  UNL     1      16.122  -1.356  22.163  0.00  0.00    +0.017 C 
ATOM     18  C7  UNL     1      17.254  -0.406  22.457  0.00  0.00    +0.022 C 
ATOM     19  C8  UNL     1      17.119  -0.093  23.952  0.00  0.00    +0.074 C 
BRANCH  15  20
ATOM     20  C4  UNL     1      14.993   0.665  24.973  0.00  0.00    +0.121 C 
BRANCH  20  21
ATOM     21  C3  UNL     1      14.405   0.260  26.335  0.00  0.00    +0.180 C 
ATOM     22  F1  UNL     1      13.024   0.222  26.260  0.00  0.00    -0.244 F 
BRANCH  21  24
ATOM     23  C1  UNL     1      13.778  -2.039  27.198  0.00  0.00    +0.007 C 
ATOM     24  C2  UNL     1      14.921  -1.122  26.767  0.00  0.00    +0.035 C 
ENDBRANCH  21  24
ENDBRANCH  20  21
ENDBRANCH  15  20
ENDBRANCH  14  19
ENDBRANCH   1  14
TORSDOF 7
ENDMDL
MODEL 4
REMARK VINA RESULT:    -5.209      7.732     11.113
REMARK INTER + INTRA:          -8.100
REMARK INTER:                  -7.417
REMARK INTRA:                  -0.683
REMARK UNBOUND:                -0.759
REMARK  Name = /home/qwerty/github/datacon2025hack/step_04_hit_selection/docking/ligands/lig_427.pdb
REMARK  9 active torsions:
REMARK  status: ('A' for Active; 'I' for Inactive)
REMARK    1  A    between atoms: C1_1  and  C2_2
REMARK    2  A    between atoms: C2_2  and  C3_3
REMARK    3  A    between atoms: C3_3  and  C4_5
REMARK    4  A    between atoms: C4_5  and  N1_6
REMARK    5  A    between atoms: C8_10  and  C9_11
REMARK    6  A    between atoms: C9_11  and  N2_12
REMARK    7  A    between atoms: C10_13  and  C11_15
REMARK    8  A    between atoms: N3_17  and  C13_18
REMARK    9  A    between atoms: C14_20  and  C15_21
REMARK                            x       y       z     vdW  Elec       q    Type
REMARK                         _______ _______ _______ _____ _____    ______ ____
ROOT
ATOM      1  N2  UNL     1      11.684   3.776  20.117  0.00  0.00    -0.310 N 
ATOM      2  C10 UNL     1      10.779   4.189  21.152  0.00  0.00    +0.247 C 
ATOM      3  O1  UNL     1      10.941   3.768  22.328  0.00  0.00    -0.270 OA
ATOM      4  H18 UNL     1      11.656   4.251  19.187  0.00  0.00    +0.149 HD
ENDROOT
BRANCH   2   5
ATOM      5  C11 UNL     1       9.657   5.105  20.854  0.00  0.00    +0.077 A 
ATOM      6  C12 UNL     1       8.306   4.820  20.914  0.00  0.00    +0.121 A 
ATOM      7  N3  UNL     1       7.627   5.943  20.616  0.00  0.00    -0.273 N 
ATOM      8  C13 UNL     1       6.179   6.061  20.520  0.00  0.00    +0.172 C 
ATOM      9  N4  UNL     1       8.466   6.930  20.350  0.00  0.00    -0.175 NA
ATOM     10  C14 UNL     1       9.717   6.443  20.485  0.00  0.00    +0.078 A 
BRANCH  10  11
ATOM     11  C15 UNL     1      10.953   7.275  20.312  0.00  0.00    +0.040 C 
ATOM     12  C16 UNL     1      11.351   8.100  21.528  0.00  0.00    +0.010 C 
ATOM     13  C17 UNL     1      10.709   8.777  20.331  0.00  0.00    +0.010 C 
ENDBRANCH  10  11
ENDBRANCH   2   5
BRANCH   1  14
ATOM     14  C9  UNL     1      12.721   2.767  20.332  0.00  0.00    +0.123 C 
BRANCH  14  19
ATOM     15  N1  UNL     1      15.133   2.911  20.772  0.00  0.00    -0.295 NA
ATOM     16  C5  UNL     1      15.783   4.179  21.141  0.00  0.00    +0.085 C 
ATOM     17  C6  UNL     1      14.838   5.297  20.761  0.00  0.00    +0.017 C 
ATOM     18  C7  UNL     1      14.105   4.751  19.564  0.00  0.00    +0.022 C 
ATOM     19  C8  UNL     1      14.082   3.234  19.782  0.00  0.00    +0.074 C 
BRANCH  15  20
ATOM     20  C4  UNL     1      16.123   1.924  20.288  0.00  0.00    +0.121 C 
BRANCH  20  21
ATOM     21  C3  UNL     1      15.537   0.503  20.283  0.00  0.00    +0.180 C 
ATOM     22  F1  UNL     1      14.926   0.249  19.068  0.00  0.00    -0.244 F 
BRANCH  21  24
ATOM     23  C1  UNL     1      16.985  -1.293  19.236  0.00  0.00    +0.007 C 
ATOM     24  C2  UNL     1      16.635  -0.545  20.520  0.00  0.00    +0.035 C 
ENDBRANCH  21  24
ENDBRANCH  20  21
ENDBRANCH  15  20
ENDBRANCH  14  19
ENDBRANCH   1  14
TORSDOF 7
ENDMDL
MODEL 5
REMARK VINA RESULT:    -5.200     13.068     15.035
REMARK INTER + INTRA:          -8.088
REMARK INTER:                  -7.190
REMARK INTRA:                  -0.898
REMARK UNBOUND:                -0.759
REMARK  Name = /home/qwerty/github/datacon2025hack/step_04_hit_selection/docking/ligands/lig_427.pdb
REMARK  9 active torsions:
REMARK  status: ('A' for Active; 'I' for Inactive)
REMARK    1  A    between atoms: C1_1  and  C2_2
REMARK    2  A    between atoms: C2_2  and  C3_3
REMARK    3  A    between atoms: C3_3  and  C4_5
REMARK    4  A    between atoms: C4_5  and  N1_6
REMARK    5  A    between atoms: C8_10  and  C9_11
REMARK    6  A    between atoms: C9_11  and  N2_12
REMARK    7  A    between atoms: C10_13  and  C11_15
REMARK    8  A    between atoms: N3_17  and  C13_18
REMARK    9  A    between atoms: C14_20  and  C15_21
REMARK                            x       y       z     vdW  Elec       q    Type
REMARK                         _______ _______ _______ _____ _____    ______ ____
ROOT
ATOM      1  N2  UNL     1       8.714   9.057  25.723  0.00  0.00    -0.310 N 
ATOM      2  C10 UNL     1       8.302   9.576  24.449  0.00  0.00    +0.247 C 
ATOM      3  O1  UNL     1       7.144  10.055  24.315  0.00  0.00    -0.270 OA
ATOM      4  H18 UNL     1       9.718   8.818  25.881  0.00  0.00    +0.149 HD
ENDROOT
BRANCH   2   5
ATOM      5  C11 UNL     1       9.220   9.556  23.291  0.00  0.00    +0.077 A 
ATOM      6  C12 UNL     1      10.403  10.258  23.149  0.00  0.00    +0.121 A 
ATOM      7  N3  UNL     1      10.954   9.918  21.970  0.00  0.00    -0.273 N 
ATOM      8  C13 UNL     1      12.183  10.467  21.415  0.00  0.00    +0.172 C 
ATOM      9  N4  UNL     1      10.183   9.049  21.337  0.00  0.00    -0.175 NA
ATOM     10  C14 UNL     1       9.113   8.812  22.122  0.00  0.00    +0.078 A 
BRANCH  10  11
ATOM     11  C15 UNL     1       8.025   7.840  21.771  0.00  0.00    +0.040 C 
ATOM     12  C16 UNL     1       8.276   6.405  22.216  0.00  0.00    +0.010 C 
ATOM     13  C17 UNL     1       8.431   6.783  20.754  0.00  0.00    +0.010 C 
ENDBRANCH  10  11
ENDBRANCH   2   5
BRANCH   1  14
ATOM     14  C9  UNL     1       7.799   8.928  26.856  0.00  0.00    +0.123 C 
BRANCH  14  19
ATOM     15  N1  UNL     1       9.253  10.563  27.971  0.00  0.00    -0.295 NA
ATOM     16  C5  UNL     1       9.494  10.529  29.423  0.00  0.00    +0.085 C 
ATOM     17  C6  UNL     1       8.407   9.677  30.040  0.00  0.00    +0.017 C 
ATOM     18  C7  UNL     1       7.226   9.897  29.132  0.00  0.00    +0.022 C 
ATOM     19  C8  UNL     1       7.841  10.178  27.756  0.00  0.00    +0.074 C 
BRANCH  15  20
ATOM     20  C4  UNL     1       9.604  11.883  27.402  0.00  0.00    +0.121 C 
BRANCH  20  21
ATOM     21  C3  UNL     1       9.470  12.997  28.454  0.00  0.00    +0.180 C 
ATOM     22  F1  UNL     1      10.479  13.928  28.285  0.00  0.00    -0.244 F 
BRANCH  21  24
ATOM     23  C1  UNL     1       7.384  13.753  29.677  0.00  0.00    +0.007 C 
ATOM     24  C2  UNL     1       8.111  13.703  28.335  0.00  0.00    +0.035 C 
ENDBRANCH  21  24
ENDBRANCH  20  21
ENDBRANCH  15  20
ENDBRANCH  14  19
ENDBRANCH   1  14
TORSDOF 7
ENDMDL
MODEL 6
REMARK VINA RESULT:    -5.163      6.793     10.646
REMARK INTER + INTRA:          -8.035
REMARK INTER:                  -7.296
REMARK INTRA:                  -0.739
REMARK UNBOUND:                -0.759
REMARK  Name = /home/qwerty/github/datacon2025hack/step_04_hit_selection/docking/ligands/lig_427.pdb
REMARK  9 active torsions:
REMARK  status: ('A' for Active; 'I' for Inactive)
REMARK    1  A    between atoms: C1_1  and  C2_2
REMARK    2  A    between atoms: C2_2  and  C3_3
REMARK    3  A    between atoms: C3_3  and  C4_5
REMARK    4  A    between atoms: C4_5  and  N1_6
REMARK    5  A    between atoms: C8_10  and  C9_11
REMARK    6  A    between atoms: C9_11  and  N2_12
REMARK    7  A    between atoms: C10_13  and  C11_15
REMARK    8  A    between atoms: N3_17  and  C13_18
REMARK    9  A    between atoms: C14_20  and  C15_21
REMARK                            x       y       z     vdW  Elec       q    Type
REMARK                         _______ _______ _______ _____ _____    ______ ____
ROOT
ATOM      1  N2  UNL     1      21.769   4.781  31.647  0.00  0.00    -0.310 N 
ATOM      2  C10 UNL     1      21.328   3.877  30.622  0.00  0.00    +0.247 C 
ATOM      3  O1  UNL     1      21.339   4.245  29.417  0.00  0.00    -0.270 OA
ATOM      4  H18 UNL     1      21.922   4.426  32.617  0.00  0.00    +0.149 HD
ENDROOT
BRANCH   2   5
ATOM      5  C11 UNL     1      20.863   2.516  30.964  0.00  0.00    +0.077 A 
ATOM      6  C12 UNL     1      19.780   2.176  31.754  0.00  0.00    +0.121 A 
ATOM      7  N3  UNL     1      19.677   0.835  31.769  0.00  0.00    -0.273 N 
ATOM      8  C13 UNL     1      18.696   0.065  32.522  0.00  0.00    +0.172 C 
ATOM      9  N4  UNL     1      20.643   0.292  31.047  0.00  0.00    -0.175 NA
ATOM     10  C14 UNL     1      21.386   1.299  30.546  0.00  0.00    +0.078 A 
BRANCH  10  11
ATOM     11  C15 UNL     1      22.556   1.090  29.630  0.00  0.00    +0.040 C 
ATOM     12  C16 UNL     1      22.210   1.008  28.150  0.00  0.00    +0.010 C 
ATOM     13  C17 UNL     1      22.564  -0.254  28.916  0.00  0.00    +0.010 C 
ENDBRANCH  10  11
ENDBRANCH   2   5
BRANCH   1  14
ATOM     14  C9  UNL     1      22.106   6.178  31.374  0.00  0.00    +0.123 C 
BRANCH  14  19
ATOM     15  N1  UNL     1      21.943   8.087  32.910  0.00  0.00    -0.295 NA
ATOM     16  C5  UNL     1      22.887   9.216  32.854  0.00  0.00    +0.085 C 
ATOM     17  C6  UNL     1      24.093   8.755  32.067  0.00  0.00    +0.017 C 
ATOM     18  C7  UNL     1      24.168   7.280  32.363  0.00  0.00    +0.022 C 
ATOM     19  C8  UNL     1      22.715   6.860  32.613  0.00  0.00    +0.074 C 
BRANCH  15  20
ATOM     20  C4  UNL     1      21.237   8.046  34.210  0.00  0.00    +0.121 C 
BRANCH  20  21
ATOM     21  C3  UNL     1      22.189   8.369  35.373  0.00  0.00    +0.180 C 
ATOM     22  F1  UNL     1      21.748   9.494  36.046  0.00  0.00    -0.244 F 
BRANCH  21  24
ATOM     23  C1  UNL     1      23.548   6.384  36.168  0.00  0.00    +0.007 C 
ATOM     24  C2  UNL     1      22.268   7.194  36.360  0.00  0.00    +0.035 C 
ENDBRANCH  21  24
ENDBRANCH  20  21
ENDBRANCH  15  20
ENDBRANCH  14  19
ENDBRANCH   1  14
TORSDOF 7
ENDMDL
MODEL 7
REMARK VINA RESULT:    -5.157     11.597     14.614
REMARK INTER + INTRA:          -8.026
REMARK INTER:                  -7.060
REMARK INTRA:                  -0.967
REMARK UNBOUND:                -0.759
REMARK  Name = /home/qwerty/github/datacon2025hack/step_04_hit_selection/docking/ligands/lig_427.pdb
REMARK  9 active torsions:
REMARK  status: ('A' for Active; 'I' for Inactive)
REMARK    1  A    between atoms: C1_1  and  C2_2
REMARK    2  A    between atoms: C2_2  and  C3_3
REMARK    3  A    between atoms: C3_3  and  C4_5
REMARK    4  A    between atoms: C4_5  and  N1_6
REMARK    5  A    between atoms: C8_10  and  C9_11
REMARK    6  A    between atoms: C9_11  and  N2_12
REMARK    7  A    between atoms: C10_13  and  C11_15
REMARK    8  A    between atoms: N3_17  and  C13_18
REMARK    9  A    between atoms: C14_20  and  C15_21
REMARK                            x       y       z     vdW  Elec       q    Type
REMARK                         _______ _______ _______ _____ _____    ______ ____
ROOT
ATOM      1  N2  UNL     1      23.808  13.313  20.765  0.00  0.00    -0.310 N 
ATOM      2  C10 UNL     1      23.545  12.455  19.644  0.00  0.00    +0.247 C 
ATOM      3  O1  UNL     1      23.421  12.952  18.493  0.00  0.00    -0.270 OA
ATOM      4  H18 UNL     1      24.077  12.895  21.683  0.00  0.00    +0.149 HD
ENDROOT
BRANCH   2   5
ATOM      5  C11 UNL     1      23.420  10.994  19.824  0.00  0.00    +0.077 A 
ATOM      6  C12 UNL     1      24.324  10.146  20.438  0.00  0.00    +0.121 A 
ATOM      7  N3  UNL     1      23.804   8.905  20.433  0.00  0.00    -0.273 N 
ATOM      8  C13 UNL     1      24.458   7.707  20.940  0.00  0.00    +0.172 C 
ATOM      9  N4  UNL     1      22.625   8.903  19.834  0.00  0.00    -0.175 NA
ATOM     10  C14 UNL     1      22.367  10.169  19.448  0.00  0.00    +0.078 A 
BRANCH  10  11
ATOM     11  C15 UNL     1      21.094  10.587  18.772  0.00  0.00    +0.040 C 
ATOM     12  C16 UNL     1      19.913  10.813  19.705  0.00  0.00    +0.010 C 
ATOM     13  C17 UNL     1      19.974   9.560  18.850  0.00  0.00    +0.010 C 
ENDBRANCH  10  11
ENDBRANCH   2   5
BRANCH   1  14
ATOM     14  C9  UNL     1      23.801  14.772  20.660  0.00  0.00    +0.123 C 
BRANCH  14  19
ATOM     15  N1  UNL     1      22.136  14.458  22.438  0.00  0.00    -0.295 NA
ATOM     16  C5  UNL     1      20.743  14.085  22.143  0.00  0.00    +0.085 C 
ATOM     17  C6  UNL     1      20.498  14.378  20.680  0.00  0.00    +0.017 C 
ATOM     18  C7  UNL     1      21.399  15.551  20.397  0.00  0.00    +0.022 C 
ATOM     19  C8  UNL     1      22.575  15.380  21.366  0.00  0.00    +0.074 C 
BRANCH  15  20
ATOM     20  C4  UNL     1      22.261  15.025  23.799  0.00  0.00    +0.121 C 
BRANCH  20  21
ATOM     21  C3  UNL     1      23.216  14.188  24.666  0.00  0.00    +0.180 C 
ATOM     22  F1  UNL     1      24.407  13.982  23.991  0.00  0.00    -0.244 F 
BRANCH  21  24
ATOM     23  C1  UNL     1      23.819  13.895  27.109  0.00  0.00    +0.007 C 
ATOM     24  C2  UNL     1      23.510  14.896  25.997  0.00  0.00    +0.035 C 
ENDBRANCH  21  24
ENDBRANCH  20  21
ENDBRANCH  15  20
ENDBRANCH  14  19
ENDBRANCH   1  14
TORSDOF 7
ENDMDL
MODEL 8
REMARK VINA RESULT:    -5.085      6.674     10.950
REMARK INTER + INTRA:          -7.925
REMARK INTER:                  -7.351
REMARK INTRA:                  -0.574
REMARK UNBOUND:                -0.759
REMARK  Name = /home/qwerty/github/datacon2025hack/step_04_hit_selection/docking/ligands/lig_427.pdb
REMARK  9 active torsions:
REMARK  status: ('A' for Active; 'I' for Inactive)
REMARK    1  A    between atoms: C1_1  and  C2_2
REMARK    2  A    between atoms: C2_2  and  C3_3
REMARK    3  A    between atoms: C3_3  and  C4_5
REMARK    4  A    between atoms: C4_5  and  N1_6
REMARK    5  A    between atoms: C8_10  and  C9_11
REMARK    6  A    between atoms: C9_11  and  N2_12
REMARK    7  A    between atoms: C10_13  and  C11_15
REMARK    8  A    between atoms: N3_17  and  C13_18
REMARK    9  A    between atoms: C14_20  and  C15_21
REMARK                            x       y       z     vdW  Elec       q    Type
REMARK                         _______ _______ _______ _____ _____    ______ ____
ROOT
ATOM      1  N2  UNL     1      22.741   4.178  32.661  0.00  0.00    -0.310 N 
ATOM      2  C10 UNL     1      21.866   3.801  31.587  0.00  0.00    +0.247 C 
ATOM      3  O1  UNL     1      21.609   4.629  30.671  0.00  0.00    -0.270 OA
ATOM      4  H18 UNL     1      23.088   3.449  33.323  0.00  0.00    +0.149 HD
ENDROOT
BRANCH   2   5
ATOM      5  C11 UNL     1      21.265   2.452  31.539  0.00  0.00    +0.077 A 
ATOM      6  C12 UNL     1      20.209   1.980  32.298  0.00  0.00    +0.121 A 
ATOM      7  N3  UNL     1      19.944   0.719  31.908  0.00  0.00    -0.273 N 
ATOM      8  C13 UNL     1      18.936  -0.156  32.488  0.00  0.00    +0.172 C 
ATOM      9  N4  UNL     1      20.782   0.348  30.954  0.00  0.00    -0.175 NA
ATOM     10  C14 UNL     1      21.603   1.389  30.711  0.00  0.00    +0.078 A 
BRANCH  10  11
ATOM     11  C15 UNL     1      22.669   1.376  29.654  0.00  0.00    +0.040 C 
ATOM     12  C16 UNL     1      22.158   1.464  28.223  0.00  0.00    +0.010 C 
ATOM     13  C17 UNL     1      22.660   0.139  28.768  0.00  0.00    +0.010 C 
ENDBRANCH  10  11
ENDBRANCH   2   5
BRANCH   1  14
ATOM     14  C9  UNL     1      23.247   5.541  32.825  0.00  0.00    +0.123 C 
BRANCH  14  19
ATOM     15  N1  UNL     1      23.036   7.646  34.073  0.00  0.00    -0.295 NA
ATOM     16  C5  UNL     1      23.271   7.719  35.524  0.00  0.00    +0.085 C 
ATOM     17  C6  UNL     1      23.203   6.308  36.062  0.00  0.00    +0.017 C 
ATOM     18  C7  UNL     1      22.221   5.624  35.146  0.00  0.00    +0.022 C 
ATOM     19  C8  UNL     1      22.375   6.349  33.804  0.00  0.00    +0.074 C 
BRANCH  15  20
ATOM     20  C4  UNL     1      22.265   8.817  33.596  0.00  0.00    +0.121 C 
BRANCH  20  21
ATOM     21  C3  UNL     1      22.582   9.132  32.126  0.00  0.00    +0.180 C 
ATOM     22  F1  UNL     1      21.781  10.169  31.682  0.00  0.00    -0.244 F 
BRANCH  21  24
ATOM     23  C1  UNL     1      24.339  10.054  30.549  0.00  0.00    +0.007 C 
ATOM     24  C2  UNL     1      24.057   9.530  31.956  0.00  0.00    +0.035 C 
ENDBRANCH  21  24
ENDBRANCH  20  21
ENDBRANCH  15  20
ENDBRANCH  14  19
ENDBRANCH   1  14
TORSDOF 7
ENDMDL
MODEL 9
REMARK VINA RESULT:    -5.075     14.856     16.058
REMARK INTER + INTRA:          -7.911
REMARK INTER:                  -7.113
REMARK INTRA:                  -0.798
REMARK UNBOUND:                -0.759
REMARK  Name = /home/qwerty/github/datacon2025hack/step_04_hit_selection/docking/ligands/lig_427.pdb
REMARK  9 active torsions:
REMARK  status: ('A' for Active; 'I' for Inactive)
REMARK    1  A    between atoms: C1_1  and  C2_2
REMARK    2  A    between atoms: C2_2  and  C3_3
REMARK    3  A    between atoms: C3_3  and  C4_5
REMARK    4  A    between atoms: C4_5  and  N1_6
REMARK    5  A    between atoms: C8_10  and  C9_11
REMARK    6  A    between atoms: C9_11  and  N2_12
REMARK    7  A    between atoms: C10_13  and  C11_15
REMARK    8  A    between atoms: N3_17  and  C13_18
REMARK    9  A    between atoms: C14_20  and  C15_21
REMARK                            x       y       z     vdW  Elec       q    Type
REMARK                         _______ _______ _______ _____ _____    ______ ____
ROOT
ATOM      1  N2  UNL     1      12.485  13.035  31.697  0.00  0.00    -0.310 N 
ATOM      2  C10 UNL     1      11.814  13.468  32.890  0.00  0.00    +0.247 C 
ATOM      3  O1  UNL     1      11.205  14.571  32.899  0.00  0.00    -0.270 OA
ATOM      4  H18 UNL     1      12.842  12.056  31.633  0.00  0.00    +0.149 HD
ENDROOT
BRANCH   2   5
ATOM      5  C11 UNL     1      11.826  12.633  34.110  0.00  0.00    +0.077 A 
ATOM      6  C12 UNL     1      11.259  11.383  34.274  0.00  0.00    +0.121 A 
ATOM      7  N3  UNL     1      11.543  10.954  35.518  0.00  0.00    -0.273 N 
ATOM      8  C13 UNL     1      11.091   9.703  36.110  0.00  0.00    +0.172 C 
ATOM      9  N4  UNL     1      12.246  11.866  36.169  0.00  0.00    -0.175 NA
ATOM     10  C14 UNL     1      12.431  12.906  35.331  0.00  0.00    +0.078 A 
BRANCH  10  11
ATOM     11  C15 UNL     1      13.227  14.127  35.688  0.00  0.00    +0.040 C 
ATOM     12  C16 UNL     1      14.706  14.058  35.334  0.00  0.00    +0.010 C 
ATOM     13  C17 UNL     1      14.265  13.904  36.778  0.00  0.00    +0.010 C 
ENDBRANCH  10  11
ENDBRANCH   2   5
BRANCH   1  14
ATOM     14  C9  UNL     1      12.617  13.885  30.514  0.00  0.00    +0.123 C 
BRANCH  14  19
ATOM     15  N1  UNL     1      10.972  12.450  29.389  0.00  0.00    -0.295 NA
ATOM     16  C5  UNL     1      10.957  12.280  27.927  0.00  0.00    +0.085 C 
ATOM     17  C6  UNL     1      11.763  13.413  27.333  0.00  0.00    +0.017 C 
ATOM     18  C7  UNL     1      11.554  14.545  28.305  0.00  0.00    +0.022 C 
ATOM     19  C8  UNL     1      11.337  13.859  29.659  0.00  0.00    +0.074 C 
BRANCH  15  20
ATOM     20  C4  UNL     1       9.681  12.045  29.988  0.00  0.00    +0.121 C 
BRANCH  20  21
ATOM     21  C3  UNL     1       8.539  12.126  28.960  0.00  0.00    +0.180 C 
ATOM     22  F1  UNL     1       7.603  11.141  29.216  0.00  0.00    -0.244 F 
BRANCH  21  24
ATOM     23  C1  UNL     1       7.792  14.153  27.635  0.00  0.00    +0.007 C 
ATOM     24  C2  UNL     1       7.850  13.499  29.014  0.00  0.00    +0.035 C 
ENDBRANCH  21  24
ENDBRANCH  20  21
ENDBRANCH  15  20
ENDBRANCH  14  19
ENDBRANCH   1  14
TORSDOF 7
ENDMDL
