REMARK  Name = /home/qwerty/github/datacon2025hack/step_04_hit_selection/docking/ligands/lig_611.pdb
REMARK  11 active torsions:
REMARK  status: ('A' for Active; 'I' for Inactive)
REMARK    1  A    between atoms: C1_1  and  C2_2
REMARK    2  A    between atoms: C2_2  and  C3_3
REMARK    3  A    between atoms: C2_2  and  O1_4
REMARK    4  A    between atoms: O1_4  and  C4_5
REMARK    5  A    between atoms: C7_9  and  C8_10
REMARK    6  A    between atoms: C12_16  and  C13_17
REMARK    7  A    between atoms: C14_18  and  C15_19
REMARK    8  A    between atoms: C15_19  and  N3_20
REMARK    9  A    between atoms: N3_20  and  C16_21
REMARK   10  A    between atoms: C16_21  and  C17_22
REMARK   11  A    between atoms: C17_22  and  O3_23
REMARK                            x       y       z     vdW  Elec       q    Type
REMARK                         _______ _______ _______ _____ _____    ______ ____
ROOT
ATOM      1  C8  UNL     1      -0.227   1.189   1.540  0.00  0.00    +0.248 C 
ATOM      2  O2  UNL     1      -0.107   1.857   2.608  0.00  0.00    -0.270 OA
ATOM      3  N2  UNL     1       0.504  -0.050   1.384  0.00  0.00    -0.293 N 
ATOM      4  C9  UNL     1       0.991  -0.716   2.608  0.00  0.00    +0.108 C 
ATOM      5  C10 UNL     1       1.156  -2.216   2.415  0.00  0.00    +0.019 C 
ATOM      6  C11 UNL     1       2.018  -2.506   1.189  0.00  0.00    +0.006 C 
ATOM      7  C12 UNL     1       1.403  -1.908  -0.091  0.00  0.00    +0.008 C 
ATOM      8  C13 UNL     1       0.158  -2.700  -0.534  0.00  0.00    +0.009 C 
ATOM      9  C14 UNL     1       1.071  -0.391   0.056  0.00  0.00    +0.093 C 
ENDROOT
BRANCH   1  14
ATOM     10  C4  UNL     1      -2.886   1.339  -1.161  0.00  0.00    +0.140 A 
ATOM     11  C5  UNL     1      -2.806   2.696  -1.493  0.00  0.00    +0.156 A 
ATOM     12  N1  UNL     1      -1.952   3.513  -0.832  0.00  0.00    -0.259 NA
ATOM     13  C6  UNL     1      -1.133   3.052   0.149  0.00  0.00    +0.124 A 
ATOM     14  C7  UNL     1      -1.137   1.695   0.492  0.00  0.00    +0.058 A 
ATOM     15  C18 UNL     1      -2.032   0.839  -0.162  0.00  0.00    +0.061 A 
BRANCH  10  16
ATOM     16  O1  UNL     1      -3.824   0.541  -1.840  0.00  0.00    -0.488 OA
BRANCH  16  18
ATOM     17  C1  UNL     1      -5.076  -0.723  -0.194  0.00  0.00    +0.051 C 
ATOM     18  C2  UNL     1      -4.225  -0.777  -1.465  0.00  0.00    +0.167 C 
ATOM     19  C3  UNL     1      -5.029  -1.385  -2.612  0.00  0.00    +0.051 C 
ENDBRANCH  16  18
ENDBRANCH  10  16
ENDBRANCH   1  14
BRANCH   9  20
ATOM     20  C15 UNL     1       2.251   0.533  -0.317  0.00  0.00    +0.103 C 
BRANCH  20  21
ATOM     21  N3  UNL     1       3.348   0.448   0.654  0.00  0.00    -0.312 NA
ATOM     22  H23 UNL     1       3.099   1.031   1.485  0.00  0.00    +0.122 HD
BRANCH  21  23
ATOM     23  C16 UNL     1       4.618   0.951   0.105  0.00  0.00    +0.108 C 
BRANCH  23  24
ATOM     24  C17 UNL     1       4.636   2.482  -0.028  0.00  0.00    +0.171 C 
BRANCH  24  25
ATOM     25  O3  UNL     1       5.888   2.892  -0.499  0.00  0.00    -0.394 OA
ATOM     26  H28 UNL     1       5.901   3.881  -0.433  0.00  0.00    +0.209 HD
ENDBRANCH  24  25
ENDBRANCH  23  24
ENDBRANCH  21  23
ENDBRANCH  20  21
ENDBRANCH   9  20
TORSDOF 8
