MODEL 1
REMARK VINA RESULT:    -6.708      0.000      0.000
REMARK INTER + INTRA:          -9.173
REMARK INTER:                  -8.277
REMARK INTRA:                  -0.897
REMARK UNBOUND:                -0.897
REMARK  Name = /home/qwerty/github/datacon2025hack/step_04_hit_selection/docking/ligands/lig_498.pdb
REMARK  7 active torsions:
REMARK  status: ('A' for Active; 'I' for Inactive)
REMARK    1  A    between atoms: C1_1  and  C2_2
REMARK    2  A    between atoms: C2_2  and  C3_3
REMARK    3  A    between atoms: C2_2  and  C4_4
REMARK    4  A    between atoms: C2_2  and  O1_5
REMARK    5  A    between atoms: O1_5  and  C5_6
REMARK    6  A    between atoms: C9_12  and  C10_13
REMARK    7  A    between atoms: N4_19  and  C14_20
REMARK                            x       y       z     vdW  Elec       q    Type
REMARK                         _______ _______ _______ _____ _____    ______ ____
ROOT
ATOM      1  C10 UNL     1      23.784  15.200  23.162  0.00  0.00    +0.172 A 
ATOM      2  N2  UNL     1      24.050  14.491  24.294  0.00  0.00    -0.209 NA
ATOM      3  C11 UNL     1      23.168  15.039  25.145  0.00  0.00    +0.170 A 
ATOM      4  C12 UNL     1      22.957  14.741  26.477  0.00  0.00    +0.083 A 
ATOM      5  C13 UNL     1      23.525  13.886  27.392  0.00  0.00    +0.148 A 
ATOM      6  N3  UNL     1      22.916  14.093  28.588  0.00  0.00    -0.172 NA
ATOM      7  N4  UNL     1      21.987  15.038  28.443  0.00  0.00    -0.214 N 
ATOM      8  C20 UNL     1      22.006  15.443  27.159  0.00  0.00    +0.168 A 
ATOM      9  N5  UNL     1      21.278  16.445  26.581  0.00  0.00    -0.216 NA
ATOM     10  C21 UNL     1      21.496  16.727  25.255  0.00  0.00    +0.227 A 
ATOM     11  N6  UNL     1      22.439  16.006  24.577  0.00  0.00    -0.201 N 
ATOM     12  N7  UNL     1      22.810  16.134  23.320  0.00  0.00    -0.147 NA
ENDROOT
BRANCH   1  19
ATOM     13  C5  UNL     1      22.957  13.330  20.752  0.00  0.00    +0.404 C 
ATOM     14  O2  UNL     1      23.172  12.470  21.650  0.00  0.00    -0.226 OA
ATOM     15  N1  UNL     1      23.611  14.605  20.817  0.00  0.00    -0.257 N 
ATOM     16  C6  UNL     1      23.452  15.624  19.795  0.00  0.00    +0.112 C 
ATOM     17  C7  UNL     1      24.241  16.828  20.292  0.00  0.00    +0.021 C 
ATOM     18  C8  UNL     1      25.166  16.298  21.387  0.00  0.00    +0.032 C 
ATOM     19  C9  UNL     1      24.530  14.996  21.874  0.00  0.00    +0.149 C 
BRANCH  13  20
ATOM     20  O1  UNL     1      22.083  13.058  19.689  0.00  0.00    -0.445 OA
BRANCH  20  22
ATOM     21  C1  UNL     1      20.158  13.486  21.138  0.00  0.00    +0.055 C 
ATOM     22  C2  UNL     1      20.653  13.176  19.712  0.00  0.00    +0.107 C 
ATOM     23  C3  UNL     1      19.993  11.893  19.173  0.00  0.00    +0.055 C 
ATOM     24  C4  UNL     1      20.280  14.350  18.793  0.00  0.00    +0.055 C 
ENDBRANCH  20  22
ENDBRANCH  13  20
ENDBRANCH   1  19
BRANCH   7  25
ATOM     25  C14 UNL     1      21.165  15.523  29.522  0.00  0.00    +0.068 A 
ATOM     26  C15 UNL     1      19.994  14.830  29.875  0.00  0.00    +0.028 A 
ATOM     27  C16 UNL     1      19.182  15.293  30.914  0.00  0.00    +0.002 A 
ATOM     28  C17 UNL     1      19.524  16.458  31.605  0.00  0.00    +0.000 A 
ATOM     29  C18 UNL     1      20.677  17.165  31.253  0.00  0.00    +0.002 A 
ATOM     30  C19 UNL     1      21.493  16.704  30.214  0.00  0.00    +0.028 A 
ENDBRANCH   7  25
TORSDOF 4
ENDMDL
MODEL 2
REMARK VINA RESULT:    -6.610      4.101      8.993
REMARK INTER + INTRA:          -9.052
REMARK INTER:                  -8.189
REMARK INTRA:                  -0.863
REMARK UNBOUND:                -0.897
REMARK  Name = /home/qwerty/github/datacon2025hack/step_04_hit_selection/docking/ligands/lig_498.pdb
REMARK  7 active torsions:
REMARK  status: ('A' for Active; 'I' for Inactive)
REMARK    1  A    between atoms: C1_1  and  C2_2
REMARK    2  A    between atoms: C2_2  and  C3_3
REMARK    3  A    between atoms: C2_2  and  C4_4
REMARK    4  A    between atoms: C2_2  and  O1_5
REMARK    5  A    between atoms: O1_5  and  C5_6
REMARK    6  A    between atoms: C9_12  and  C10_13
REMARK    7  A    between atoms: N4_19  and  C14_20
REMARK                            x       y       z     vdW  Elec       q    Type
REMARK                         _______ _______ _______ _____ _____    ______ ____
ROOT
ATOM      1  C10 UNL     1      20.888  14.084  19.728  0.00  0.00    +0.172 A 
ATOM      2  N2  UNL     1      19.573  13.827  19.489  0.00  0.00    -0.209 NA
ATOM      3  C11 UNL     1      19.544  12.494  19.654  0.00  0.00    +0.170 A 
ATOM      4  C12 UNL     1      18.471  11.634  19.533  0.00  0.00    +0.083 A 
ATOM      5  C13 UNL     1      17.145  11.763  19.191  0.00  0.00    +0.148 A 
ATOM      6  N3  UNL     1      16.594  10.522  19.188  0.00  0.00    -0.172 NA
ATOM      7  N4  UNL     1      17.527   9.633  19.525  0.00  0.00    -0.214 N 
ATOM      8  C20 UNL     1      18.679  10.301  19.734  0.00  0.00    +0.168 A 
ATOM      9  N5  UNL     1      19.911   9.786  20.023  0.00  0.00    -0.216 NA
ATOM     10  C21 UNL     1      20.968  10.653  20.144  0.00  0.00    +0.227 A 
ATOM     11  N6  UNL     1      20.745  11.989  19.957  0.00  0.00    -0.201 N 
ATOM     12  N7  UNL     1      21.619  12.973  20.007  0.00  0.00    -0.147 NA
ENDROOT
BRANCH   1  19
ATOM     13  C5  UNL     1      21.920  15.861  22.130  0.00  0.00    +0.404 C 
ATOM     14  O2  UNL     1      20.688  15.811  22.391  0.00  0.00    -0.226 OA
ATOM     15  N1  UNL     1      22.368  15.695  20.777  0.00  0.00    -0.257 N 
ATOM     16  C6  UNL     1      23.765  15.790  20.393  0.00  0.00    +0.112 C 
ATOM     17  C7  UNL     1      23.802  15.471  18.904  0.00  0.00    +0.021 C 
ATOM     18  C8  UNL     1      22.363  15.617  18.409  0.00  0.00    +0.032 C 
ATOM     19  C9  UNL     1      21.481  15.462  19.648  0.00  0.00    +0.149 C 
BRANCH  13  20
ATOM     20  O1  UNL     1      22.865  16.075  23.146  0.00  0.00    -0.445 OA
BRANCH  20  22
ATOM     21  C1  UNL     1      22.664  13.743  23.860  0.00  0.00    +0.055 C 
ATOM     22  C2  UNL     1      23.420  15.077  24.014  0.00  0.00    +0.107 C 
ATOM     23  C3  UNL     1      23.390  15.554  25.479  0.00  0.00    +0.055 C 
ATOM     24  C4  UNL     1      24.882  14.870  23.590  0.00  0.00    +0.055 C 
ENDBRANCH  20  22
ENDBRANCH  13  20
ENDBRANCH   1  19
BRANCH   7  25
ATOM     25  C14 UNL     1      17.291   8.214  19.598  0.00  0.00    +0.068 A 
ATOM     26  C15 UNL     1      16.633   7.672  20.716  0.00  0.00    +0.028 A 
ATOM     27  C16 UNL     1      16.404   6.295  20.804  0.00  0.00    +0.002 A 
ATOM     28  C17 UNL     1      16.838   5.445  19.784  0.00  0.00    +0.000 A 
ATOM     29  C18 UNL     1      17.507   5.971  18.676  0.00  0.00    +0.002 A 
ATOM     30  C19 UNL     1      17.738   7.347  18.583  0.00  0.00    +0.028 A 
ENDBRANCH   7  25
TORSDOF 4
ENDMDL
MODEL 3
REMARK VINA RESULT:    -6.558      3.142      4.707
REMARK INTER + INTRA:          -8.988
REMARK INTER:                  -7.996
REMARK INTRA:                  -0.992
REMARK UNBOUND:                -0.897
REMARK  Name = /home/qwerty/github/datacon2025hack/step_04_hit_selection/docking/ligands/lig_498.pdb
REMARK  7 active torsions:
REMARK  status: ('A' for Active; 'I' for Inactive)
REMARK    1  A    between atoms: C1_1  and  C2_2
REMARK    2  A    between atoms: C2_2  and  C3_3
REMARK    3  A    between atoms: C2_2  and  C4_4
REMARK    4  A    between atoms: C2_2  and  O1_5
REMARK    5  A    between atoms: O1_5  and  C5_6
REMARK    6  A    between atoms: C9_12  and  C10_13
REMARK    7  A    between atoms: N4_19  and  C14_20
REMARK                            x       y       z     vdW  Elec       q    Type
REMARK                         _______ _______ _______ _____ _____    ______ ____
ROOT
ATOM      1  C10 UNL     1      21.717  12.329  20.903  0.00  0.00    +0.172 A 
ATOM      2  N2  UNL     1      22.707  13.079  21.461  0.00  0.00    -0.209 NA
ATOM      3  C11 UNL     1      22.316  13.094  22.745  0.00  0.00    +0.170 A 
ATOM      4  C12 UNL     1      22.918  13.714  23.822  0.00  0.00    +0.083 A 
ATOM      5  C13 UNL     1      24.019  14.517  24.000  0.00  0.00    +0.148 A 
ATOM      6  N3  UNL     1      24.067  14.874  25.310  0.00  0.00    -0.172 NA
ATOM      7  N4  UNL     1      23.040  14.312  25.949  0.00  0.00    -0.214 N 
ATOM      8  C20 UNL     1      22.330  13.605  25.049  0.00  0.00    +0.168 A 
ATOM      9  N5  UNL     1      21.158  12.930  25.243  0.00  0.00    -0.216 NA
ATOM     10  C21 UNL     1      20.573  12.315  24.164  0.00  0.00    +0.227 A 
ATOM     11  N6  UNL     1      21.179  12.417  22.943  0.00  0.00    -0.201 N 
ATOM     12  N7  UNL     1      20.773  11.924  21.792  0.00  0.00    -0.147 NA
ENDROOT
BRANCH   1  19
ATOM     13  C5  UNL     1      23.214   9.997  19.382  0.00  0.00    +0.404 C 
ATOM     14  O2  UNL     1      24.194  10.700  19.750  0.00  0.00    -0.226 OA
ATOM     15  N1  UNL     1      21.927  10.605  19.208  0.00  0.00    -0.257 N 
ATOM     16  C6  UNL     1      20.766   9.870  18.740  0.00  0.00    +0.112 C 
ATOM     17  C7  UNL     1      19.611  10.863  18.779  0.00  0.00    +0.021 C 
ATOM     18  C8  UNL     1      20.252  12.247  18.875  0.00  0.00    +0.032 C 
ATOM     19  C9  UNL     1      21.656  12.016  19.434  0.00  0.00    +0.149 C 
BRANCH  13  20
ATOM     20  O1  UNL     1      23.363   8.622  19.142  0.00  0.00    -0.445 OA
BRANCH  20  22
ATOM     21  C1  UNL     1      22.580   7.925  21.353  0.00  0.00    +0.055 C 
ATOM     22  C2  UNL     1      23.463   7.591  20.135  0.00  0.00    +0.107 C 
ATOM     23  C3  UNL     1      24.928   7.389  20.564  0.00  0.00    +0.055 C 
ATOM     24  C4  UNL     1      22.950   6.292  19.494  0.00  0.00    +0.055 C 
ENDBRANCH  20  22
ENDBRANCH  13  20
ENDBRANCH   1  19
BRANCH   7  25
ATOM     25  C14 UNL     1      22.772  14.500  27.351  0.00  0.00    +0.068 A 
ATOM     26  C15 UNL     1      23.308  13.603  28.291  0.00  0.00    +0.028 A 
ATOM     27  C16 UNL     1      23.049  13.768  29.655  0.00  0.00    +0.002 A 
ATOM     28  C17 UNL     1      22.245  14.823  30.094  0.00  0.00    +0.000 A 
ATOM     29  C18 UNL     1      21.693  15.711  29.168  0.00  0.00    +0.002 A 
ATOM     30  C19 UNL     1      21.950  15.551  27.802  0.00  0.00    +0.028 A 
ENDBRANCH   7  25
TORSDOF 4
ENDMDL
MODEL 4
REMARK VINA RESULT:    -6.554     13.745     17.229
REMARK INTER + INTRA:          -8.983
REMARK INTER:                  -8.239
REMARK INTRA:                  -0.743
REMARK UNBOUND:                -0.897
REMARK  Name = /home/qwerty/github/datacon2025hack/step_04_hit_selection/docking/ligands/lig_498.pdb
REMARK  7 active torsions:
REMARK  status: ('A' for Active; 'I' for Inactive)
REMARK    1  A    between atoms: C1_1  and  C2_2
REMARK    2  A    between atoms: C2_2  and  C3_3
REMARK    3  A    between atoms: C2_2  and  C4_4
REMARK    4  A    between atoms: C2_2  and  O1_5
REMARK    5  A    between atoms: O1_5  and  C5_6
REMARK    6  A    between atoms: C9_12  and  C10_13
REMARK    7  A    between atoms: N4_19  and  C14_20
REMARK                            x       y       z     vdW  Elec       q    Type
REMARK                         _______ _______ _______ _____ _____    ______ ____
ROOT
ATOM      1  C10 UNL     1       9.247   4.266  22.359  0.00  0.00    +0.172 A 
ATOM      2  N2  UNL     1      10.257   4.551  21.491  0.00  0.00    -0.209 NA
ATOM      3  C11 UNL     1      11.027   3.460  21.637  0.00  0.00    +0.170 A 
ATOM      4  C12 UNL     1      12.223   3.161  21.015  0.00  0.00    +0.083 A 
ATOM      5  C13 UNL     1      13.050   3.800  20.121  0.00  0.00    +0.148 A 
ATOM      6  N3  UNL     1      14.138   3.012  19.924  0.00  0.00    -0.172 NA
ATOM      7  N4  UNL     1      14.009   1.906  20.656  0.00  0.00    -0.214 N 
ATOM      8  C20 UNL     1      12.846   1.988  21.330  0.00  0.00    +0.168 A 
ATOM      9  N5  UNL     1      12.343   1.116  22.254  0.00  0.00    -0.216 NA
ATOM     10  C21 UNL     1      11.152   1.425  22.862  0.00  0.00    +0.227 A 
ATOM     11  N6  UNL     1      10.528   2.595  22.527  0.00  0.00    -0.201 N 
ATOM     12  N7  UNL     1       9.402   3.081  23.005  0.00  0.00    -0.147 NA
ENDROOT
BRANCH   1  19
ATOM     13  C5  UNL     1       9.386   7.383  22.861  0.00  0.00    +0.404 C 
ATOM     14  O2  UNL     1       9.974   6.956  23.891  0.00  0.00    -0.226 OA
ATOM     15  N1  UNL     1       8.438   6.546  22.184  0.00  0.00    -0.257 N 
ATOM     16  C6  UNL     1       7.685   6.987  21.023  0.00  0.00    +0.112 C 
ATOM     17  C7  UNL     1       6.871   5.778  20.581  0.00  0.00    +0.021 C 
ATOM     18  C8  UNL     1       6.878   4.813  21.766  0.00  0.00    +0.032 C 
ATOM     19  C9  UNL     1       8.095   5.197  22.608  0.00  0.00    +0.149 C 
BRANCH  13  20
ATOM     20  O1  UNL     1       9.646   8.669  22.362  0.00  0.00    -0.445 OA
BRANCH  20  22
ATOM     21  C1  UNL     1      11.554   7.812  21.090  0.00  0.00    +0.055 C 
ATOM     22  C2  UNL     1      10.759   9.053  21.540  0.00  0.00    +0.107 C 
ATOM     23  C3  UNL     1      11.671  10.042  22.290  0.00  0.00    +0.055 C 
ATOM     24  C4  UNL     1      10.185   9.751  20.298  0.00  0.00    +0.055 C 
ENDBRANCH  20  22
ENDBRANCH  13  20
ENDBRANCH   1  19
BRANCH   7  25
ATOM     25  C14 UNL     1      14.998   0.859  20.705  0.00  0.00    +0.068 A 
ATOM     26  C15 UNL     1      15.454   0.386  21.948  0.00  0.00    +0.028 A 
ATOM     27  C16 UNL     1      16.419  -0.623  22.011  0.00  0.00    +0.002 A 
ATOM     28  C17 UNL     1      16.947  -1.163  20.835  0.00  0.00    +0.000 A 
ATOM     29  C18 UNL     1      16.514  -0.690  19.595  0.00  0.00    +0.002 A 
ATOM     30  C19 UNL     1      15.547   0.319  19.526  0.00  0.00    +0.028 A 
ENDBRANCH   7  25
TORSDOF 4
ENDMDL
MODEL 5
REMARK VINA RESULT:    -6.483      9.582     11.103
REMARK INTER + INTRA:          -8.896
REMARK INTER:                  -7.928
REMARK INTRA:                  -0.968
REMARK UNBOUND:                -0.897
REMARK  Name = /home/qwerty/github/datacon2025hack/step_04_hit_selection/docking/ligands/lig_498.pdb
REMARK  7 active torsions:
REMARK  status: ('A' for Active; 'I' for Inactive)
REMARK    1  A    between atoms: C1_1  and  C2_2
REMARK    2  A    between atoms: C2_2  and  C3_3
REMARK    3  A    between atoms: C2_2  and  C4_4
REMARK    4  A    between atoms: C2_2  and  O1_5
REMARK    5  A    between atoms: O1_5  and  C5_6
REMARK    6  A    between atoms: C9_12  and  C10_13
REMARK    7  A    between atoms: N4_19  and  C14_20
REMARK                            x       y       z     vdW  Elec       q    Type
REMARK                         _______ _______ _______ _____ _____    ______ ____
ROOT
ATOM      1  C10 UNL     1      21.567   5.478  22.328  0.00  0.00    +0.172 A 
ATOM      2  N2  UNL     1      20.917   4.290  22.464  0.00  0.00    -0.209 NA
ATOM      3  C11 UNL     1      21.125   4.038  23.767  0.00  0.00    +0.170 A 
ATOM      4  C12 UNL     1      20.710   2.952  24.512  0.00  0.00    +0.083 A 
ATOM      5  C13 UNL     1      20.025   1.789  24.250  0.00  0.00    +0.148 A 
ATOM      6  N3  UNL     1      19.975   1.068  25.400  0.00  0.00    -0.172 NA
ATOM      7  N4  UNL     1      20.596   1.748  26.364  0.00  0.00    -0.214 N 
ATOM      8  C20 UNL     1      21.052   2.898  25.832  0.00  0.00    +0.168 A 
ATOM      9  N5  UNL     1      21.810   3.863  26.433  0.00  0.00    -0.216 NA
ATOM     10  C21 UNL     1      22.212   4.939  25.681  0.00  0.00    +0.227 A 
ATOM     11  N6  UNL     1      21.850   4.991  24.364  0.00  0.00    -0.201 N 
ATOM     12  N7  UNL     1      22.149   5.916  23.476  0.00  0.00    -0.147 NA
ENDROOT
BRANCH   1  19
ATOM     13  C5  UNL     1      19.590   7.680  21.220  0.00  0.00    +0.404 C 
ATOM     14  O2  UNL     1      18.835   6.671  21.223  0.00  0.00    -0.226 OA
ATOM     15  N1  UNL     1      21.010   7.507  21.119  0.00  0.00    -0.257 N 
ATOM     16  C6  UNL     1      21.938   8.622  21.059  0.00  0.00    +0.112 C 
ATOM     17  C7  UNL     1      23.327   7.997  21.042  0.00  0.00    +0.021 C 
ATOM     18  C8  UNL     1      23.121   6.529  20.670  0.00  0.00    +0.032 C 
ATOM     19  C9  UNL     1      21.666   6.212  21.021  0.00  0.00    +0.149 C 
BRANCH  13  20
ATOM     20  O1  UNL     1      19.061   8.977  21.316  0.00  0.00    -0.445 OA
BRANCH  20  22
ATOM     21  C1  UNL     1      16.903   9.479  20.275  0.00  0.00    +0.055 C 
ATOM     22  C2  UNL     1      18.425   9.716  20.262  0.00  0.00    +0.107 C 
ATOM     23  C3  UNL     1      19.024   9.336  18.895  0.00  0.00    +0.055 C 
ATOM     24  C4  UNL     1      18.697  11.206  20.526  0.00  0.00    +0.055 C 
ENDBRANCH  20  22
ENDBRANCH  13  20
ENDBRANCH   1  19
BRANCH   7  25
ATOM     25  C14 UNL     1      20.751   1.263  27.711  0.00  0.00    +0.068 A 
ATOM     26  C15 UNL     1      19.736   1.491  28.657  0.00  0.00    +0.028 A 
ATOM     27  C16 UNL     1      19.876   1.034  29.971  0.00  0.00    +0.002 A 
ATOM     28  C17 UNL     1      21.034   0.355  30.358  0.00  0.00    +0.000 A 
ATOM     29  C18 UNL     1      22.056   0.137  29.431  0.00  0.00    +0.002 A 
ATOM     30  C19 UNL     1      21.920   0.591  28.115  0.00  0.00    +0.028 A 
ENDBRANCH   7  25
TORSDOF 4
ENDMDL
MODEL 6
REMARK VINA RESULT:    -6.384     11.345     14.987
REMARK INTER + INTRA:          -8.773
REMARK INTER:                  -7.882
REMARK INTRA:                  -0.891
REMARK UNBOUND:                -0.897
REMARK  Name = /home/qwerty/github/datacon2025hack/step_04_hit_selection/docking/ligands/lig_498.pdb
REMARK  7 active torsions:
REMARK  status: ('A' for Active; 'I' for Inactive)
REMARK    1  A    between atoms: C1_1  and  C2_2
REMARK    2  A    between atoms: C2_2  and  C3_3
REMARK    3  A    between atoms: C2_2  and  C4_4
REMARK    4  A    between atoms: C2_2  and  O1_5
REMARK    5  A    between atoms: O1_5  and  C5_6
REMARK    6  A    between atoms: C9_12  and  C10_13
REMARK    7  A    between atoms: N4_19  and  C14_20
REMARK                            x       y       z     vdW  Elec       q    Type
REMARK                         _______ _______ _______ _____ _____    ______ ____
ROOT
ATOM      1  C10 UNL     1      21.487   6.932  35.361  0.00  0.00    +0.172 A 
ATOM      2  N2  UNL     1      20.454   6.200  34.862  0.00  0.00    -0.209 NA
ATOM      3  C11 UNL     1      21.097   5.444  33.956  0.00  0.00    +0.170 A 
ATOM      4  C12 UNL     1      20.576   4.491  33.104  0.00  0.00    +0.083 A 
ATOM      5  C13 UNL     1      19.320   4.004  32.829  0.00  0.00    +0.148 A 
ATOM      6  N3  UNL     1      19.437   3.096  31.825  0.00  0.00    -0.172 NA
ATOM      7  N4  UNL     1      20.719   2.999  31.477  0.00  0.00    -0.214 N 
ATOM      8  C20 UNL     1      21.423   3.849  32.248  0.00  0.00    +0.168 A 
ATOM      9  N5  UNL     1      22.758   4.135  32.187  0.00  0.00    -0.216 NA
ATOM     10  C21 UNL     1      23.263   5.082  33.042  0.00  0.00    +0.227 A 
ATOM     11  N6  UNL     1      22.408   5.707  33.907  0.00  0.00    -0.201 N 
ATOM     12  N7  UNL     1      22.685   6.649  34.784  0.00  0.00    -0.147 NA
ENDROOT
BRANCH   1  19
ATOM     13  C5  UNL     1      20.477   9.899  34.958  0.00  0.00    +0.404 C 
ATOM     14  O2  UNL     1      21.569   9.938  34.329  0.00  0.00    -0.226 OA
ATOM     15  N1  UNL     1      20.297   8.943  36.012  0.00  0.00    -0.257 N 
ATOM     16  C6  UNL     1      19.088   8.872  36.812  0.00  0.00    +0.112 C 
ATOM     17  C7  UNL     1      19.283   7.683  37.744  0.00  0.00    +0.021 C 
ATOM     18  C8  UNL     1      20.780   7.376  37.721  0.00  0.00    +0.032 C 
ATOM     19  C9  UNL     1      21.309   7.982  36.421  0.00  0.00    +0.149 C 
BRANCH  13  20
ATOM     20  O1  UNL     1      19.430  10.778  34.640  0.00  0.00    -0.445 OA
BRANCH  20  22
ATOM     21  C1  UNL     1      20.499  12.577  35.910  0.00  0.00    +0.055 C 
ATOM     22  C2  UNL     1      19.390  12.187  34.914  0.00  0.00    +0.107 C 
ATOM     23  C3  UNL     1      18.006  12.595  35.452  0.00  0.00    +0.055 C 
ATOM     24  C4  UNL     1      19.640  12.914  33.584  0.00  0.00    +0.055 C 
ENDBRANCH  20  22
ENDBRANCH  13  20
ENDBRANCH   1  19
BRANCH   7  25
ATOM     25  C14 UNL     1      21.198   2.142  30.423  0.00  0.00    +0.068 A 
ATOM     26  C15 UNL     1      21.221   0.749  30.611  0.00  0.00    +0.028 A 
ATOM     27  C16 UNL     1      21.691  -0.095  29.600  0.00  0.00    +0.002 A 
ATOM     28  C17 UNL     1      22.154   0.443  28.397  0.00  0.00    +0.000 A 
ATOM     29  C18 UNL     1      22.152   1.827  28.205  0.00  0.00    +0.002 A 
ATOM     30  C19 UNL     1      21.681   2.675  29.213  0.00  0.00    +0.028 A 
ENDBRANCH   7  25
TORSDOF 4
ENDMDL
MODEL 7
REMARK VINA RESULT:    -6.363     13.032     14.958
REMARK INTER + INTRA:          -8.748
REMARK INTER:                  -7.767
REMARK INTRA:                  -0.981
REMARK UNBOUND:                -0.897
REMARK  Name = /home/qwerty/github/datacon2025hack/step_04_hit_selection/docking/ligands/lig_498.pdb
REMARK  7 active torsions:
REMARK  status: ('A' for Active; 'I' for Inactive)
REMARK    1  A    between atoms: C1_1  and  C2_2
REMARK    2  A    between atoms: C2_2  and  C3_3
REMARK    3  A    between atoms: C2_2  and  C4_4
REMARK    4  A    between atoms: C2_2  and  O1_5
REMARK    5  A    between atoms: O1_5  and  C5_6
REMARK    6  A    between atoms: C9_12  and  C10_13
REMARK    7  A    between atoms: N4_19  and  C14_20
REMARK                            x       y       z     vdW  Elec       q    Type
REMARK                         _______ _______ _______ _____ _____    ______ ____
ROOT
ATOM      1  C10 UNL     1      14.449  11.313  36.698  0.00  0.00    +0.172 A 
ATOM      2  N2  UNL     1      14.699  10.028  36.324  0.00  0.00    -0.209 NA
ATOM      3  C11 UNL     1      16.023   9.959  36.537  0.00  0.00    +0.170 A 
ATOM      4  C12 UNL     1      16.874   8.891  36.331  0.00  0.00    +0.083 A 
ATOM      5  C13 UNL     1      16.742   7.614  35.839  0.00  0.00    +0.148 A 
ATOM      6  N3  UNL     1      17.975   7.044  35.824  0.00  0.00    -0.172 NA
ATOM      7  N4  UNL     1      18.862   7.920  36.297  0.00  0.00    -0.214 N 
ATOM      8  C20 UNL     1      18.201   9.052  36.606  0.00  0.00    +0.168 A 
ATOM      9  N5  UNL     1      18.719  10.236  37.050  0.00  0.00    -0.216 NA
ATOM     10  C21 UNL     1      17.861  11.288  37.254  0.00  0.00    +0.227 A 
ATOM     11  N6  UNL     1      16.531  11.110  36.991  0.00  0.00    -0.201 N 
ATOM     12  N7  UNL     1      15.557  11.989  37.099  0.00  0.00    -0.147 NA
ENDROOT
BRANCH   1  19
ATOM     13  C5  UNL     1      13.191  12.901  34.271  0.00  0.00    +0.404 C 
ATOM     14  O2  UNL     1      14.129  13.679  34.597  0.00  0.00    -0.226 OA
ATOM     15  N1  UNL     1      12.633  12.012  35.248  0.00  0.00    -0.257 N 
ATOM     16  C6  UNL     1      11.521  11.124  34.961  0.00  0.00    +0.112 C 
ATOM     17  C7  UNL     1      11.306  10.312  36.232  0.00  0.00    +0.021 C 
ATOM     18  C8  UNL     1      12.042  11.067  37.339  0.00  0.00    +0.032 C 
ATOM     19  C9  UNL     1      13.082  11.934  36.630  0.00  0.00    +0.149 C 
BRANCH  13  20
ATOM     20  O1  UNL     1      12.686  12.890  32.962  0.00  0.00    -0.445 OA
BRANCH  20  22
ATOM     21  C1  UNL     1      12.686  14.988  31.702  0.00  0.00    +0.055 C 
ATOM     22  C2  UNL     1      11.840  13.886  32.369  0.00  0.00    +0.107 C 
ATOM     23  C3  UNL     1      10.892  14.490  33.422  0.00  0.00    +0.055 C 
ATOM     24  C4  UNL     1      11.001  13.184  31.290  0.00  0.00    +0.055 C 
ENDBRANCH  20  22
ENDBRANCH  13  20
ENDBRANCH   1  19
BRANCH   7  25
ATOM     25  C14 UNL     1      20.273   7.653  36.399  0.00  0.00    +0.068 A 
ATOM     26  C15 UNL     1      20.801   7.131  37.593  0.00  0.00    +0.028 A 
ATOM     27  C16 UNL     1      22.171   6.874  37.709  0.00  0.00    +0.002 A 
ATOM     28  C17 UNL     1      23.028   7.146  36.640  0.00  0.00    +0.000 A 
ATOM     29  C18 UNL     1      22.518   7.680  35.455  0.00  0.00    +0.002 A 
ATOM     30  C19 UNL     1      21.148   7.937  35.333  0.00  0.00    +0.028 A 
ENDBRANCH   7  25
TORSDOF 4
ENDMDL
MODEL 8
REMARK VINA RESULT:    -6.328     14.445     17.022
REMARK INTER + INTRA:          -8.704
REMARK INTER:                  -7.844
REMARK INTRA:                  -0.860
REMARK UNBOUND:                -0.897
REMARK  Name = /home/qwerty/github/datacon2025hack/step_04_hit_selection/docking/ligands/lig_498.pdb
REMARK  7 active torsions:
REMARK  status: ('A' for Active; 'I' for Inactive)
REMARK    1  A    between atoms: C1_1  and  C2_2
REMARK    2  A    between atoms: C2_2  and  C3_3
REMARK    3  A    between atoms: C2_2  and  C4_4
REMARK    4  A    between atoms: C2_2  and  O1_5
REMARK    5  A    between atoms: O1_5  and  C5_6
REMARK    6  A    between atoms: C9_12  and  C10_13
REMARK    7  A    between atoms: N4_19  and  C14_20
REMARK                            x       y       z     vdW  Elec       q    Type
REMARK                         _______ _______ _______ _____ _____    ______ ____
ROOT
ATOM      1  C10 UNL     1       9.852   4.208  23.069  0.00  0.00    +0.172 A 
ATOM      2  N2  UNL     1      10.431   3.914  24.265  0.00  0.00    -0.209 NA
ATOM      3  C11 UNL     1      11.186   2.857  23.925  0.00  0.00    +0.170 A 
ATOM      4  C12 UNL     1      12.016   2.097  24.726  0.00  0.00    +0.083 A 
ATOM      5  C13 UNL     1      12.345   2.082  26.061  0.00  0.00    +0.148 A 
ATOM      6  N3  UNL     1      13.187   1.038  26.270  0.00  0.00    -0.172 NA
ATOM      7  N4  UNL     1      13.398   0.413  25.111  0.00  0.00    -0.214 N 
ATOM      8  C20 UNL     1      12.684   1.049  24.162  0.00  0.00    +0.168 A 
ATOM      9  N5  UNL     1      12.540   0.710  22.847  0.00  0.00    -0.216 NA
ATOM     10  C21 UNL     1      11.715   1.476  22.062  0.00  0.00    +0.227 A 
ATOM     11  N6  UNL     1      11.064   2.534  22.632  0.00  0.00    -0.201 N 
ATOM     12  N7  UNL     1      10.220   3.371  22.064  0.00  0.00    -0.147 NA
ENDROOT
BRANCH   1  19
ATOM     13  C5  UNL     1      10.459   7.153  22.094  0.00  0.00    +0.404 C 
ATOM     14  O2  UNL     1      11.076   7.140  23.193  0.00  0.00    -0.226 OA
ATOM     15  N1  UNL     1       9.347   6.269  21.892  0.00  0.00    -0.257 N 
ATOM     16  C6  UNL     1       8.558   6.262  20.674  0.00  0.00    +0.112 C 
ATOM     17  C7  UNL     1       7.549   5.133  20.847  0.00  0.00    +0.021 C 
ATOM     18  C8  UNL     1       7.534   4.812  22.341  0.00  0.00    +0.032 C 
ATOM     19  C9  UNL     1       8.865   5.327  22.890  0.00  0.00    +0.149 C 
BRANCH  13  20
ATOM     20  O1  UNL     1      10.845   8.019  21.060  0.00  0.00    -0.445 OA
BRANCH  20  22
ATOM     21  C1  UNL     1      11.722  10.122  21.952  0.00  0.00    +0.055 C 
ATOM     22  C2  UNL     1      10.682   9.445  21.040  0.00  0.00    +0.107 C 
ATOM     23  C3  UNL     1       9.252   9.834  21.462  0.00  0.00    +0.055 C 
ATOM     24  C4  UNL     1      10.915   9.908  19.593  0.00  0.00    +0.055 C 
ENDBRANCH  20  22
ENDBRANCH  13  20
ENDBRANCH   1  19
BRANCH   7  25
ATOM     25  C14 UNL     1      14.225  -0.757  24.973  0.00  0.00    +0.068 A 
ATOM     26  C15 UNL     1      13.877  -1.942  25.645  0.00  0.00    +0.028 A 
ATOM     27  C16 UNL     1      14.675  -3.084  25.527  0.00  0.00    +0.002 A 
ATOM     28  C17 UNL     1      15.834  -3.053  24.746  0.00  0.00    +0.000 A 
ATOM     29  C18 UNL     1      16.198  -1.876  24.087  0.00  0.00    +0.002 A 
ATOM     30  C19 UNL     1      15.403  -0.732  24.201  0.00  0.00    +0.028 A 
ENDBRANCH   7  25
TORSDOF 4
ENDMDL
MODEL 9
REMARK VINA RESULT:    -6.250     15.170     16.959
REMARK INTER + INTRA:          -8.608
REMARK INTER:                  -7.714
REMARK INTRA:                  -0.895
REMARK UNBOUND:                -0.897
REMARK  Name = /home/qwerty/github/datacon2025hack/step_04_hit_selection/docking/ligands/lig_498.pdb
REMARK  7 active torsions:
REMARK  status: ('A' for Active; 'I' for Inactive)
REMARK    1  A    between atoms: C1_1  and  C2_2
REMARK    2  A    between atoms: C2_2  and  C3_3
REMARK    3  A    between atoms: C2_2  and  C4_4
REMARK    4  A    between atoms: C2_2  and  O1_5
REMARK    5  A    between atoms: O1_5  and  C5_6
REMARK    6  A    between atoms: C9_12  and  C10_13
REMARK    7  A    between atoms: N4_19  and  C14_20
REMARK                            x       y       z     vdW  Elec       q    Type
REMARK                         _______ _______ _______ _____ _____    ______ ____
ROOT
ATOM      1  C10 UNL     1      15.204   1.857  20.700  0.00  0.00    +0.172 A 
ATOM      2  N2  UNL     1      14.063   1.459  21.327  0.00  0.00    -0.209 NA
ATOM      3  C11 UNL     1      13.249   2.489  21.041  0.00  0.00    +0.170 A 
ATOM      4  C12 UNL     1      11.932   2.676  21.414  0.00  0.00    +0.083 A 
ATOM      5  C13 UNL     1      11.024   1.985  22.181  0.00  0.00    +0.148 A 
ATOM      6  N3  UNL     1       9.881   2.717  22.233  0.00  0.00    -0.172 NA
ATOM      7  N4  UNL     1      10.049   3.830  21.519  0.00  0.00    -0.214 N 
ATOM      8  C20 UNL     1      11.299   3.817  21.018  0.00  0.00    +0.168 A 
ATOM      9  N5  UNL     1      11.926   4.789  20.291  0.00  0.00    -0.216 NA
ATOM     10  C21 UNL     1      13.233   4.588  19.924  0.00  0.00    +0.227 A 
ATOM     11  N6  UNL     1      13.854   3.433  20.312  0.00  0.00    -0.201 N 
ATOM     12  N7  UNL     1      15.096   3.063  20.084  0.00  0.00    -0.147 NA
ENDROOT
BRANCH   1  19
ATOM     13  C5  UNL     1      16.663   0.676  23.243  0.00  0.00    +0.404 C 
ATOM     14  O2  UNL     1      16.794   1.912  23.454  0.00  0.00    -0.226 OA
ATOM     15  N1  UNL     1      16.502   0.196  21.901  0.00  0.00    -0.257 N 
ATOM     16  C6  UNL     1      16.396  -1.216  21.578  0.00  0.00    +0.112 C 
ATOM     17  C7  UNL     1      16.158  -1.273  20.074  0.00  0.00    +0.021 C 
ATOM     18  C8  UNL     1      16.555   0.101  19.535  0.00  0.00    +0.032 C 
ATOM     19  C9  UNL     1      16.474   1.054  20.727  0.00  0.00    +0.149 C 
BRANCH  13  20
ATOM     20  O1  UNL     1      16.670  -0.241  24.306  0.00  0.00    -0.445 OA
BRANCH  20  22
ATOM     21  C1  UNL     1      15.261  -2.164  24.858  0.00  0.00    +0.055 C 
ATOM     22  C2  UNL     1      15.533  -0.663  25.072  0.00  0.00    +0.107 C 
ATOM     23  C3  UNL     1      14.291   0.173  24.706  0.00  0.00    +0.055 C 
ATOM     24  C4  UNL     1      15.871  -0.427  26.553  0.00  0.00    +0.055 C 
ENDBRANCH  20  22
ENDBRANCH  13  20
ENDBRANCH   1  19
BRANCH   7  25
ATOM     25  C14 UNL     1       9.041   4.849  21.379  0.00  0.00    +0.068 A 
ATOM     26  C15 UNL     1       7.873   4.580  20.643  0.00  0.00    +0.028 A 
ATOM     27  C16 UNL     1       6.889   5.562  20.491  0.00  0.00    +0.002 A 
ATOM     28  C17 UNL     1       7.065   6.825  21.062  0.00  0.00    +0.000 A 
ATOM     29  C18 UNL     1       8.228   7.109  21.782  0.00  0.00    +0.002 A 
ATOM     30  C19 UNL     1       9.215   6.130  21.937  0.00  0.00    +0.028 A 
ENDBRANCH   7  25
TORSDOF 4
ENDMDL
