REMARK  Name = /home/qwerty/github/datacon2025hack/step_04_hit_selection/docking/ligands/lig_342.pdb
REMARK  7 active torsions:
REMARK  status: ('A' for Active; 'I' for Inactive)
REMARK    1  A    between atoms: C2_2  and  C3_3
REMARK    2  A    between atoms: C2_2  and  C4_4
REMARK    3  A    between atoms: C4_4  and  N1_5
REMARK    4  A    between atoms: C5_6  and  C6_7
REMARK    5  A    between atoms: N3_10  and  C8_11
REMARK    6  A    between atoms: C8_11  and  C9_12
REMARK    7  A    between atoms: C10_13  and  O1_14
REMARK                            x       y       z     vdW  Elec       q    Type
REMARK                         _______ _______ _______ _____ _____    ______ ____
ROOT
ATOM      1  N1  UNL     1      -0.187  -0.569  -0.162  0.00  0.00    -0.291 N 
ATOM      2  C5  UNL     1       0.862  -1.103   0.504  0.00  0.00    +0.172 A 
ATOM      3  N4  UNL     1       0.474  -1.649   1.674  0.00  0.00    -0.127 NA
ATOM      4  N5  UNL     1      -0.836  -1.480   1.773  0.00  0.00    -0.113 NA
ATOM      5  C11 UNL     1      -1.223  -0.832   0.660  0.00  0.00    +0.220 A 
ATOM      6  N6  UNL     1      -2.577  -0.446   0.407  0.00  0.00    -0.299 N 
ATOM      7  C12 UNL     1      -3.115   0.734   1.087  0.00  0.00    +0.108 C 
ATOM      8  C13 UNL     1      -4.576   0.507   1.449  0.00  0.00    +0.023 C 
ATOM      9  C14 UNL     1      -5.403   0.268   0.181  0.00  0.00    -0.005 C 
ATOM     10  C15 UNL     1      -5.876  -1.160  -0.056  0.00  0.00    +0.009 C 
ATOM     11  C16 UNL     1      -4.733  -0.591  -0.892  0.00  0.00    +0.010 C 
ATOM     12  C17 UNL     1      -3.351  -1.207  -0.584  0.00  0.00    +0.111 C 
ENDROOT
BRANCH   2  13
ATOM     13  C6  UNL     1       2.265  -1.087   0.053  0.00  0.00    +0.100 A 
ATOM     14  C7  UNL     1       2.745  -1.282  -1.232  0.00  0.00    +0.149 A 
ATOM     15  N2  UNL     1       4.094  -1.232  -1.222  0.00  0.00    -0.176 NA
ATOM     16  N3  UNL     1       4.482  -1.029   0.028  0.00  0.00    -0.233 N 
ATOM     17  C10 UNL     1       3.401  -0.932   0.822  0.00  0.00    +0.222 A 
BRANCH  16  18
ATOM     18  C8  UNL     1       5.874  -0.848   0.427  0.00  0.00    +0.144 C 
ATOM     19  C9  UNL     1       6.247   0.629   0.383  0.00  0.00    +0.029 C 
ENDBRANCH  16  18
BRANCH  17  20
ATOM     20  O1  UNL     1       3.458  -0.683   2.192  0.00  0.00    -0.492 OA
ATOM     21  H14 UNL     1       2.619  -0.572   2.747  0.00  0.00    +0.294 HD
ENDBRANCH  17  20
ENDBRANCH   2  13
BRANCH   1  22
ATOM     22  C4  UNL     1      -0.195   0.259  -1.374  0.00  0.00    +0.156 C 
BRANCH  22  24
ATOM     23  C1  UNL     1       1.627   1.787  -2.078  0.00  0.00    +0.009 C 
ATOM     24  C2  UNL     1       0.665   1.490  -1.193  0.00  0.00    -0.060 C 
ATOM     25  C3  UNL     1       0.415   2.420  -0.036  0.00  0.00    +0.040 C 
ENDBRANCH  22  24
ENDBRANCH   1  22
TORSDOF 5
