MODEL 1
REMARK VINA RESULT:    -6.069      0.000      0.000
REMARK INTER + INTRA:          -8.039
REMARK INTER:                  -7.311
REMARK INTRA:                  -0.728
REMARK UNBOUND:                -0.728
REMARK  Name = /home/qwerty/github/datacon2025hack/step_04_hit_selection/docking/ligands/lig_157.pdb
REMARK  5 active torsions:
REMARK  status: ('A' for Active; 'I' for Inactive)
REMARK    1  A    between atoms: C2_2  and  C3_3
REMARK    2  A    between atoms: C2_2  and  C4_4
REMARK    3  A    between atoms: C4_4  and  N1_5
REMARK    4  A    between atoms: C13_21  and  C14_22
REMARK    5  A    between atoms: C14_22  and  O3_23
REMARK                            x       y       z     vdW  Elec       q    Type
REMARK                         _______ _______ _______ _____ _____    ______ ____
ROOT
ATOM      1  N1  UNL     1      12.574  13.879  30.462  0.00  0.00    -0.293 N 
ATOM      2  C5  UNL     1      13.429  13.651  31.482  0.00  0.00    +0.220 A 
ATOM      3  N2  UNL     1      13.042  13.229  32.799  0.00  0.00    -0.300 N 
ATOM      4  C6  UNL     1      13.603  13.939  33.956  0.00  0.00    +0.110 C 
ATOM      5  C7  UNL     1      12.953  13.483  35.272  0.00  0.00    +0.054 C 
ATOM      6  C8  UNL     1      11.450  13.201  35.075  0.00  0.00    +0.115 C 
ATOM      7  C9  UNL     1      11.201  12.092  34.017  0.00  0.00    +0.054 C 
ATOM      8  C10 UNL     1      12.345  11.953  32.996  0.00  0.00    +0.110 C 
ATOM      9  N3  UNL     1      10.747  14.432  34.696  0.00  0.00    -0.285 N 
ATOM     10  C11 UNL     1       9.792  14.728  35.704  0.00  0.00    +0.307 C 
ATOM     11  O1  UNL     1       9.023  15.724  35.659  0.00  0.00    -0.252 OA
ATOM     12  N4  UNL     1       9.789  13.790  36.760  0.00  0.00    -0.238 N 
ATOM     13  C12 UNL     1      10.794  12.858  36.392  0.00  0.00    +0.244 C 
ATOM     14  O2  UNL     1      11.099  11.866  37.106  0.00  0.00    -0.273 OA
ATOM     15  N5  UNL     1      14.695  13.965  31.151  0.00  0.00    -0.113 NA
ATOM     16  N6  UNL     1      14.670  14.387  29.895  0.00  0.00    -0.130 NA
ATOM     17  C13 UNL     1      13.385  14.343  29.488  0.00  0.00    +0.167 A 
ATOM     18  H16 UNL     1      10.886  14.979  33.817  0.00  0.00    +0.151 HD
ATOM     19  H17 UNL     1       9.191  13.787  37.616  0.00  0.00    +0.159 HD
ENDROOT
BRANCH  17  20
ATOM     20  C14 UNL     1      12.936  14.766  28.118  0.00  0.00    +0.125 C 
ATOM     21  C15 UNL     1      12.817  13.706  27.035  0.00  0.00    +0.046 C 
ATOM     22  C16 UNL     1      13.970  14.702  27.008  0.00  0.00    +0.046 C 
BRANCH  20  23
ATOM     23  O3  UNL     1      12.039  15.834  28.011  0.00  0.00    -0.381 OA
ATOM     24  H18 UNL     1      11.581  15.710  27.140  0.00  0.00    +0.211 HD
ENDBRANCH  20  23
ENDBRANCH  17  20
BRANCH   1  25
ATOM     25  C4  UNL     1      11.112  13.770  30.446  0.00  0.00    +0.156 C 
BRANCH  25  27
ATOM     26  C1  UNL     1       9.561  12.835  28.782  0.00  0.00    +0.009 C 
ATOM     27  C2  UNL     1      10.613  12.623  29.585  0.00  0.00    -0.060 C 
ATOM     28  C3  UNL     1      11.218  11.239  29.626  0.00  0.00    +0.040 C 
ENDBRANCH  25  27
ENDBRANCH   1  25
TORSDOF 4
ENDMDL
MODEL 2
REMARK VINA RESULT:    -5.762      7.160     11.116
REMARK INTER + INTRA:          -7.668
REMARK INTER:                  -6.949
REMARK INTRA:                  -0.719
REMARK UNBOUND:                -0.728
REMARK  Name = /home/qwerty/github/datacon2025hack/step_04_hit_selection/docking/ligands/lig_157.pdb
REMARK  5 active torsions:
REMARK  status: ('A' for Active; 'I' for Inactive)
REMARK    1  A    between atoms: C2_2  and  C3_3
REMARK    2  A    between atoms: C2_2  and  C4_4
REMARK    3  A    between atoms: C4_4  and  N1_5
REMARK    4  A    between atoms: C13_21  and  C14_22
REMARK    5  A    between atoms: C14_22  and  O3_23
REMARK                            x       y       z     vdW  Elec       q    Type
REMARK                         _______ _______ _______ _____ _____    ______ ____
ROOT
ATOM      1  N1  UNL     1       8.173   8.847  27.001  0.00  0.00    -0.293 N 
ATOM      2  C5  UNL     1       8.459   7.932  26.051  0.00  0.00    +0.220 A 
ATOM      3  N2  UNL     1       8.953   8.239  24.738  0.00  0.00    -0.300 N 
ATOM      4  C6  UNL     1       8.311   7.604  23.580  0.00  0.00    +0.110 C 
ATOM      5  C7  UNL     1       8.838   8.175  22.254  0.00  0.00    +0.054 C 
ATOM      6  C8  UNL     1       9.106   9.689  22.373  0.00  0.00    +0.115 C 
ATOM      7  C9  UNL     1      10.153  10.008  23.474  0.00  0.00    +0.054 C 
ATOM      8  C10 UNL     1      10.237   8.930  24.570  0.00  0.00    +0.110 C 
ATOM      9  N3  UNL     1       7.854  10.407  22.638  0.00  0.00    -0.285 N 
ATOM     10  C11 UNL     1       7.614  11.297  21.559  0.00  0.00    +0.307 C 
ATOM     11  O1  UNL     1       6.615  12.062  21.501  0.00  0.00    -0.252 OA
ATOM     12  N4  UNL     1       8.609  11.240  20.558  0.00  0.00    -0.238 N 
ATOM     13  C12 UNL     1       9.521  10.264  21.039  0.00  0.00    +0.244 C 
ATOM     14  O2  UNL     1      10.552   9.921  20.402  0.00  0.00    -0.273 OA
ATOM     15  N5  UNL     1       8.129   6.686  26.441  0.00  0.00    -0.113 NA
ATOM     16  N6  UNL     1       7.637   6.787  27.667  0.00  0.00    -0.130 NA
ATOM     17  C13 UNL     1       7.656   8.094  27.996  0.00  0.00    +0.167 A 
ATOM     18  H16 UNL     1       7.259  10.319  23.493  0.00  0.00    +0.151 HD
ATOM     19  H17 UNL     1       8.659  11.784  19.669  0.00  0.00    +0.159 HD
ENDROOT
BRANCH  17  20
ATOM     20  C14 UNL     1       7.156   8.625  29.310  0.00  0.00    +0.125 C 
ATOM     21  C15 UNL     1       8.165   8.887  30.416  0.00  0.00    +0.046 C 
ATOM     22  C16 UNL     1       7.232   7.686  30.501  0.00  0.00    +0.046 C 
BRANCH  20  23
ATOM     23  O3  UNL     1       6.039   9.466  29.308  0.00  0.00    -0.381 OA
ATOM     24  H18 UNL     1       6.363  10.338  28.964  0.00  0.00    +0.211 HD
ENDBRANCH  20  23
ENDBRANCH  17  20
BRANCH   1  25
ATOM     25  C4  UNL     1       8.277  10.307  26.934  0.00  0.00    +0.156 C 
BRANCH  25  27
ATOM     26  C1  UNL     1       9.528  12.142  27.991  0.00  0.00    +0.009 C 
ATOM     27  C2  UNL     1       9.504  10.847  27.649  0.00  0.00    -0.060 C 
ATOM     28  C3  UNL     1      10.720  10.001  27.951  0.00  0.00    +0.040 C 
ENDBRANCH  25  27
ENDBRANCH   1  25
TORSDOF 4
ENDMDL
MODEL 3
REMARK VINA RESULT:    -5.737      9.899     12.355
REMARK INTER + INTRA:          -7.638
REMARK INTER:                  -6.921
REMARK INTRA:                  -0.717
REMARK UNBOUND:                -0.728
REMARK  Name = /home/qwerty/github/datacon2025hack/step_04_hit_selection/docking/ligands/lig_157.pdb
REMARK  5 active torsions:
REMARK  status: ('A' for Active; 'I' for Inactive)
REMARK    1  A    between atoms: C2_2  and  C3_3
REMARK    2  A    between atoms: C2_2  and  C4_4
REMARK    3  A    between atoms: C4_4  and  N1_5
REMARK    4  A    between atoms: C13_21  and  C14_22
REMARK    5  A    between atoms: C14_22  and  O3_23
REMARK                            x       y       z     vdW  Elec       q    Type
REMARK                         _______ _______ _______ _____ _____    ______ ____
ROOT
ATOM      1  N1  UNL     1      19.419   8.982  36.109  0.00  0.00    -0.293 N 
ATOM      2  C5  UNL     1      19.584   7.769  35.540  0.00  0.00    +0.220 A 
ATOM      3  N2  UNL     1      20.848   7.212  35.146  0.00  0.00    -0.300 N 
ATOM      4  C6  UNL     1      20.968   6.622  33.808  0.00  0.00    +0.110 C 
ATOM      5  C7  UNL     1      22.421   6.239  33.484  0.00  0.00    +0.054 C 
ATOM      6  C8  UNL     1      23.407   7.271  34.066  0.00  0.00    +0.115 C 
ATOM      7  C9  UNL     1      23.282   7.387  35.609  0.00  0.00    +0.054 C 
ATOM      8  C10 UNL     1      21.898   6.974  36.144  0.00  0.00    +0.110 C 
ATOM      9  N3  UNL     1      23.199   8.582  33.439  0.00  0.00    -0.285 N 
ATOM     10  C11 UNL     1      24.391   8.945  32.759  0.00  0.00    +0.307 C 
ATOM     11  O1  UNL     1      24.526  10.025  32.128  0.00  0.00    -0.252 OA
ATOM     12  N4  UNL     1      25.409   7.972  32.865  0.00  0.00    -0.238 N 
ATOM     13  C12 UNL     1      24.823   6.948  33.654  0.00  0.00    +0.244 C 
ATOM     14  O2  UNL     1      25.432   5.888  33.957  0.00  0.00    -0.273 OA
ATOM     15  N5  UNL     1      18.405   7.172  35.286  0.00  0.00    -0.113 NA
ATOM     16  N6  UNL     1      17.459   7.997  35.710  0.00  0.00    -0.130 NA
ATOM     17  C13 UNL     1      18.076   9.093  36.195  0.00  0.00    +0.167 A 
ATOM     18  H16 UNL     1      22.341   9.174  33.513  0.00  0.00    +0.151 HD
ATOM     19  H17 UNL     1      26.368   7.997  32.453  0.00  0.00    +0.159 HD
ENDROOT
BRANCH  17  20
ATOM     20  C14 UNL     1      17.341  10.278  36.754  0.00  0.00    +0.125 C 
ATOM     21  C15 UNL     1      15.871  10.448  36.406  0.00  0.00    +0.046 C 
ATOM     22  C16 UNL     1      16.919  11.351  35.766  0.00  0.00    +0.046 C 
BRANCH  20  23
ATOM     23  O3  UNL     1      17.719  10.766  38.010  0.00  0.00    -0.381 OA
ATOM     24  H18 UNL     1      18.690  10.576  38.087  0.00  0.00    +0.211 HD
ENDBRANCH  20  23
ENDBRANCH  17  20
BRANCH   1  25
ATOM     25  C4  UNL     1      20.432   9.989  36.440  0.00  0.00    +0.156 C 
BRANCH  25  27
ATOM     26  C1  UNL     1      20.585  12.368  35.838  0.00  0.00    +0.009 C 
ATOM     27  C2  UNL     1      20.522  11.100  35.408  0.00  0.00    -0.060 C 
ATOM     28  C3  UNL     1      20.497  10.845  33.919  0.00  0.00    +0.040 C 
ENDBRANCH  25  27
ENDBRANCH   1  25
TORSDOF 4
ENDMDL
MODEL 4
REMARK VINA RESULT:    -5.698      9.777     13.172
REMARK INTER + INTRA:          -7.592
REMARK INTER:                  -6.848
REMARK INTRA:                  -0.743
REMARK UNBOUND:                -0.728
REMARK  Name = /home/qwerty/github/datacon2025hack/step_04_hit_selection/docking/ligands/lig_157.pdb
REMARK  5 active torsions:
REMARK  status: ('A' for Active; 'I' for Inactive)
REMARK    1  A    between atoms: C2_2  and  C3_3
REMARK    2  A    between atoms: C2_2  and  C4_4
REMARK    3  A    between atoms: C4_4  and  N1_5
REMARK    4  A    between atoms: C13_21  and  C14_22
REMARK    5  A    between atoms: C14_22  and  O3_23
REMARK                            x       y       z     vdW  Elec       q    Type
REMARK                         _______ _______ _______ _____ _____    ______ ____
ROOT
ATOM      1  N1  UNL     1       9.424   8.614  23.248  0.00  0.00    -0.293 N 
ATOM      2  C5  UNL     1      10.750   8.558  23.003  0.00  0.00    +0.220 A 
ATOM      3  N2  UNL     1      11.379   7.641  22.094  0.00  0.00    -0.300 N 
ATOM      4  C6  UNL     1      12.561   6.899  22.551  0.00  0.00    +0.110 C 
ATOM      5  C7  UNL     1      12.997   5.839  21.527  0.00  0.00    +0.054 C 
ATOM      6  C8  UNL     1      11.773   5.187  20.853  0.00  0.00    +0.115 C 
ATOM      7  C9  UNL     1      10.897   6.230  20.108  0.00  0.00    +0.054 C 
ATOM      8  C10 UNL     1      11.037   7.658  20.667  0.00  0.00    +0.110 C 
ATOM      9  N3  UNL     1      10.971   4.465  21.846  0.00  0.00    -0.285 N 
ATOM     10  C11 UNL     1      10.955   3.090  21.493  0.00  0.00    +0.307 C 
ATOM     11  O1  UNL     1      10.339   2.212  22.151  0.00  0.00    -0.252 OA
ATOM     12  N4  UNL     1      11.699   2.808  20.325  0.00  0.00    -0.238 N 
ATOM     13  C12 UNL     1      12.204   4.074  19.928  0.00  0.00    +0.244 C 
ATOM     14  O2  UNL     1      12.939   4.227  18.917  0.00  0.00    -0.273 OA
ATOM     15  N5  UNL     1      11.440   9.401  23.793  0.00  0.00    -0.113 NA
ATOM     16  N6  UNL     1      10.552  10.028  24.552  0.00  0.00    -0.130 NA
ATOM     17  C13 UNL     1       9.338   9.541  24.226  0.00  0.00    +0.167 A 
ATOM     18  H16 UNL     1      10.458   4.887  22.653  0.00  0.00    +0.151 HD
ATOM     19  H17 UNL     1      11.848   1.883  19.866  0.00  0.00    +0.159 HD
ENDROOT
BRANCH  17  20
ATOM     20  C14 UNL     1       8.063   9.987  24.884  0.00  0.00    +0.125 C 
ATOM     21  C15 UNL     1       8.130  10.514  26.309  0.00  0.00    +0.046 C 
ATOM     22  C16 UNL     1       7.549   9.133  26.030  0.00  0.00    +0.046 C 
BRANCH  20  23
ATOM     23  O3  UNL     1       7.061  10.547  24.086  0.00  0.00    -0.381 OA
ATOM     24  H18 UNL     1       6.929  11.467  24.430  0.00  0.00    +0.211 HD
ENDBRANCH  20  23
ENDBRANCH  17  20
BRANCH   1  25
ATOM     25  C4  UNL     1       8.349   7.790  22.687  0.00  0.00    +0.156 C 
BRANCH  25  27
ATOM     26  C1  UNL     1       7.775   5.407  22.497  0.00  0.00    +0.009 C 
ATOM     27  C2  UNL     1       8.343   6.373  23.232  0.00  0.00    -0.060 C 
ATOM     28  C3  UNL     1       8.906   6.008  24.586  0.00  0.00    +0.040 C 
ENDBRANCH  25  27
ENDBRANCH   1  25
TORSDOF 4
ENDMDL
MODEL 5
REMARK VINA RESULT:    -5.609     10.344     12.075
REMARK INTER + INTRA:          -7.484
REMARK INTER:                  -6.936
REMARK INTRA:                  -0.548
REMARK UNBOUND:                -0.728
REMARK  Name = /home/qwerty/github/datacon2025hack/step_04_hit_selection/docking/ligands/lig_157.pdb
REMARK  5 active torsions:
REMARK  status: ('A' for Active; 'I' for Inactive)
REMARK    1  A    between atoms: C2_2  and  C3_3
REMARK    2  A    between atoms: C2_2  and  C4_4
REMARK    3  A    between atoms: C4_4  and  N1_5
REMARK    4  A    between atoms: C13_21  and  C14_22
REMARK    5  A    between atoms: C14_22  and  O3_23
REMARK                            x       y       z     vdW  Elec       q    Type
REMARK                         _______ _______ _______ _____ _____    ______ ____
ROOT
ATOM      1  N1  UNL     1      21.561   6.029  33.553  0.00  0.00    -0.293 N 
ATOM      2  C5  UNL     1      21.077   7.121  32.925  0.00  0.00    +0.220 A 
ATOM      3  N2  UNL     1      20.796   8.377  33.563  0.00  0.00    -0.300 N 
ATOM      4  C6  UNL     1      19.505   9.025  33.300  0.00  0.00    +0.110 C 
ATOM      5  C7  UNL     1      19.296  10.258  34.193  0.00  0.00    +0.054 C 
ATOM      6  C8  UNL     1      19.876  10.023  35.602  0.00  0.00    +0.115 C 
ATOM      7  C9  UNL     1      21.399   9.724  35.561  0.00  0.00    +0.054 C 
ATOM      8  C10 UNL     1      21.869   9.133  34.218  0.00  0.00    +0.110 C 
ATOM      9  N3  UNL     1      19.161   8.931  36.271  0.00  0.00    -0.285 N 
ATOM     10  C11 UNL     1      18.536   9.453  37.434  0.00  0.00    +0.307 C 
ATOM     11  O1  UNL     1      17.852   8.753  38.226  0.00  0.00    -0.252 OA
ATOM     12  N4  UNL     1      18.762  10.835  37.614  0.00  0.00    -0.238 N 
ATOM     13  C12 UNL     1      19.573  11.195  36.505  0.00  0.00    +0.244 C 
ATOM     14  O2  UNL     1      19.976  12.373  36.310  0.00  0.00    -0.273 OA
ATOM     15  N5  UNL     1      20.786   6.869  31.635  0.00  0.00    -0.113 NA
ATOM     16  N6  UNL     1      21.099   5.601  31.413  0.00  0.00    -0.130 NA
ATOM     17  C13 UNL     1      21.557   5.096  32.577  0.00  0.00    +0.167 A 
ATOM     18  H16 UNL     1      19.145   7.929  35.975  0.00  0.00    +0.151 HD
ATOM     19  H17 UNL     1      18.410  11.450  38.380  0.00  0.00    +0.159 HD
ENDROOT
BRANCH  17  20
ATOM     20  C14 UNL     1      21.997   3.669  32.744  0.00  0.00    +0.125 C 
ATOM     21  C15 UNL     1      21.147   2.571  32.125  0.00  0.00    +0.046 C 
ATOM     22  C16 UNL     1      21.140   2.787  33.634  0.00  0.00    +0.046 C 
BRANCH  20  23
ATOM     23  O3  UNL     1      23.368   3.398  32.810  0.00  0.00    -0.381 OA
ATOM     24  H18 UNL     1      23.819   4.245  32.561  0.00  0.00    +0.211 HD
ENDBRANCH  20  23
ENDBRANCH  17  20
BRANCH   1  25
ATOM     25  C4  UNL     1      21.894   5.853  34.969  0.00  0.00    +0.156 C 
BRANCH  25  27
ATOM     26  C1  UNL     1      23.578   6.701  36.548  0.00  0.00    +0.009 C 
ATOM     27  C2  UNL     1      23.312   6.287  35.302  0.00  0.00    -0.060 C 
ATOM     28  C3  UNL     1      24.425   6.318  34.280  0.00  0.00    +0.040 C 
ENDBRANCH  25  27
ENDBRANCH   1  25
TORSDOF 4
ENDMDL
MODEL 6
REMARK VINA RESULT:    -5.603      9.118     10.779
REMARK INTER + INTRA:          -7.478
REMARK INTER:                  -6.850
REMARK INTRA:                  -0.628
REMARK UNBOUND:                -0.728
REMARK  Name = /home/qwerty/github/datacon2025hack/step_04_hit_selection/docking/ligands/lig_157.pdb
REMARK  5 active torsions:
REMARK  status: ('A' for Active; 'I' for Inactive)
REMARK    1  A    between atoms: C2_2  and  C3_3
REMARK    2  A    between atoms: C2_2  and  C4_4
REMARK    3  A    between atoms: C4_4  and  N1_5
REMARK    4  A    between atoms: C13_21  and  C14_22
REMARK    5  A    between atoms: C14_22  and  O3_23
REMARK                            x       y       z     vdW  Elec       q    Type
REMARK                         _______ _______ _______ _____ _____    ______ ____
ROOT
ATOM      1  N1  UNL     1      21.966   8.855  34.362  0.00  0.00    -0.293 N 
ATOM      2  C5  UNL     1      20.954   9.559  33.812  0.00  0.00    +0.220 A 
ATOM      3  N2  UNL     1      19.826  10.077  34.536  0.00  0.00    -0.300 N 
ATOM      4  C6  UNL     1      18.480   9.847  33.996  0.00  0.00    +0.110 C 
ATOM      5  C7  UNL     1      17.389  10.306  34.976  0.00  0.00    +0.054 C 
ATOM      6  C8  UNL     1      17.799  10.015  36.434  0.00  0.00    +0.115 C 
ATOM      7  C9  UNL     1      19.117  10.738  36.822  0.00  0.00    +0.054 C 
ATOM      8  C10 UNL     1      20.021  11.051  35.615  0.00  0.00    +0.110 C 
ATOM      9  N3  UNL     1      17.931   8.569  36.645  0.00  0.00    -0.285 N 
ATOM     10  C11 UNL     1      16.983   8.173  37.624  0.00  0.00    +0.307 C 
ATOM     11  O1  UNL     1      16.858   6.987  38.027  0.00  0.00    -0.252 OA
ATOM     12  N4  UNL     1      16.196   9.245  38.101  0.00  0.00    -0.238 N 
ATOM     13  C12 UNL     1      16.680  10.369  37.383  0.00  0.00    +0.244 C 
ATOM     14  O2  UNL     1      16.206  11.527  37.530  0.00  0.00    -0.273 OA
ATOM     15  N5  UNL     1      21.068   9.635  32.473  0.00  0.00    -0.113 NA
ATOM     16  N6  UNL     1      22.177   8.988  32.146  0.00  0.00    -0.130 NA
ATOM     17  C13 UNL     1      22.709   8.510  33.289  0.00  0.00    +0.167 A 
ATOM     18  H16 UNL     1      18.630   7.938  36.191  0.00  0.00    +0.151 HD
ATOM     19  H17 UNL     1      15.432   9.215  38.811  0.00  0.00    +0.159 HD
ENDROOT
BRANCH  17  20
ATOM     20  C14 UNL     1      23.970   7.695  33.337  0.00  0.00    +0.125 C 
ATOM     21  C15 UNL     1      24.102   6.507  32.398  0.00  0.00    +0.046 C 
ATOM     22  C16 UNL     1      23.853   6.283  33.884  0.00  0.00    +0.046 C 
BRANCH  20  23
ATOM     23  O3  UNL     1      25.169   8.340  33.657  0.00  0.00    -0.381 OA
ATOM     24  H18 UNL     1      25.037   8.712  34.566  0.00  0.00    +0.211 HD
ENDBRANCH  20  23
ENDBRANCH  17  20
BRANCH   1  25
ATOM     25  C4  UNL     1      22.155   8.453  35.759  0.00  0.00    +0.156 C 
BRANCH  25  27
ATOM     26  C1  UNL     1      21.049   7.110  37.497  0.00  0.00    +0.009 C 
ATOM     27  C2  UNL     1      21.217   7.337  36.187  0.00  0.00    -0.060 C 
ATOM     28  C3  UNL     1      20.501   6.441  35.203  0.00  0.00    +0.040 C 
ENDBRANCH  25  27
ENDBRANCH   1  25
TORSDOF 4
ENDMDL
MODEL 7
REMARK VINA RESULT:    -5.565      8.391     10.376
REMARK INTER + INTRA:          -7.431
REMARK INTER:                  -6.675
REMARK INTRA:                  -0.756
REMARK UNBOUND:                -0.728
REMARK  Name = /home/qwerty/github/datacon2025hack/step_04_hit_selection/docking/ligands/lig_157.pdb
REMARK  5 active torsions:
REMARK  status: ('A' for Active; 'I' for Inactive)
REMARK    1  A    between atoms: C2_2  and  C3_3
REMARK    2  A    between atoms: C2_2  and  C4_4
REMARK    3  A    between atoms: C4_4  and  N1_5
REMARK    4  A    between atoms: C13_21  and  C14_22
REMARK    5  A    between atoms: C14_22  and  O3_23
REMARK                            x       y       z     vdW  Elec       q    Type
REMARK                         _______ _______ _______ _____ _____    ______ ____
ROOT
ATOM      1  N1  UNL     1      20.985   8.655  35.976  0.00  0.00    -0.293 N 
ATOM      2  C5  UNL     1      20.464   9.658  35.238  0.00  0.00    +0.220 A 
ATOM      3  N2  UNL     1      19.184  10.267  35.468  0.00  0.00    -0.300 N 
ATOM      4  C6  UNL     1      18.278  10.450  34.327  0.00  0.00    +0.110 C 
ATOM      5  C7  UNL     1      16.894  10.946  34.774  0.00  0.00    +0.054 C 
ATOM      6  C8  UNL     1      16.482  10.300  36.112  0.00  0.00    +0.115 C 
ATOM      7  C9  UNL     1      17.489  10.623  37.248  0.00  0.00    +0.054 C 
ATOM      8  C10 UNL     1      18.904  10.951  36.736  0.00  0.00    +0.110 C 
ATOM      9  N3  UNL     1      16.344   8.847  35.953  0.00  0.00    -0.285 N 
ATOM     10  C11 UNL     1      14.997   8.494  36.230  0.00  0.00    +0.307 C 
ATOM     11  O1  UNL     1      14.568   7.312  36.186  0.00  0.00    -0.252 OA
ATOM     12  N4  UNL     1      14.189   9.604  36.563  0.00  0.00    -0.238 N 
ATOM     13  C12 UNL     1      15.078  10.708  36.492  0.00  0.00    +0.244 C 
ATOM     14  O2  UNL     1      14.713  11.892  36.715  0.00  0.00    -0.273 OA
ATOM     15  N5  UNL     1      21.244   9.960  34.184  0.00  0.00    -0.113 NA
ATOM     16  N6  UNL     1      22.296   9.156  34.243  0.00  0.00    -0.130 NA
ATOM     17  C13 UNL     1      22.129   8.363  35.321  0.00  0.00    +0.167 A 
ATOM     18  H16 UNL     1      17.110   8.175  35.721  0.00  0.00    +0.151 HD
ATOM     19  H17 UNL     1      13.172   9.611  36.799  0.00  0.00    +0.159 HD
ENDROOT
BRANCH  17  20
ATOM     20  C14 UNL     1      23.105   7.294  35.722  0.00  0.00    +0.125 C 
ATOM     21  C15 UNL     1      24.015   6.708  34.654  0.00  0.00    +0.046 C 
ATOM     22  C16 UNL     1      22.844   5.895  35.192  0.00  0.00    +0.046 C 
BRANCH  20  23
ATOM     23  O3  UNL     1      23.643   7.331  37.012  0.00  0.00    -0.381 OA
ATOM     24  H18 UNL     1      24.447   7.908  36.949  0.00  0.00    +0.211 HD
ENDBRANCH  20  23
ENDBRANCH  17  20
BRANCH   1  25
ATOM     25  C4  UNL     1      20.403   7.963  37.130  0.00  0.00    +0.156 C 
BRANCH  25  27
ATOM     26  C1  UNL     1      18.552   6.448  37.700  0.00  0.00    +0.009 C 
ATOM     27  C2  UNL     1      19.340   6.950  36.740  0.00  0.00    -0.060 C 
ATOM     28  C3  UNL     1      19.162   6.447  35.326  0.00  0.00    +0.040 C 
ENDBRANCH  25  27
ENDBRANCH   1  25
TORSDOF 4
ENDMDL
MODEL 8
REMARK VINA RESULT:    -5.533      9.972     11.279
REMARK INTER + INTRA:          -7.393
REMARK INTER:                  -6.687
REMARK INTRA:                  -0.706
REMARK UNBOUND:                -0.728
REMARK  Name = /home/qwerty/github/datacon2025hack/step_04_hit_selection/docking/ligands/lig_157.pdb
REMARK  5 active torsions:
REMARK  status: ('A' for Active; 'I' for Inactive)
REMARK    1  A    between atoms: C2_2  and  C3_3
REMARK    2  A    between atoms: C2_2  and  C4_4
REMARK    3  A    between atoms: C4_4  and  N1_5
REMARK    4  A    between atoms: C13_21  and  C14_22
REMARK    5  A    between atoms: C14_22  and  O3_23
REMARK                            x       y       z     vdW  Elec       q    Type
REMARK                         _______ _______ _______ _____ _____    ______ ____
ROOT
ATOM      1  N1  UNL     1      22.265   7.600  34.647  0.00  0.00    -0.293 N 
ATOM      2  C5  UNL     1      21.673   7.355  35.835  0.00  0.00    +0.220 A 
ATOM      3  N2  UNL     1      20.364   7.812  36.210  0.00  0.00    -0.300 N 
ATOM      4  C6  UNL     1      20.193   8.457  37.517  0.00  0.00    +0.110 C 
ATOM      5  C7  UNL     1      18.781   9.042  37.682  0.00  0.00    +0.054 C 
ATOM      6  C8  UNL     1      18.270   9.631  36.352  0.00  0.00    +0.115 C 
ATOM      7  C9  UNL     1      18.209   8.562  35.228  0.00  0.00    +0.054 C 
ATOM      8  C10 UNL     1      19.184   7.390  35.447  0.00  0.00    +0.110 C 
ATOM      9  N3  UNL     1      19.114  10.758  35.938  0.00  0.00    -0.285 N 
ATOM     10  C11 UNL     1      18.309  11.927  35.899  0.00  0.00    +0.307 C 
ATOM     11  O1  UNL     1      18.748  13.059  35.568  0.00  0.00    -0.252 OA
ATOM     12  N4  UNL     1      16.965  11.689  36.264  0.00  0.00    -0.238 N 
ATOM     13  C12 UNL     1      16.929  10.299  36.546  0.00  0.00    +0.244 C 
ATOM     14  O2  UNL     1      15.883   9.708  36.925  0.00  0.00    -0.273 OA
ATOM     15  N5  UNL     1      22.499   6.712  36.682  0.00  0.00    -0.113 NA
ATOM     16  N6  UNL     1      23.638   6.520  36.033  0.00  0.00    -0.130 NA
ATOM     17  C13 UNL     1      23.495   7.067  34.809  0.00  0.00    +0.167 A 
ATOM     18  H16 UNL     1      20.123  10.710  35.672  0.00  0.00    +0.151 HD
ATOM     19  H17 UNL     1      16.183  12.378  36.321  0.00  0.00    +0.159 HD
ENDROOT
BRANCH  17  20
ATOM     20  C14 UNL     1      24.583   7.074  33.773  0.00  0.00    +0.125 C 
ATOM     21  C15 UNL     1      24.522   6.049  32.652  0.00  0.00    +0.046 C 
ATOM     22  C16 UNL     1      25.539   5.894  33.776  0.00  0.00    +0.046 C 
BRANCH  20  23
ATOM     23  O3  UNL     1      25.175   8.295  33.436  0.00  0.00    -0.381 OA
ATOM     24  H18 UNL     1      25.792   8.507  34.183  0.00  0.00    +0.211 HD
ENDBRANCH  20  23
ENDBRANCH  17  20
BRANCH   1  25
ATOM     25  C4  UNL     1      21.754   8.362  33.504  0.00  0.00    +0.156 C 
BRANCH  25  27
ATOM     26  C1  UNL     1      21.245   7.986  31.128  0.00  0.00    +0.009 C 
ATOM     27  C2  UNL     1      21.279   7.475  32.366  0.00  0.00    -0.060 C 
ATOM     28  C3  UNL     1      20.798   6.057  32.573  0.00  0.00    +0.040 C 
ENDBRANCH  25  27
ENDBRANCH   1  25
TORSDOF 4
ENDMDL
MODEL 9
REMARK VINA RESULT:    -5.501      6.596      8.877
REMARK INTER + INTRA:          -7.355
REMARK INTER:                  -6.743
REMARK INTRA:                  -0.612
REMARK UNBOUND:                -0.728
REMARK  Name = /home/qwerty/github/datacon2025hack/step_04_hit_selection/docking/ligands/lig_157.pdb
REMARK  5 active torsions:
REMARK  status: ('A' for Active; 'I' for Inactive)
REMARK    1  A    between atoms: C2_2  and  C3_3
REMARK    2  A    between atoms: C2_2  and  C4_4
REMARK    3  A    between atoms: C4_4  and  N1_5
REMARK    4  A    between atoms: C13_21  and  C14_22
REMARK    5  A    between atoms: C14_22  and  O3_23
REMARK                            x       y       z     vdW  Elec       q    Type
REMARK                         _______ _______ _______ _____ _____    ______ ____
ROOT
ATOM      1  N1  UNL     1      19.133  10.091  36.432  0.00  0.00    -0.293 N 
ATOM      2  C5  UNL     1      18.714  11.093  35.631  0.00  0.00    +0.220 A 
ATOM      3  N2  UNL     1      17.424  11.721  35.708  0.00  0.00    -0.300 N 
ATOM      4  C6  UNL     1      16.658  11.905  34.469  0.00  0.00    +0.110 C 
ATOM      5  C7  UNL     1      15.239  12.423  34.751  0.00  0.00    +0.054 C 
ATOM      6  C8  UNL     1      14.667  11.794  36.038  0.00  0.00    +0.115 C 
ATOM      7  C9  UNL     1      15.542  12.116  37.279  0.00  0.00    +0.054 C 
ATOM      8  C10 UNL     1      17.011  12.420  36.930  0.00  0.00    +0.110 C 
ATOM      9  N3  UNL     1      14.529  10.343  35.876  0.00  0.00    -0.285 N 
ATOM     10  C11 UNL     1      13.154  10.010  35.999  0.00  0.00    +0.307 C 
ATOM     11  O1  UNL     1      12.716   8.833  35.916  0.00  0.00    -0.252 OA
ATOM     12  N4  UNL     1      12.328  11.133  36.229  0.00  0.00    -0.238 N 
ATOM     13  C12 UNL     1      13.235  12.224  36.251  0.00  0.00    +0.244 C 
ATOM     14  O2  UNL     1      12.864  13.416  36.421  0.00  0.00    -0.273 OA
ATOM     15  N5  UNL     1      19.614  11.375  34.670  0.00  0.00    -0.113 NA
ATOM     16  N6  UNL     1      20.641  10.558  34.857  0.00  0.00    -0.130 NA
ATOM     17  C13 UNL     1      20.340   9.778  35.915  0.00  0.00    +0.167 A 
ATOM     18  H16 UNL     1      15.306   9.658  35.738  0.00  0.00    +0.151 HD
ATOM     19  H17 UNL     1      11.292  11.155  36.347  0.00  0.00    +0.159 HD
ENDROOT
BRANCH  17  20
ATOM     20  C14 UNL     1      21.249   8.700  36.433  0.00  0.00    +0.125 C 
ATOM     21  C15 UNL     1      22.424   8.266  35.570  0.00  0.00    +0.046 C 
ATOM     22  C16 UNL     1      21.205   7.363  35.715  0.00  0.00    +0.046 C 
BRANCH  20  23
ATOM     23  O3  UNL     1      21.454   8.607  37.814  0.00  0.00    -0.381 OA
ATOM     24  H18 UNL     1      22.342   8.179  37.923  0.00  0.00    +0.211 HD
ENDBRANCH  20  23
ENDBRANCH  17  20
BRANCH   1  25
ATOM     25  C4  UNL     1      18.413   9.418  37.518  0.00  0.00    +0.156 C 
BRANCH  25  27
ATOM     26  C1  UNL     1      17.031   7.954  36.105  0.00  0.00    +0.009 C 
ATOM     27  C2  UNL     1      17.898   8.044  37.124  0.00  0.00    -0.060 C 
ATOM     28  C3  UNL     1      18.280   6.780  37.858  0.00  0.00    +0.040 C 
ENDBRANCH  25  27
ENDBRANCH   1  25
TORSDOF 4
ENDMDL
