MODEL 1
REMARK VINA RESULT:    -6.598      0.000      0.000
REMARK INTER + INTRA:          -8.368
REMARK INTER:                  -7.948
REMARK INTRA:                  -0.420
REMARK UNBOUND:                -0.420
REMARK  Name = /home/qwerty/github/datacon2025hack/step_04_hit_selection/docking/ligands/lig_310.pdb
REMARK  5 active torsions:
REMARK  status: ('A' for Active; 'I' for Inactive)
REMARK    1  A    between atoms: C1_1  and  C2_2
REMARK    2  A    between atoms: C4_4  and  C5_5
REMARK    3  A    between atoms: C7_9  and  O2_10
REMARK    4  A    between atoms: C8_11  and  N2_12
REMARK    5  A    between atoms: C9_13  and  C10_15
REMARK                            x       y       z     vdW  Elec       q    Type
REMARK                         _______ _______ _______ _____ _____    ______ ____
ROOT
ATOM      1  C5  UNL     1      12.873  11.576  36.466  0.00  0.00    +0.266 C 
ATOM      2  O1  UNL     1      12.299  10.681  37.142  0.00  0.00    -0.268 OA
ATOM      3  N1  UNL     1      14.308  11.672  36.489  0.00  0.00    -0.292 N 
ATOM      4  C6  UNL     1      15.026  12.936  36.545  0.00  0.00    +0.141 C 
ATOM      5  C7  UNL     1      16.504  12.557  36.655  0.00  0.00    +0.153 C 
ATOM      6  C8  UNL     1      16.524  11.105  37.163  0.00  0.00    +0.121 C 
ATOM      7  C17 UNL     1      15.164  10.525  36.755  0.00  0.00    +0.133 C 
ENDROOT
BRANCH   1  11
ATOM      8  C1  UNL     1       9.190  14.971  35.541  0.00  0.00    +0.053 C 
ATOM      9  C2  UNL     1      10.317  14.029  35.290  0.00  0.00    +0.007 A 
ATOM     10  C3  UNL     1      10.924  13.183  36.208  0.00  0.00    +0.045 A 
ATOM     11  C4  UNL     1      12.048  12.505  35.677  0.00  0.00    +0.135 A 
ATOM     12  N4  UNL     1      12.381  12.820  34.396  0.00  0.00    -0.206 NA
ATOM     13  S1  UNL     1      11.244  13.930  33.912  0.00  0.00    +0.007 S 
ENDBRANCH   1  11
BRANCH   6  14
ATOM     14  N2  UNL     1      17.644  10.352  36.588  0.00  0.00    -0.303 N 
ATOM     15  C9  UNL     1      18.607   9.679  37.415  0.00  0.00    +0.261 C 
ATOM     16  O3  UNL     1      18.417   9.594  38.659  0.00  0.00    -0.269 OA
ATOM     17  H10 UNL     1      17.715  10.247  35.552  0.00  0.00    +0.149 HD
BRANCH  15  18
ATOM     18  C10 UNL     1      19.814   9.065  36.828  0.00  0.00    +0.102 A 
ATOM     19  C11 UNL     1      19.924   8.645  35.501  0.00  0.00    +0.036 A 
ATOM     20  C12 UNL     1      21.165   8.053  35.430  0.00  0.00    -0.026 A 
ATOM     21  C13 UNL     1      21.720   8.106  36.644  0.00  0.00    +0.020 A 
ATOM     22  N3  UNL     1      20.912   8.699  37.537  0.00  0.00    -0.354 N 
ATOM     23  C14 UNL     1      22.781   7.103  36.850  0.00  0.00    +0.054 C 
ATOM     24  C15 UNL     1      22.911   6.467  35.440  0.00  0.00    +0.011 C 
ATOM     25  C16 UNL     1      21.749   7.011  34.567  0.00  0.00    +0.037 C 
ATOM     26  H12 UNL     1      21.051   8.734  38.570  0.00  0.00    +0.166 HD
ENDBRANCH  15  18
ENDBRANCH   6  14
BRANCH   5  27
ATOM     27  O2  UNL     1      17.213  13.433  37.498  0.00  0.00    -0.388 OA
ATOM     28  H8  UNL     1      16.651  14.238  37.646  0.00  0.00    +0.210 HD
ENDBRANCH   5  27
TORSDOF 4
ENDMDL
MODEL 2
REMARK VINA RESULT:    -6.245      2.051      2.239
REMARK INTER + INTRA:          -7.943
REMARK INTER:                  -7.336
REMARK INTRA:                  -0.607
REMARK UNBOUND:                -0.420
REMARK  Name = /home/qwerty/github/datacon2025hack/step_04_hit_selection/docking/ligands/lig_310.pdb
REMARK  5 active torsions:
REMARK  status: ('A' for Active; 'I' for Inactive)
REMARK    1  A    between atoms: C1_1  and  C2_2
REMARK    2  A    between atoms: C4_4  and  C5_5
REMARK    3  A    between atoms: C7_9  and  O2_10
REMARK    4  A    between atoms: C8_11  and  N2_12
REMARK    5  A    between atoms: C9_13  and  C10_15
REMARK                            x       y       z     vdW  Elec       q    Type
REMARK                         _______ _______ _______ _____ _____    ______ ____
ROOT
ATOM      1  C5  UNL     1      13.684  11.879  34.465  0.00  0.00    +0.266 C 
ATOM      2  O1  UNL     1      12.836  10.994  34.756  0.00  0.00    -0.268 OA
ATOM      3  N1  UNL     1      15.024  11.777  34.978  0.00  0.00    -0.292 N 
ATOM      4  C6  UNL     1      15.781  12.914  35.475  0.00  0.00    +0.141 C 
ATOM      5  C7  UNL     1      17.090  12.328  36.005  0.00  0.00    +0.153 C 
ATOM      6  C8  UNL     1      16.809  10.835  36.247  0.00  0.00    +0.121 C 
ATOM      7  C17 UNL     1      15.633  10.500  35.322  0.00  0.00    +0.133 C 
ENDROOT
BRANCH   1  11
ATOM      8  C1  UNL     1      13.487  14.792  30.290  0.00  0.00    +0.053 C 
ATOM      9  C2  UNL     1      13.241  14.334  31.687  0.00  0.00    +0.007 A 
ATOM     10  C3  UNL     1      13.804  13.234  32.320  0.00  0.00    +0.045 A 
ATOM     11  C4  UNL     1      13.267  13.003  33.609  0.00  0.00    +0.135 A 
ATOM     12  N4  UNL     1      12.269  13.843  33.996  0.00  0.00    -0.206 NA
ATOM     13  S1  UNL     1      12.078  14.903  32.732  0.00  0.00    +0.007 S 
ENDBRANCH   1  11
BRANCH   6  14
ATOM     14  N2  UNL     1      17.992  10.015  35.961  0.00  0.00    -0.303 N 
ATOM     15  C9  UNL     1      18.980   9.737  36.966  0.00  0.00    +0.261 C 
ATOM     16  O3  UNL     1      18.770  10.070  38.164  0.00  0.00    -0.269 OA
ATOM     17  H10 UNL     1      18.093   9.567  35.024  0.00  0.00    +0.149 HD
BRANCH  15  18
ATOM     18  C10 UNL     1      20.240   9.049  36.621  0.00  0.00    +0.102 A 
ATOM     19  C11 UNL     1      20.623   8.701  35.324  0.00  0.00    +0.036 A 
ATOM     20  C12 UNL     1      21.797   8.001  35.491  0.00  0.00    -0.026 A 
ATOM     21  C13 UNL     1      22.056   7.928  36.799  0.00  0.00    +0.020 A 
ATOM     22  N3  UNL     1      21.111   8.540  37.529  0.00  0.00    -0.354 N 
ATOM     23  C14 UNL     1      22.959   6.820  37.159  0.00  0.00    +0.054 C 
ATOM     24  C15 UNL     1      23.365   6.260  35.770  0.00  0.00    +0.011 C 
ATOM     25  C16 UNL     1      22.483   6.962  34.702  0.00  0.00    +0.037 C 
ATOM     26  H12 UNL     1      21.008   8.500  38.566  0.00  0.00    +0.166 HD
ENDBRANCH  15  18
ENDBRANCH   6  14
BRANCH   5  27
ATOM     27  O2  UNL     1      17.533  12.988  37.167  0.00  0.00    -0.388 OA
ATOM     28  H8  UNL     1      17.152  12.514  37.952  0.00  0.00    +0.210 HD
ENDBRANCH   5  27
TORSDOF 4
ENDMDL
MODEL 3
REMARK VINA RESULT:    -6.231      2.287      3.024
REMARK INTER + INTRA:          -7.926
REMARK INTER:                  -7.419
REMARK INTRA:                  -0.507
REMARK UNBOUND:                -0.420
REMARK  Name = /home/qwerty/github/datacon2025hack/step_04_hit_selection/docking/ligands/lig_310.pdb
REMARK  5 active torsions:
REMARK  status: ('A' for Active; 'I' for Inactive)
REMARK    1  A    between atoms: C1_1  and  C2_2
REMARK    2  A    between atoms: C4_4  and  C5_5
REMARK    3  A    between atoms: C7_9  and  O2_10
REMARK    4  A    between atoms: C8_11  and  N2_12
REMARK    5  A    between atoms: C9_13  and  C10_15
REMARK                            x       y       z     vdW  Elec       q    Type
REMARK                         _______ _______ _______ _____ _____    ______ ____
ROOT
ATOM      1  C5  UNL     1      15.344  11.288  36.062  0.00  0.00    +0.266 C 
ATOM      2  O1  UNL     1      14.705  10.284  36.473  0.00  0.00    -0.268 OA
ATOM      3  N1  UNL     1      16.781  11.240  36.002  0.00  0.00    -0.292 N 
ATOM      4  C6  UNL     1      17.637  12.350  36.387  0.00  0.00    +0.141 C 
ATOM      5  C7  UNL     1      19.066  11.821  36.260  0.00  0.00    +0.153 C 
ATOM      6  C8  UNL     1      18.947  10.288  36.295  0.00  0.00    +0.121 C 
ATOM      7  C17 UNL     1      17.514   9.993  35.835  0.00  0.00    +0.133 C 
ENDROOT
BRANCH   1  11
ATOM      8  C1  UNL     1      12.819  14.443  32.960  0.00  0.00    +0.053 C 
ATOM      9  C2  UNL     1      13.479  13.927  34.193  0.00  0.00    +0.007 A 
ATOM     10  C3  UNL     1      14.201  12.749  34.328  0.00  0.00    +0.045 A 
ATOM     11  C4  UNL     1      14.593  12.490  35.663  0.00  0.00    +0.135 A 
ATOM     12  N4  UNL     1      14.166  13.388  36.592  0.00  0.00    -0.206 NA
ATOM     13  S1  UNL     1      13.319  14.531  35.734  0.00  0.00    +0.007 S 
ENDBRANCH   1  11
BRANCH   6  14
ATOM     14  N2  UNL     1      19.949   9.653  35.430  0.00  0.00    -0.303 N 
ATOM     15  C9  UNL     1      21.017   8.857  35.970  0.00  0.00    +0.261 C 
ATOM     16  O3  UNL     1      21.023   8.561  37.195  0.00  0.00    -0.269 OA
ATOM     17  H10 UNL     1      19.855   9.726  34.394  0.00  0.00    +0.149 HD
BRANCH  15  18
ATOM     18  C10 UNL     1      22.105   8.362  35.104  0.00  0.00    +0.102 A 
ATOM     19  C11 UNL     1      22.068   8.359  33.708  0.00  0.00    +0.036 A 
ATOM     20  C12 UNL     1      23.232   7.725  33.336  0.00  0.00    -0.026 A 
ATOM     21  C13 UNL     1      23.882   7.363  34.446  0.00  0.00    +0.020 A 
ATOM     22  N3  UNL     1      23.211   7.716  35.553  0.00  0.00    -0.354 N 
ATOM     23  C14 UNL     1      24.846   6.269  34.232  0.00  0.00    +0.054 C 
ATOM     24  C15 UNL     1      24.801   6.084  32.692  0.00  0.00    +0.011 C 
ATOM     25  C16 UNL     1      23.637   6.954  32.146  0.00  0.00    +0.037 C 
ATOM     26  H12 UNL     1      23.432   7.424  36.530  0.00  0.00    +0.166 HD
ENDBRANCH  15  18
ENDBRANCH   6  14
BRANCH   5  27
ATOM     27  O2  UNL     1      19.907  12.319  37.273  0.00  0.00    -0.388 OA
ATOM     28  H8  UNL     1      19.356  12.457  38.088  0.00  0.00    +0.210 HD
ENDBRANCH   5  27
TORSDOF 4
ENDMDL
MODEL 4
REMARK VINA RESULT:    -6.171      3.543      9.605
REMARK INTER + INTRA:          -7.853
REMARK INTER:                  -7.298
REMARK INTRA:                  -0.556
REMARK UNBOUND:                -0.420
REMARK  Name = /home/qwerty/github/datacon2025hack/step_04_hit_selection/docking/ligands/lig_310.pdb
REMARK  5 active torsions:
REMARK  status: ('A' for Active; 'I' for Inactive)
REMARK    1  A    between atoms: C1_1  and  C2_2
REMARK    2  A    between atoms: C4_4  and  C5_5
REMARK    3  A    between atoms: C7_9  and  O2_10
REMARK    4  A    between atoms: C8_11  and  N2_12
REMARK    5  A    between atoms: C9_13  and  C10_15
REMARK                            x       y       z     vdW  Elec       q    Type
REMARK                         _______ _______ _______ _____ _____    ______ ____
ROOT
ATOM      1  C5  UNL     1      21.308   9.244  34.205  0.00  0.00    +0.266 C 
ATOM      2  O1  UNL     1      21.686  10.075  33.336  0.00  0.00    -0.268 OA
ATOM      3  N1  UNL     1      20.192   9.564  35.054  0.00  0.00    -0.292 N 
ATOM      4  C6  UNL     1      20.151   9.257  36.475  0.00  0.00    +0.141 C 
ATOM      5  C7  UNL     1      18.842   9.861  36.983  0.00  0.00    +0.153 C 
ATOM      6  C8  UNL     1      18.439  10.916  35.939  0.00  0.00    +0.121 C 
ATOM      7  C17 UNL     1      19.135  10.478  34.645  0.00  0.00    +0.133 C 
ENDROOT
BRANCH   1  11
ATOM      8  C1  UNL     1      22.681   4.481  33.032  0.00  0.00    +0.053 C 
ATOM      9  C2  UNL     1      22.601   5.768  33.778  0.00  0.00    +0.007 A 
ATOM     10  C3  UNL     1      21.777   6.850  33.500  0.00  0.00    +0.045 A 
ATOM     11  C4  UNL     1      22.034   7.969  34.328  0.00  0.00    +0.135 A 
ATOM     12  N4  UNL     1      23.059   7.831  35.211  0.00  0.00    -0.206 NA
ATOM     13  S1  UNL     1      23.629   6.288  34.979  0.00  0.00    +0.007 S 
ENDBRANCH   1  11
BRANCH   6  14
ATOM     14  N2  UNL     1      16.981  10.990  35.787  0.00  0.00    -0.303 N 
ATOM     15  C9  UNL     1      16.173  11.818  36.640  0.00  0.00    +0.261 C 
ATOM     16  O3  UNL     1      16.723  12.620  37.442  0.00  0.00    -0.269 OA
ATOM     17  H10 UNL     1      16.519  10.479  35.003  0.00  0.00    +0.149 HD
BRANCH  15  18
ATOM     18  C10 UNL     1      14.699  11.756  36.581  0.00  0.00    +0.102 A 
ATOM     19  C11 UNL     1      13.887  12.734  36.002  0.00  0.00    +0.036 A 
ATOM     20  C12 UNL     1      12.603  12.313  36.266  0.00  0.00    -0.026 A 
ATOM     21  C13 UNL     1      12.673  11.182  36.973  0.00  0.00    +0.020 A 
ATOM     22  N3  UNL     1      13.944  10.818  37.207  0.00  0.00    -0.354 N 
ATOM     23  C14 UNL     1      11.450  10.893  37.743  0.00  0.00    +0.054 C 
ATOM     24  C15 UNL     1      10.489  12.014  37.268  0.00  0.00    +0.011 C 
ATOM     25  C16 UNL     1      11.312  13.010  36.407  0.00  0.00    +0.037 C 
ATOM     26  H12 UNL     1      14.262  10.062  37.851  0.00  0.00    +0.166 HD
ENDBRANCH  15  18
ENDBRANCH   6  14
BRANCH   5  27
ATOM     27  O2  UNL     1      18.975  10.404  38.274  0.00  0.00    -0.388 OA
ATOM     28  H8  UNL     1      19.366   9.706  38.862  0.00  0.00    +0.210 HD
ENDBRANCH   5  27
TORSDOF 4
ENDMDL
MODEL 5
REMARK VINA RESULT:    -6.158     15.519     16.745
REMARK INTER + INTRA:          -7.838
REMARK INTER:                  -7.375
REMARK INTRA:                  -0.463
REMARK UNBOUND:                -0.420
REMARK  Name = /home/qwerty/github/datacon2025hack/step_04_hit_selection/docking/ligands/lig_310.pdb
REMARK  5 active torsions:
REMARK  status: ('A' for Active; 'I' for Inactive)
REMARK    1  A    between atoms: C1_1  and  C2_2
REMARK    2  A    between atoms: C4_4  and  C5_5
REMARK    3  A    between atoms: C7_9  and  O2_10
REMARK    4  A    between atoms: C8_11  and  N2_12
REMARK    5  A    between atoms: C9_13  and  C10_15
REMARK                            x       y       z     vdW  Elec       q    Type
REMARK                         _______ _______ _______ _____ _____    ______ ____
ROOT
ATOM      1  C5  UNL     1      10.441   8.805  22.015  0.00  0.00    +0.266 C 
ATOM      2  O1  UNL     1      11.308   9.590  21.547  0.00  0.00    -0.268 OA
ATOM      3  N1  UNL     1      10.478   7.412  21.659  0.00  0.00    -0.292 N 
ATOM      4  C6  UNL     1       9.289   6.629  21.360  0.00  0.00    +0.141 C 
ATOM      5  C7  UNL     1       9.806   5.253  20.939  0.00  0.00    +0.153 C 
ATOM      6  C8  UNL     1      11.274   5.467  20.533  0.00  0.00    +0.121 C 
ATOM      7  C17 UNL     1      11.709   6.735  21.277  0.00  0.00    +0.133 C 
ENDROOT
BRANCH   1  11
ATOM      8  C1  UNL     1       8.373  10.400  26.389  0.00  0.00    +0.053 C 
ATOM      9  C2  UNL     1       8.485  10.029  24.950  0.00  0.00    +0.007 A 
ATOM     10  C3  UNL     1       9.581   9.464  24.312  0.00  0.00    +0.045 A 
ATOM     11  C4  UNL     1       9.407   9.347  22.912  0.00  0.00    +0.135 A 
ATOM     12  N4  UNL     1       8.241   9.843  22.415  0.00  0.00    -0.206 NA
ATOM     13  S1  UNL     1       7.407  10.402  23.738  0.00  0.00    +0.007 S 
ENDBRANCH   1  11
BRANCH   6  14
ATOM     14  N2  UNL     1      12.101   4.306  20.884  0.00  0.00    -0.303 N 
ATOM     15  C9  UNL     1      13.089   3.782  19.981  0.00  0.00    +0.261 C 
ATOM     16  O3  UNL     1      13.371   4.409  18.925  0.00  0.00    -0.269 OA
ATOM     17  H10 UNL     1      12.019   3.884  21.834  0.00  0.00    +0.149 HD
BRANCH  15  18
ATOM     18  C10 UNL     1      13.796   2.521  20.281  0.00  0.00    +0.102 A 
ATOM     19  C11 UNL     1      13.618   1.770  21.444  0.00  0.00    +0.036 A 
ATOM     20  C12 UNL     1      14.540   0.753  21.339  0.00  0.00    -0.026 A 
ATOM     21  C13 UNL     1      15.221   0.925  20.203  0.00  0.00    +0.020 A 
ATOM     22  N3  UNL     1      14.810   2.014  19.535  0.00  0.00    -0.354 N 
ATOM     23  C14 UNL     1      16.532   0.249  20.196  0.00  0.00    +0.054 C 
ATOM     24  C15 UNL     1      16.504  -0.540  21.531  0.00  0.00    +0.011 C 
ATOM     25  C16 UNL     1      15.249  -0.084  22.324  0.00  0.00    +0.037 C 
ATOM     26  H12 UNL     1      15.274   2.441  18.705  0.00  0.00    +0.166 HD
ENDBRANCH  15  18
ENDBRANCH   6  14
BRANCH   5  27
ATOM     27  O2  UNL     1       9.037   4.693  19.903  0.00  0.00    -0.388 OA
ATOM     28  H8  UNL     1       8.250   5.280  19.753  0.00  0.00    +0.210 HD
ENDBRANCH   5  27
TORSDOF 4
ENDMDL
MODEL 6
REMARK VINA RESULT:    -6.149     15.471     16.534
REMARK INTER + INTRA:          -7.827
REMARK INTER:                  -7.329
REMARK INTRA:                  -0.498
REMARK UNBOUND:                -0.420
REMARK  Name = /home/qwerty/github/datacon2025hack/step_04_hit_selection/docking/ligands/lig_310.pdb
REMARK  5 active torsions:
REMARK  status: ('A' for Active; 'I' for Inactive)
REMARK    1  A    between atoms: C1_1  and  C2_2
REMARK    2  A    between atoms: C4_4  and  C5_5
REMARK    3  A    between atoms: C7_9  and  O2_10
REMARK    4  A    between atoms: C8_11  and  N2_12
REMARK    5  A    between atoms: C9_13  and  C10_15
REMARK                            x       y       z     vdW  Elec       q    Type
REMARK                         _______ _______ _______ _____ _____    ______ ____
ROOT
ATOM      1  C5  UNL     1      10.946   6.113  21.232  0.00  0.00    +0.266 C 
ATOM      2  O1  UNL     1      11.679   6.412  20.252  0.00  0.00    -0.268 OA
ATOM      3  N1  UNL     1      10.980   4.776  21.763  0.00  0.00    -0.292 N 
ATOM      4  C6  UNL     1       9.793   4.052  22.189  0.00  0.00    +0.141 C 
ATOM      5  C7  UNL     1      10.287   2.658  22.578  0.00  0.00    +0.153 C 
ATOM      6  C8  UNL     1      11.648   2.491  21.880  0.00  0.00    +0.121 C 
ATOM      7  C17 UNL     1      12.152   3.920  21.649  0.00  0.00    +0.133 C 
ENDROOT
BRANCH   1  11
ATOM      8  C1  UNL     1       9.409   9.709  24.496  0.00  0.00    +0.053 C 
ATOM      9  C2  UNL     1       9.380   8.761  23.346  0.00  0.00    +0.007 A 
ATOM     10  C3  UNL     1      10.332   7.803  23.025  0.00  0.00    +0.045 A 
ATOM     11  C4  UNL     1      10.066   7.148  21.798  0.00  0.00    +0.135 A 
ATOM     12  N4  UNL     1       8.974   7.587  21.116  0.00  0.00    -0.206 NA
ATOM     13  S1  UNL     1       8.316   8.779  22.067  0.00  0.00    +0.007 S 
ENDBRANCH   1  11
BRANCH   6  14
ATOM     14  N2  UNL     1      12.576   1.701  22.699  0.00  0.00    -0.303 N 
ATOM     15  C9  UNL     1      13.518   0.791  22.108  0.00  0.00    +0.261 C 
ATOM     16  O3  UNL     1      13.671   0.769  20.857  0.00  0.00    -0.269 OA
ATOM     17  H10 UNL     1      12.599   1.843  23.732  0.00  0.00    +0.149 HD
BRANCH  15  18
ATOM     18  C10 UNL     1      14.328  -0.113  22.949  0.00  0.00    +0.102 A 
ATOM     19  C11 UNL     1      14.532   0.051  24.321  0.00  0.00    +0.036 A 
ATOM     20  C12 UNL     1      15.418  -0.948  24.657  0.00  0.00    -0.026 A 
ATOM     21  C13 UNL     1      15.723  -1.624  23.546  0.00  0.00    +0.020 A 
ATOM     22  N3  UNL     1      15.092  -1.127  22.471  0.00  0.00    -0.354 N 
ATOM     23  C14 UNL     1      16.996  -2.362  23.638  0.00  0.00    +0.054 C 
ATOM     24  C15 UNL     1      17.396  -2.146  25.122  0.00  0.00    +0.011 C 
ATOM     25  C16 UNL     1      16.419  -1.104  25.728  0.00  0.00    +0.037 C 
ATOM     26  H12 UNL     1      15.271  -1.383  21.476  0.00  0.00    +0.166 HD
ENDBRANCH  15  18
ENDBRANCH   6  14
BRANCH   5  27
ATOM     27  O2  UNL     1       9.371   1.653  22.218  0.00  0.00    -0.388 OA
ATOM     28  H8  UNL     1       9.343   0.986  22.953  0.00  0.00    +0.210 HD
ENDBRANCH   5  27
TORSDOF 4
ENDMDL
MODEL 7
REMARK VINA RESULT:    -6.121     13.801     16.086
REMARK INTER + INTRA:          -7.794
REMARK INTER:                  -7.148
REMARK INTRA:                  -0.646
REMARK UNBOUND:                -0.420
REMARK  Name = /home/qwerty/github/datacon2025hack/step_04_hit_selection/docking/ligands/lig_310.pdb
REMARK  5 active torsions:
REMARK  status: ('A' for Active; 'I' for Inactive)
REMARK    1  A    between atoms: C1_1  and  C2_2
REMARK    2  A    between atoms: C4_4  and  C5_5
REMARK    3  A    between atoms: C7_9  and  O2_10
REMARK    4  A    between atoms: C8_11  and  N2_12
REMARK    5  A    between atoms: C9_13  and  C10_15
REMARK                            x       y       z     vdW  Elec       q    Type
REMARK                         _______ _______ _______ _____ _____    ______ ____
ROOT
ATOM      1  C5  UNL     1      23.441   9.651  19.888  0.00  0.00    +0.266 C 
ATOM      2  O1  UNL     1      24.333   9.150  19.152  0.00  0.00    -0.268 OA
ATOM      3  N1  UNL     1      22.755   8.819  20.839  0.00  0.00    -0.292 N 
ATOM      4  C6  UNL     1      21.325   8.903  21.095  0.00  0.00    +0.141 C 
ATOM      5  C7  UNL     1      21.025   7.779  22.087  0.00  0.00    +0.153 C 
ATOM      6  C8  UNL     1      22.198   6.792  21.965  0.00  0.00    +0.121 C 
ATOM      7  C17 UNL     1      23.361   7.626  21.414  0.00  0.00    +0.133 C 
ENDROOT
BRANCH   1  11
ATOM      8  C1  UNL     1      23.649  14.643  20.882  0.00  0.00    +0.053 C 
ATOM      9  C2  UNL     1      23.218  13.359  20.260  0.00  0.00    +0.007 A 
ATOM     10  C3  UNL     1      23.627  12.079  20.608  0.00  0.00    +0.045 A 
ATOM     11  C4  UNL     1      23.123  11.081  19.740  0.00  0.00    +0.135 A 
ATOM     12  N4  UNL     1      22.377  11.527  18.694  0.00  0.00    -0.206 NA
ATOM     13  S1  UNL     1      22.318  13.177  18.872  0.00  0.00    +0.007 S 
ENDBRANCH   1  11
BRANCH   6  14
ATOM     14  N2  UNL     1      22.519   6.178  23.259  0.00  0.00    -0.303 N 
ATOM     15  C9  UNL     1      21.757   5.079  23.783  0.00  0.00    +0.261 C 
ATOM     16  O3  UNL     1      20.887   4.517  23.065  0.00  0.00    -0.269 OA
ATOM     17  H10 UNL     1      23.357   6.503  23.788  0.00  0.00    +0.149 HD
BRANCH  15  18
ATOM     18  C10 UNL     1      21.989   4.581  25.154  0.00  0.00    +0.102 A 
ATOM     19  C11 UNL     1      22.527   3.330  25.462  0.00  0.00    +0.036 A 
ATOM     20  C12 UNL     1      22.466   3.260  26.836  0.00  0.00    -0.026 A 
ATOM     21  C13 UNL     1      21.903   4.386  27.285  0.00  0.00    +0.020 A 
ATOM     22  N3  UNL     1      21.575   5.214  26.281  0.00  0.00    -0.354 N 
ATOM     23  C14 UNL     1      21.319   4.255  28.632  0.00  0.00    +0.054 C 
ATOM     24  C15 UNL     1      21.754   2.823  29.042  0.00  0.00    +0.011 C 
ATOM     25  C16 UNL     1      22.384   2.145  27.796  0.00  0.00    +0.037 C 
ATOM     26  H12 UNL     1      21.000   6.080  26.357  0.00  0.00    +0.166 HD
ENDBRANCH  15  18
ENDBRANCH   6  14
BRANCH   5  27
ATOM     27  O2  UNL     1      19.781   7.171  21.837  0.00  0.00    -0.388 OA
ATOM     28  H8  UNL     1      19.825   6.236  22.166  0.00  0.00    +0.210 HD
ENDBRANCH   5  27
TORSDOF 4
ENDMDL
MODEL 8
REMARK VINA RESULT:    -5.906      6.047     10.851
REMARK INTER + INTRA:          -7.534
REMARK INTER:                  -6.952
REMARK INTRA:                  -0.582
REMARK UNBOUND:                -0.420
REMARK  Name = /home/qwerty/github/datacon2025hack/step_04_hit_selection/docking/ligands/lig_310.pdb
REMARK  5 active torsions:
REMARK  status: ('A' for Active; 'I' for Inactive)
REMARK    1  A    between atoms: C1_1  and  C2_2
REMARK    2  A    between atoms: C4_4  and  C5_5
REMARK    3  A    between atoms: C7_9  and  O2_10
REMARK    4  A    between atoms: C8_11  and  N2_12
REMARK    5  A    between atoms: C9_13  and  C10_15
REMARK                            x       y       z     vdW  Elec       q    Type
REMARK                         _______ _______ _______ _____ _____    ______ ____
ROOT
ATOM      1  C5  UNL     1      21.507   4.319  30.463  0.00  0.00    +0.266 C 
ATOM      2  O1  UNL     1      21.679   5.011  29.424  0.00  0.00    -0.268 OA
ATOM      3  N1  UNL     1      21.505   4.961  31.751  0.00  0.00    -0.292 N 
ATOM      4  C6  UNL     1      22.143   4.396  32.929  0.00  0.00    +0.141 C 
ATOM      5  C7  UNL     1      21.980   5.451  34.023  0.00  0.00    +0.153 C 
ATOM      6  C8  UNL     1      21.702   6.773  33.287  0.00  0.00    +0.121 C 
ATOM      7  C17 UNL     1      21.127   6.356  31.929  0.00  0.00    +0.133 C 
ENDROOT
BRANCH   1  11
ATOM      8  C1  UNL     1      22.556  -0.433  28.958  0.00  0.00    +0.053 C 
ATOM      9  C2  UNL     1      21.820   0.707  29.573  0.00  0.00    +0.007 A 
ATOM     10  C3  UNL     1      22.168   2.050  29.534  0.00  0.00    +0.045 A 
ATOM     11  C4  UNL     1      21.322   2.865  30.323  0.00  0.00    +0.135 A 
ATOM     12  N4  UNL     1      20.354   2.214  31.022  0.00  0.00    -0.206 NA
ATOM     13  S1  UNL     1      20.536   0.611  30.626  0.00  0.00    +0.007 S 
ENDBRANCH   1  11
BRANCH   6  14
ATOM     14  N2  UNL     1      20.776   7.623  34.045  0.00  0.00    -0.303 N 
ATOM     15  C9  UNL     1      21.220   8.428  35.149  0.00  0.00    +0.261 C 
ATOM     16  O3  UNL     1      22.452   8.536  35.393  0.00  0.00    -0.269 OA
ATOM     17  H10 UNL     1      19.781   7.698  33.740  0.00  0.00    +0.149 HD
BRANCH  15  18
ATOM     18  C10 UNL     1      20.251   9.149  35.999  0.00  0.00    +0.102 A 
ATOM     19  C11 UNL     1      19.643   8.614  37.137  0.00  0.00    +0.036 A 
ATOM     20  C12 UNL     1      18.757   9.587  37.541  0.00  0.00    -0.026 A 
ATOM     21  C13 UNL     1      18.831  10.602  36.676  0.00  0.00    +0.020 A 
ATOM     22  N3  UNL     1      19.722  10.362  35.701  0.00  0.00    -0.354 N 
ATOM     23  C14 UNL     1      17.633  11.460  36.671  0.00  0.00    +0.054 C 
ATOM     24  C15 UNL     1      16.801  10.872  37.842  0.00  0.00    +0.011 C 
ATOM     25  C16 UNL     1      17.496   9.562  38.303  0.00  0.00    +0.037 C 
ATOM     26  H12 UNL     1      19.859  10.928  34.835  0.00  0.00    +0.166 HD
ENDBRANCH  15  18
ENDBRANCH   6  14
BRANCH   5  27
ATOM     27  O2  UNL     1      23.110   5.527  34.858  0.00  0.00    -0.388 OA
ATOM     28  H8  UNL     1      23.041   4.803  35.535  0.00  0.00    +0.210 HD
ENDBRANCH   5  27
TORSDOF 4
ENDMDL
MODEL 9
REMARK VINA RESULT:    -5.874     11.457     13.964
REMARK INTER + INTRA:          -7.497
REMARK INTER:                  -6.858
REMARK INTRA:                  -0.638
REMARK UNBOUND:                -0.420
REMARK  Name = /home/qwerty/github/datacon2025hack/step_04_hit_selection/docking/ligands/lig_310.pdb
REMARK  5 active torsions:
REMARK  status: ('A' for Active; 'I' for Inactive)
REMARK    1  A    between atoms: C1_1  and  C2_2
REMARK    2  A    between atoms: C4_4  and  C5_5
REMARK    3  A    between atoms: C7_9  and  O2_10
REMARK    4  A    between atoms: C8_11  and  N2_12
REMARK    5  A    between atoms: C9_13  and  C10_15
REMARK                            x       y       z     vdW  Elec       q    Type
REMARK                         _______ _______ _______ _____ _____    ______ ____
ROOT
ATOM      1  C5  UNL     1      22.137   5.062  24.895  0.00  0.00    +0.266 C 
ATOM      2  O1  UNL     1      23.286   5.551  25.060  0.00  0.00    -0.268 OA
ATOM      3  N1  UNL     1      21.672   4.027  25.780  0.00  0.00    -0.292 N 
ATOM      4  C6  UNL     1      20.921   2.865  25.329  0.00  0.00    +0.141 C 
ATOM      5  C7  UNL     1      20.733   1.998  26.575  0.00  0.00    +0.153 C 
ATOM      6  C8  UNL     1      21.814   2.457  27.568  0.00  0.00    +0.121 C 
ATOM      7  C17 UNL     1      22.155   3.891  27.146  0.00  0.00    +0.133 C 
ENDROOT
BRANCH   1  11
ATOM      8  C1  UNL     1      20.797   6.001  20.071  0.00  0.00    +0.053 C 
ATOM      9  C2  UNL     1      20.753   6.012  21.561  0.00  0.00    +0.007 A 
ATOM     10  C3  UNL     1      21.708   5.505  22.432  0.00  0.00    +0.045 A 
ATOM     11  C4  UNL     1      21.307   5.565  23.788  0.00  0.00    +0.135 A 
ATOM     12  N4  UNL     1      20.056   6.049  24.017  0.00  0.00    -0.206 NA
ATOM     13  S1  UNL     1      19.459   6.437  22.516  0.00  0.00    +0.007 S 
ENDBRANCH   1  11
BRANCH   6  14
ATOM     14  N2  UNL     1      21.333   2.385  28.953  0.00  0.00    -0.303 N 
ATOM     15  C9  UNL     1      21.381   1.163  29.707  0.00  0.00    +0.261 C 
ATOM     16  O3  UNL     1      21.983   0.159  29.240  0.00  0.00    -0.269 OA
ATOM     17  H10 UNL     1      21.005   3.254  29.429  0.00  0.00    +0.149 HD
BRANCH  15  18
ATOM     18  C10 UNL     1      20.747   1.068  31.037  0.00  0.00    +0.102 A 
ATOM     19  C11 UNL     1      19.618   0.299  31.324  0.00  0.00    +0.036 A 
ATOM     20  C12 UNL     1      19.329   0.591  32.638  0.00  0.00    -0.026 A 
ATOM     21  C13 UNL     1      20.217   1.491  33.069  0.00  0.00    +0.020 A 
ATOM     22  N3  UNL     1      21.092   1.827  32.108  0.00  0.00    -0.354 N 
ATOM     23  C14 UNL     1      19.755   2.260  34.239  0.00  0.00    +0.054 C 
ATOM     24  C15 UNL     1      18.413   1.562  34.584  0.00  0.00    +0.011 C 
ATOM     25  C16 UNL     1      18.092   0.564  33.439  0.00  0.00    +0.037 C 
ATOM     26  H12 UNL     1      21.785   2.606  32.148  0.00  0.00    +0.166 HD
ENDBRANCH  15  18
ENDBRANCH   6  14
BRANCH   5  27
ATOM     27  O2  UNL     1      20.820   0.625  26.281  0.00  0.00    -0.388 OA
ATOM     28  H8  UNL     1      21.779   0.395  26.168  0.00  0.00    +0.210 HD
ENDBRANCH   5  27
TORSDOF 4
ENDMDL
