MODEL 1
REMARK VINA RESULT:    -6.502      0.000      0.000
REMARK INTER + INTRA:          -9.150
REMARK INTER:                  -8.023
REMARK INTRA:                  -1.128
REMARK UNBOUND:                -1.128
REMARK  Name = /home/qwerty/github/datacon2025hack/step_04_hit_selection/docking/ligands/lig_405.pdb
REMARK  5 active torsions:
REMARK  status: ('A' for Active; 'I' for Inactive)
REMARK    1  A    between atoms: C1_1  and  N1_2
REMARK    2  A    between atoms: C4_5  and  C5_6
REMARK    3  A    between atoms: N2_8  and  C6_9
REMARK    4  A    between atoms: C6_9  and  C7_10
REMARK    5  A    between atoms: C12_16  and  C13_18
REMARK                            x       y       z     vdW  Elec       q    Type
REMARK                         _______ _______ _______ _____ _____    ______ ____
ROOT
ATOM      1  C7  UNL     1      19.372   1.026  29.430  0.00  0.00    +0.093 C 
ATOM      2  C8  UNL     1      18.717   0.977  30.834  0.00  0.00    +0.024 C 
ATOM      3  C9  UNL     1      19.707   0.462  31.881  0.00  0.00    +0.003 C 
ATOM      4  C10 UNL     1      20.906   1.417  32.018  0.00  0.00    +0.019 C 
ATOM      5  C11 UNL     1      21.345   2.030  30.672  0.00  0.00    +0.108 C 
ATOM      6  N3  UNL     1      20.826   1.253  29.537  0.00  0.00    -0.293 N 
ATOM      7  C12 UNL     1      21.709   0.783  28.498  0.00  0.00    +0.248 C 
ATOM      8  O2  UNL     1      21.367   0.894  27.290  0.00  0.00    -0.270 OA
ENDROOT
BRANCH   7   9
ATOM      9  C13 UNL     1      23.000   0.142  28.812  0.00  0.00    +0.054 A 
ATOM     10  C14 UNL     1      23.271  -1.213  28.850  0.00  0.00    +0.032 A 
ATOM     11  C15 UNL     1      24.618  -1.328  29.126  0.00  0.00    +0.083 A 
ATOM     12  N4  UNL     1      25.172  -0.108  29.245  0.00  0.00    -0.366 N 
ATOM     13  C16 UNL     1      24.195   0.795  29.047  0.00  0.00    +0.095 A 
ATOM     14  H23 UNL     1      26.176   0.101  29.442  0.00  0.00    +0.165 HD
ENDBRANCH   7   9
BRANCH   1  15
ATOM     15  C6  UNL     1      18.718   2.110  28.552  0.00  0.00    +0.126 C 
BRANCH  15  18
ATOM     16  C5  UNL     1      17.173   1.217  26.729  0.00  0.00    +0.225 C 
ATOM     17  O1  UNL     1      16.157   1.388  27.457  0.00  0.00    -0.275 OA
ATOM     18  N2  UNL     1      18.476   1.599  27.202  0.00  0.00    -0.313 N 
ATOM     19  H9  UNL     1      19.306   1.435  26.589  0.00  0.00    +0.149 HD
BRANCH  16  24
ATOM     20  C1  UNL     1      17.986  -3.057  24.925  0.00  0.00    +0.132 C 
ATOM     21  N1  UNL     1      17.305  -1.774  25.040  0.00  0.00    -0.304 N 
ATOM     22  C2  UNL     1      15.866  -1.605  25.138  0.00  0.00    +0.108 C 
ATOM     23  C3  UNL     1      15.623  -0.083  25.208  0.00  0.00    +0.041 C 
ATOM     24  C4  UNL     1      17.002   0.595  25.368  0.00  0.00    +0.162 C 
ATOM     25  C17 UNL     1      17.951  -0.525  25.175  0.00  0.00    +0.227 C 
ATOM     26  O3  UNL     1      19.203  -0.389  25.133  0.00  0.00    -0.275 OA
ENDBRANCH  16  24
ENDBRANCH  15  18
ENDBRANCH   1  15
TORSDOF 4
ENDMDL
MODEL 2
REMARK VINA RESULT:    -6.269      4.162      7.586
REMARK INTER + INTRA:          -8.862
REMARK INTER:                  -7.763
REMARK INTRA:                  -1.099
REMARK UNBOUND:                -1.128
REMARK  Name = /home/qwerty/github/datacon2025hack/step_04_hit_selection/docking/ligands/lig_405.pdb
REMARK  5 active torsions:
REMARK  status: ('A' for Active; 'I' for Inactive)
REMARK    1  A    between atoms: C1_1  and  N1_2
REMARK    2  A    between atoms: C4_5  and  C5_6
REMARK    3  A    between atoms: N2_8  and  C6_9
REMARK    4  A    between atoms: C6_9  and  C7_10
REMARK    5  A    between atoms: C12_16  and  C13_18
REMARK                            x       y       z     vdW  Elec       q    Type
REMARK                         _______ _______ _______ _____ _____    ______ ____
ROOT
ATOM      1  C7  UNL     1      21.673   3.776  28.629  0.00  0.00    +0.093 C 
ATOM      2  C8  UNL     1      21.525   4.351  27.197  0.00  0.00    +0.024 C 
ATOM      3  C9  UNL     1      22.216   3.450  26.172  0.00  0.00    +0.003 C 
ATOM      4  C10 UNL     1      21.556   2.061  26.129  0.00  0.00    +0.019 C 
ATOM      5  C11 UNL     1      21.104   1.565  27.518  0.00  0.00    +0.108 C 
ATOM      6  N3  UNL     1      21.779   2.304  28.594  0.00  0.00    -0.293 N 
ATOM      7  C12 UNL     1      22.473   1.605  29.648  0.00  0.00    +0.248 C 
ATOM      8  O2  UNL     1      22.327   1.976  30.844  0.00  0.00    -0.270 OA
ENDROOT
BRANCH   7   9
ATOM      9  C13 UNL     1      23.380   0.478  29.362  0.00  0.00    +0.054 A 
ATOM     10  C14 UNL     1      23.023  -0.819  29.044  0.00  0.00    +0.032 A 
ATOM     11  C15 UNL     1      24.204  -1.494  28.804  0.00  0.00    +0.083 A 
ATOM     12  N4  UNL     1      25.251  -0.663  28.953  0.00  0.00    -0.366 N 
ATOM     13  C16 UNL     1      24.758   0.543  29.286  0.00  0.00    +0.095 A 
ATOM     14  H23 UNL     1      26.258  -0.905  28.823  0.00  0.00    +0.165 HD
ENDBRANCH   7   9
BRANCH   1  15
ATOM     15  C6  UNL     1      20.499   4.212  29.525  0.00  0.00    +0.126 C 
BRANCH  15  18
ATOM     16  C5  UNL     1      21.042   6.238  30.977  0.00  0.00    +0.225 C 
ATOM     17  O1  UNL     1      20.571   7.028  30.114  0.00  0.00    -0.275 OA
ATOM     18  N2  UNL     1      20.995   4.817  30.761  0.00  0.00    -0.313 N 
ATOM     19  H9  UNL     1      21.404   4.182  31.482  0.00  0.00    +0.149 HD
BRANCH  16  24
ATOM     20  C1  UNL     1      25.287   5.912  32.993  0.00  0.00    +0.132 C 
ATOM     21  N1  UNL     1      24.024   6.557  32.658  0.00  0.00    -0.304 N 
ATOM     22  C2  UNL     1      23.895   7.899  32.118  0.00  0.00    +0.108 C 
ATOM     23  C3  UNL     1      22.381   8.148  31.960  0.00  0.00    +0.041 C 
ATOM     24  C4  UNL     1      21.665   6.805  32.226  0.00  0.00    +0.162 C 
ATOM     25  C17 UNL     1      22.757   5.934  32.715  0.00  0.00    +0.227 C 
ATOM     26  O3  UNL     1      22.586   4.760  33.141  0.00  0.00    -0.275 OA
ENDBRANCH  16  24
ENDBRANCH  15  18
ENDBRANCH   1  15
TORSDOF 4
ENDMDL
MODEL 3
REMARK VINA RESULT:    -6.188      3.002      3.785
REMARK INTER + INTRA:          -8.763
REMARK INTER:                  -7.495
REMARK INTRA:                  -1.268
REMARK UNBOUND:                -1.128
REMARK  Name = /home/qwerty/github/datacon2025hack/step_04_hit_selection/docking/ligands/lig_405.pdb
REMARK  5 active torsions:
REMARK  status: ('A' for Active; 'I' for Inactive)
REMARK    1  A    between atoms: C1_1  and  N1_2
REMARK    2  A    between atoms: C4_5  and  C5_6
REMARK    3  A    between atoms: N2_8  and  C6_9
REMARK    4  A    between atoms: C6_9  and  C7_10
REMARK    5  A    between atoms: C12_16  and  C13_18
REMARK                            x       y       z     vdW  Elec       q    Type
REMARK                         _______ _______ _______ _____ _____    ______ ____
ROOT
ATOM      1  C7  UNL     1      19.616   1.976  29.645  0.00  0.00    +0.093 C 
ATOM      2  C8  UNL     1      18.654   1.436  30.733  0.00  0.00    +0.024 C 
ATOM      3  C9  UNL     1      19.261   0.229  31.450  0.00  0.00    +0.003 C 
ATOM      4  C10 UNL     1      20.548   0.624  32.196  0.00  0.00    +0.019 C 
ATOM      5  C11 UNL     1      21.393   1.664  31.431  0.00  0.00    +0.108 C 
ATOM      6  N3  UNL     1      21.021   1.712  30.010  0.00  0.00    -0.293 N 
ATOM      7  C12 UNL     1      22.022   1.580  28.979  0.00  0.00    +0.248 C 
ATOM      8  O2  UNL     1      21.997   2.352  27.983  0.00  0.00    -0.270 OA
ENDROOT
BRANCH   7   9
ATOM      9  C13 UNL     1      23.066   0.541  29.043  0.00  0.00    +0.054 A 
ATOM     10  C14 UNL     1      22.895  -0.823  28.889  0.00  0.00    +0.032 A 
ATOM     11  C15 UNL     1      24.156  -1.379  28.968  0.00  0.00    +0.083 A 
ATOM     12  N4  UNL     1      25.077  -0.415  29.153  0.00  0.00    -0.366 N 
ATOM     13  C16 UNL     1      24.422   0.759  29.191  0.00  0.00    +0.095 A 
ATOM     14  H23 UNL     1      26.108  -0.551  29.237  0.00  0.00    +0.165 HD
ENDBRANCH   7   9
BRANCH   1  15
ATOM     15  C6  UNL     1      19.393   3.481  29.406  0.00  0.00    +0.126 C 
BRANCH  15  18
ATOM     16  C5  UNL     1      18.689   3.658  26.960  0.00  0.00    +0.225 C 
ATOM     17  O1  UNL     1      17.518   3.274  27.232  0.00  0.00    -0.275 OA
ATOM     18  N2  UNL     1      19.659   3.824  28.009  0.00  0.00    -0.313 N 
ATOM     19  H9  UNL     1      20.627   4.129  27.760  0.00  0.00    +0.149 HD
BRANCH  16  24
ATOM     20  C1  UNL     1      22.575   5.174  24.772  0.00  0.00    +0.132 C 
ATOM     21  N1  UNL     1      21.331   4.426  24.899  0.00  0.00    -0.304 N 
ATOM     22  C2  UNL     1      21.176   3.015  24.593  0.00  0.00    +0.108 C 
ATOM     23  C3  UNL     1      19.690   2.688  24.848  0.00  0.00    +0.041 C 
ATOM     24  C4  UNL     1      19.057   3.924  25.524  0.00  0.00    +0.162 C 
ATOM     25  C17 UNL     1      20.128   4.942  25.432  0.00  0.00    +0.227 C 
ATOM     26  O3  UNL     1      19.992   6.144  25.788  0.00  0.00    -0.275 OA
ENDBRANCH  16  24
ENDBRANCH  15  18
ENDBRANCH   1  15
TORSDOF 4
ENDMDL
MODEL 4
REMARK VINA RESULT:    -6.156      3.869      6.910
REMARK INTER + INTRA:          -8.723
REMARK INTER:                  -7.929
REMARK INTRA:                  -0.794
REMARK UNBOUND:                -1.128
REMARK  Name = /home/qwerty/github/datacon2025hack/step_04_hit_selection/docking/ligands/lig_405.pdb
REMARK  5 active torsions:
REMARK  status: ('A' for Active; 'I' for Inactive)
REMARK    1  A    between atoms: C1_1  and  N1_2
REMARK    2  A    between atoms: C4_5  and  C5_6
REMARK    3  A    between atoms: N2_8  and  C6_9
REMARK    4  A    between atoms: C6_9  and  C7_10
REMARK    5  A    between atoms: C12_16  and  C13_18
REMARK                            x       y       z     vdW  Elec       q    Type
REMARK                         _______ _______ _______ _____ _____    ______ ____
ROOT
ATOM      1  C7  UNL     1      19.785   2.225  29.656  0.00  0.00    +0.093 C 
ATOM      2  C8  UNL     1      18.766   1.717  30.708  0.00  0.00    +0.024 C 
ATOM      3  C9  UNL     1      19.269   0.440  31.384  0.00  0.00    +0.003 C 
ATOM      4  C10 UNL     1      20.567   0.708  32.165  0.00  0.00    +0.019 C 
ATOM      5  C11 UNL     1      21.501   1.711  31.455  0.00  0.00    +0.108 C 
ATOM      6  N3  UNL     1      21.160   1.842  30.031  0.00  0.00    -0.293 N 
ATOM      7  C12 UNL     1      22.167   1.676  29.012  0.00  0.00    +0.248 C 
ATOM      8  O2  UNL     1      22.217   2.486  28.047  0.00  0.00    -0.270 OA
ENDROOT
BRANCH   7   9
ATOM      9  C13 UNL     1      23.129   0.560  29.049  0.00  0.00    +0.054 A 
ATOM     10  C14 UNL     1      22.855  -0.784  28.868  0.00  0.00    +0.032 A 
ATOM     11  C15 UNL     1      24.070  -1.435  28.930  0.00  0.00    +0.083 A 
ATOM     12  N4  UNL     1      25.062  -0.548  29.130  0.00  0.00    -0.366 N 
ATOM     13  C16 UNL     1      24.498   0.671  29.196  0.00  0.00    +0.095 A 
ATOM     14  H23 UNL     1      26.080  -0.764  29.206  0.00  0.00    +0.165 HD
ENDBRANCH   7   9
BRANCH   1  15
ATOM     15  C6  UNL     1      19.679   3.751  29.475  0.00  0.00    +0.126 C 
BRANCH  15  18
ATOM     16  C5  UNL     1      21.140   5.395  30.766  0.00  0.00    +0.225 C 
ATOM     17  O1  UNL     1      21.749   5.735  29.715  0.00  0.00    -0.275 OA
ATOM     18  N2  UNL     1      20.066   4.442  30.706  0.00  0.00    -0.313 N 
ATOM     19  H9  UNL     1      19.586   4.163  31.590  0.00  0.00    +0.149 HD
BRANCH  16  24
ATOM     20  C1  UNL     1      25.272   5.968  32.955  0.00  0.00    +0.132 C 
ATOM     21  N1  UNL     1      23.897   6.304  32.609  0.00  0.00    -0.304 N 
ATOM     22  C2  UNL     1      23.449   7.612  32.166  0.00  0.00    +0.108 C 
ATOM     23  C3  UNL     1      21.926   7.488  31.953  0.00  0.00    +0.041 C 
ATOM     24  C4  UNL     1      21.565   5.991  32.083  0.00  0.00    +0.162 C 
ATOM     25  C17 UNL     1      22.828   5.382  32.558  0.00  0.00    +0.227 C 
ATOM     26  O3  UNL     1      22.947   4.170  32.885  0.00  0.00    -0.275 OA
ENDBRANCH  16  24
ENDBRANCH  15  18
ENDBRANCH   1  15
TORSDOF 4
ENDMDL
MODEL 5
REMARK VINA RESULT:    -6.000      3.676      6.442
REMARK INTER + INTRA:          -8.530
REMARK INTER:                  -7.322
REMARK INTRA:                  -1.208
REMARK UNBOUND:                -1.128
REMARK  Name = /home/qwerty/github/datacon2025hack/step_04_hit_selection/docking/ligands/lig_405.pdb
REMARK  5 active torsions:
REMARK  status: ('A' for Active; 'I' for Inactive)
REMARK    1  A    between atoms: C1_1  and  N1_2
REMARK    2  A    between atoms: C4_5  and  C5_6
REMARK    3  A    between atoms: N2_8  and  C6_9
REMARK    4  A    between atoms: C6_9  and  C7_10
REMARK    5  A    between atoms: C12_16  and  C13_18
REMARK                            x       y       z     vdW  Elec       q    Type
REMARK                         _______ _______ _______ _____ _____    ______ ____
ROOT
ATOM      1  C7  UNL     1      20.923   3.176  29.107  0.00  0.00    +0.093 C 
ATOM      2  C8  UNL     1      21.019   4.203  27.951  0.00  0.00    +0.024 C 
ATOM      3  C9  UNL     1      22.153   3.840  26.990  0.00  0.00    +0.003 C 
ATOM      4  C10 UNL     1      21.887   2.483  26.315  0.00  0.00    +0.019 C 
ATOM      5  C11 UNL     1      21.221   1.461  27.260  0.00  0.00    +0.108 C 
ATOM      6  N3  UNL     1      21.390   1.847  28.668  0.00  0.00    -0.293 N 
ATOM      7  C12 UNL     1      21.932   0.919  29.630  0.00  0.00    +0.248 C 
ATOM      8  O2  UNL     1      21.392   0.808  30.763  0.00  0.00    -0.270 OA
ENDROOT
BRANCH   7   9
ATOM      9  C13 UNL     1      23.129   0.109  29.334  0.00  0.00    +0.054 A 
ATOM     10  C14 UNL     1      23.164  -1.220  28.953  0.00  0.00    +0.032 A 
ATOM     11  C15 UNL     1      24.492  -1.520  28.730  0.00  0.00    +0.083 A 
ATOM     12  N4  UNL     1      25.256  -0.435  28.948  0.00  0.00    -0.366 N 
ATOM     13  C16 UNL     1      24.433   0.566  29.309  0.00  0.00    +0.095 A 
ATOM     14  H23 UNL     1      26.293  -0.375  28.845  0.00  0.00    +0.165 HD
ENDBRANCH   7   9
BRANCH   1  15
ATOM     15  C6  UNL     1      19.485   3.091  29.653  0.00  0.00    +0.126 C 
BRANCH  15  18
ATOM     16  C5  UNL     1      18.719   2.301  31.955  0.00  0.00    +0.225 C 
ATOM     17  O1  UNL     1      18.066   1.347  31.450  0.00  0.00    -0.275 OA
ATOM     18  N2  UNL     1      19.485   3.181  31.114  0.00  0.00    -0.313 N 
ATOM     19  H9  UNL     1      20.006   3.973  31.551  0.00  0.00    +0.149 HD
BRANCH  16  24
ATOM     20  C1  UNL     1      20.298   5.647  34.870  0.00  0.00    +0.132 C 
ATOM     21  N1  UNL     1      19.397   4.590  34.428  0.00  0.00    -0.304 N 
ATOM     22  C2  UNL     1      17.950   4.704  34.370  0.00  0.00    +0.108 C 
ATOM     23  C3  UNL     1      17.438   3.336  33.877  0.00  0.00    +0.041 C 
ATOM     24  C4  UNL     1      18.672   2.512  33.445  0.00  0.00    +0.162 C 
ATOM     25  C17 UNL     1      19.807   3.347  33.899  0.00  0.00    +0.227 C 
ATOM     26  O3  UNL     1      21.015   2.994  33.825  0.00  0.00    -0.275 OA
ENDBRANCH  16  24
ENDBRANCH  15  18
ENDBRANCH   1  15
TORSDOF 4
ENDMDL
MODEL 6
REMARK VINA RESULT:    -5.953      3.769      6.136
REMARK INTER + INTRA:          -8.472
REMARK INTER:                  -7.394
REMARK INTRA:                  -1.078
REMARK UNBOUND:                -1.128
REMARK  Name = /home/qwerty/github/datacon2025hack/step_04_hit_selection/docking/ligands/lig_405.pdb
REMARK  5 active torsions:
REMARK  status: ('A' for Active; 'I' for Inactive)
REMARK    1  A    between atoms: C1_1  and  N1_2
REMARK    2  A    between atoms: C4_5  and  C5_6
REMARK    3  A    between atoms: N2_8  and  C6_9
REMARK    4  A    between atoms: C6_9  and  C7_10
REMARK    5  A    between atoms: C12_16  and  C13_18
REMARK                            x       y       z     vdW  Elec       q    Type
REMARK                         _______ _______ _______ _____ _____    ______ ____
ROOT
ATOM      1  C7  UNL     1      20.883   3.230  28.841  0.00  0.00    +0.093 C 
ATOM      2  C8  UNL     1      21.086   4.271  27.710  0.00  0.00    +0.024 C 
ATOM      3  C9  UNL     1      22.302   3.916  26.853  0.00  0.00    +0.003 C 
ATOM      4  C10 UNL     1      22.096   2.568  26.140  0.00  0.00    +0.019 C 
ATOM      5  C11 UNL     1      21.346   1.536  27.008  0.00  0.00    +0.108 C 
ATOM      6  N3  UNL     1      21.386   1.905  28.430  0.00  0.00    -0.293 N 
ATOM      7  C12 UNL     1      21.837   0.964  29.426  0.00  0.00    +0.248 C 
ATOM      8  O2  UNL     1      21.196   0.841  30.504  0.00  0.00    -0.270 OA
ENDROOT
BRANCH   7   9
ATOM      9  C13 UNL     1      23.054   0.155  29.230  0.00  0.00    +0.054 A 
ATOM     10  C14 UNL     1      23.120  -1.193  28.927  0.00  0.00    +0.032 A 
ATOM     11  C15 UNL     1      24.461  -1.488  28.782  0.00  0.00    +0.083 A 
ATOM     12  N4  UNL     1      25.202  -0.382  28.973  0.00  0.00    -0.366 N 
ATOM     13  C16 UNL     1      24.353   0.626  29.240  0.00  0.00    +0.095 A 
ATOM     14  H23 UNL     1      26.242  -0.315  28.914  0.00  0.00    +0.165 HD
ENDBRANCH   7   9
BRANCH   1  15
ATOM     15  C6  UNL     1      19.401   3.143  29.253  0.00  0.00    +0.126 C 
BRANCH  15  18
ATOM     16  C5  UNL     1      19.119   4.250  31.534  0.00  0.00    +0.225 C 
ATOM     17  O1  UNL     1      19.001   5.390  31.006  0.00  0.00    -0.275 OA
ATOM     18  N2  UNL     1      19.276   3.082  30.709  0.00  0.00    -0.313 N 
ATOM     19  H9  UNL     1      19.387   2.150  31.167  0.00  0.00    +0.149 HD
BRANCH  16  24
ATOM     20  C1  UNL     1      17.650   0.973  34.582  0.00  0.00    +0.132 C 
ATOM     21  N1  UNL     1      18.490   2.068  34.115  0.00  0.00    -0.304 N 
ATOM     22  C2  UNL     1      19.943   2.064  34.131  0.00  0.00    +0.108 C 
ATOM     23  C3  UNL     1      20.375   3.436  33.574  0.00  0.00    +0.041 C 
ATOM     24  C4  UNL     1      19.106   4.133  33.035  0.00  0.00    +0.162 C 
ATOM     25  C17 UNL     1      18.015   3.242  33.489  0.00  0.00    +0.227 C 
ATOM     26  O3  UNL     1      16.790   3.494  33.338  0.00  0.00    -0.275 OA
ENDBRANCH  16  24
ENDBRANCH  15  18
ENDBRANCH   1  15
TORSDOF 4
ENDMDL
MODEL 7
REMARK VINA RESULT:    -5.829      1.878      2.810
REMARK INTER + INTRA:          -8.320
REMARK INTER:                  -7.604
REMARK INTRA:                  -0.715
REMARK UNBOUND:                -1.128
REMARK  Name = /home/qwerty/github/datacon2025hack/step_04_hit_selection/docking/ligands/lig_405.pdb
REMARK  5 active torsions:
REMARK  status: ('A' for Active; 'I' for Inactive)
REMARK    1  A    between atoms: C1_1  and  N1_2
REMARK    2  A    between atoms: C4_5  and  C5_6
REMARK    3  A    between atoms: N2_8  and  C6_9
REMARK    4  A    between atoms: C6_9  and  C7_10
REMARK    5  A    between atoms: C12_16  and  C13_18
REMARK                            x       y       z     vdW  Elec       q    Type
REMARK                         _______ _______ _______ _____ _____    ______ ____
ROOT
ATOM      1  C7  UNL     1      20.259   2.741  28.778  0.00  0.00    +0.093 C 
ATOM      2  C8  UNL     1      20.455   4.007  27.905  0.00  0.00    +0.024 C 
ATOM      3  C9  UNL     1      21.867   4.054  27.319  0.00  0.00    +0.003 C 
ATOM      4  C10 UNL     1      22.109   2.862  26.376  0.00  0.00    +0.019 C 
ATOM      5  C11 UNL     1      21.442   1.560  26.867  0.00  0.00    +0.108 C 
ATOM      6  N3  UNL     1      21.112   1.637  28.298  0.00  0.00    -0.293 N 
ATOM      7  C12 UNL     1      21.546   0.610  29.213  0.00  0.00    +0.248 C 
ATOM      8  O2  UNL     1      20.742   0.161  30.073  0.00  0.00    -0.270 OA
ENDROOT
BRANCH   7   9
ATOM      9  C13 UNL     1      22.924   0.086  29.190  0.00  0.00    +0.054 A 
ATOM     10  C14 UNL     1      23.319  -1.212  28.920  0.00  0.00    +0.032 A 
ATOM     11  C15 UNL     1      24.699  -1.208  28.955  0.00  0.00    +0.083 A 
ATOM     12  N4  UNL     1      25.152   0.029  29.224  0.00  0.00    -0.366 N 
ATOM     13  C16 UNL     1      24.078   0.826  29.361  0.00  0.00    +0.095 A 
ATOM     14  H23 UNL     1      26.152   0.320  29.299  0.00  0.00    +0.165 HD
ENDBRANCH   7   9
BRANCH   1  15
ATOM     15  C6  UNL     1      18.780   2.311  28.804  0.00  0.00    +0.126 C 
BRANCH  15  18
ATOM     16  C5  UNL     1      18.018   1.433  26.534  0.00  0.00    +0.225 C 
ATOM     17  O1  UNL     1      17.809   2.603  26.111  0.00  0.00    -0.275 OA
ATOM     18  N2  UNL     1      18.545   1.223  27.855  0.00  0.00    -0.313 N 
ATOM     19  H9  UNL     1      18.697   0.245  28.190  0.00  0.00    +0.149 HD
BRANCH  16  24
ATOM     20  C1  UNL     1      14.028  -0.551  25.006  0.00  0.00    +0.132 C 
ATOM     21  N1  UNL     1      15.431  -0.163  24.928  0.00  0.00    -0.304 N 
ATOM     22  C2  UNL     1      16.041   0.522  23.802  0.00  0.00    +0.108 C 
ATOM     23  C3  UNL     1      17.531   0.687  24.164  0.00  0.00    +0.041 C 
ATOM     24  C4  UNL     1      17.694   0.263  25.641  0.00  0.00    +0.162 C 
ATOM     25  C17 UNL     1      16.369  -0.306  25.975  0.00  0.00    +0.227 C 
ATOM     26  O3  UNL     1      16.096  -0.862  27.073  0.00  0.00    -0.275 OA
ENDBRANCH  16  24
ENDBRANCH  15  18
ENDBRANCH   1  15
TORSDOF 4
ENDMDL
MODEL 8
REMARK VINA RESULT:    -5.793      2.304      3.465
REMARK INTER + INTRA:          -8.276
REMARK INTER:                  -7.175
REMARK INTRA:                  -1.101
REMARK UNBOUND:                -1.128
REMARK  Name = /home/qwerty/github/datacon2025hack/step_04_hit_selection/docking/ligands/lig_405.pdb
REMARK  5 active torsions:
REMARK  status: ('A' for Active; 'I' for Inactive)
REMARK    1  A    between atoms: C1_1  and  N1_2
REMARK    2  A    between atoms: C4_5  and  C5_6
REMARK    3  A    between atoms: N2_8  and  C6_9
REMARK    4  A    between atoms: C6_9  and  C7_10
REMARK    5  A    between atoms: C12_16  and  C13_18
REMARK                            x       y       z     vdW  Elec       q    Type
REMARK                         _______ _______ _______ _____ _____    ______ ____
ROOT
ATOM      1  C7  UNL     1      21.118   3.369  28.773  0.00  0.00    +0.093 C 
ATOM      2  C8  UNL     1      21.387   4.360  27.612  0.00  0.00    +0.024 C 
ATOM      3  C9  UNL     1      22.522   3.859  26.718  0.00  0.00    +0.003 C 
ATOM      4  C10 UNL     1      22.143   2.528  26.045  0.00  0.00    +0.019 C 
ATOM      5  C11 UNL     1      21.321   1.601  26.964  0.00  0.00    +0.108 C 
ATOM      6  N3  UNL     1      21.458   1.990  28.374  0.00  0.00    -0.293 N 
ATOM      7  C12 UNL     1      21.844   1.024  29.374  0.00  0.00    +0.248 C 
ATOM      8  O2  UNL     1      21.236   0.992  30.478  0.00  0.00    -0.270 OA
ENDROOT
BRANCH   7   9
ATOM      9  C13 UNL     1      22.957   0.083  29.151  0.00  0.00    +0.054 A 
ATOM     10  C14 UNL     1      24.310   0.355  29.247  0.00  0.00    +0.032 A 
ATOM     11  C15 UNL     1      24.959  -0.841  29.013  0.00  0.00    +0.083 A 
ATOM     12  N4  UNL     1      24.063  -1.819  28.792  0.00  0.00    -0.366 N 
ATOM     13  C16 UNL     1      22.839  -1.267  28.881  0.00  0.00    +0.095 A 
ATOM     14  H23 UNL     1      24.275  -2.823  28.599  0.00  0.00    +0.165 HD
ENDBRANCH   7   9
BRANCH   1  15
ATOM     15  C6  UNL     1      19.653   3.451  29.243  0.00  0.00    +0.126 C 
BRANCH  15  18
ATOM     16  C5  UNL     1      18.014   1.909  28.041  0.00  0.00    +0.225 C 
ATOM     17  O1  UNL     1      18.078   1.058  28.971  0.00  0.00    -0.275 OA
ATOM     18  N2  UNL     1      18.743   3.145  28.139  0.00  0.00    -0.313 N 
ATOM     19  H9  UNL     1      18.688   3.829  27.351  0.00  0.00    +0.149 HD
BRANCH  16  24
ATOM     20  C1  UNL     1      18.333   2.962  23.461  0.00  0.00    +0.132 C 
ATOM     21  N1  UNL     1      17.960   2.150  24.613  0.00  0.00    -0.304 N 
ATOM     22  C2  UNL     1      18.253   0.736  24.760  0.00  0.00    +0.108 C 
ATOM     23  C3  UNL     1      17.640   0.315  26.111  0.00  0.00    +0.041 C 
ATOM     24  C4  UNL     1      17.177   1.605  26.826  0.00  0.00    +0.162 C 
ATOM     25  C17 UNL     1      17.353   2.645  25.788  0.00  0.00    +0.227 C 
ATOM     26  O3  UNL     1      17.001   3.847  25.928  0.00  0.00    -0.275 OA
ENDBRANCH  16  24
ENDBRANCH  15  18
ENDBRANCH   1  15
TORSDOF 4
ENDMDL
MODEL 9
REMARK VINA RESULT:    -5.768     12.775     15.827
REMARK INTER + INTRA:          -8.245
REMARK INTER:                  -6.971
REMARK INTRA:                  -1.274
REMARK UNBOUND:                -1.128
REMARK  Name = /home/qwerty/github/datacon2025hack/step_04_hit_selection/docking/ligands/lig_405.pdb
REMARK  5 active torsions:
REMARK  status: ('A' for Active; 'I' for Inactive)
REMARK    1  A    between atoms: C1_1  and  N1_2
REMARK    2  A    between atoms: C4_5  and  C5_6
REMARK    3  A    between atoms: N2_8  and  C6_9
REMARK    4  A    between atoms: C6_9  and  C7_10
REMARK    5  A    between atoms: C12_16  and  C13_18
REMARK                            x       y       z     vdW  Elec       q    Type
REMARK                         _______ _______ _______ _____ _____    ______ ____
ROOT
ATOM      1  C7  UNL     1      15.066  12.891  34.670  0.00  0.00    +0.093 C 
ATOM      2  C8  UNL     1      14.880  13.338  33.198  0.00  0.00    +0.024 C 
ATOM      3  C9  UNL     1      13.623  12.713  32.591  0.00  0.00    +0.003 C 
ATOM      4  C10 UNL     1      12.361  13.192  33.330  0.00  0.00    +0.019 C 
ATOM      5  C11 UNL     1      12.576  13.348  34.850  0.00  0.00    +0.108 C 
ATOM      6  N3  UNL     1      13.763  12.607  35.300  0.00  0.00    -0.293 N 
ATOM      7  C12 UNL     1      13.678  11.670  36.394  0.00  0.00    +0.248 C 
ATOM      8  O2  UNL     1      14.571  11.667  37.283  0.00  0.00    -0.270 OA
ENDROOT
BRANCH   7   9
ATOM      9  C13 UNL     1      12.584  10.686  36.487  0.00  0.00    +0.054 A 
ATOM     10  C14 UNL     1      11.504  10.719  37.349  0.00  0.00    +0.032 A 
ATOM     11  C15 UNL     1      10.721   9.629  37.026  0.00  0.00    +0.083 A 
ATOM     12  N4  UNL     1      11.273   8.948  36.006  0.00  0.00    -0.366 N 
ATOM     13  C16 UNL     1      12.405   9.590  35.665  0.00  0.00    +0.095 A 
ATOM     14  H23 UNL     1      10.889   8.090  35.554  0.00  0.00    +0.165 HD
ENDBRANCH   7   9
BRANCH   1  15
ATOM     15  C6  UNL     1      15.839  13.951  35.477  0.00  0.00    +0.126 C 
BRANCH  15  18
ATOM     16  C5  UNL     1      18.207  13.017  35.647  0.00  0.00    +0.225 C 
ATOM     17  O1  UNL     1      18.462  13.350  34.457  0.00  0.00    -0.275 OA
ATOM     18  N2  UNL     1      16.929  13.329  36.229  0.00  0.00    -0.313 N 
ATOM     19  H9  UNL     1      16.734  13.031  37.211  0.00  0.00    +0.149 HD
BRANCH  16  24
ATOM     20  C1  UNL     1      19.367   8.481  36.161  0.00  0.00    +0.132 C 
ATOM     21  N1  UNL     1      19.615   9.916  36.115  0.00  0.00    -0.304 N 
ATOM     22  C2  UNL     1      20.663  10.553  35.337  0.00  0.00    +0.108 C 
ATOM     23  C3  UNL     1      20.551  12.063  35.632  0.00  0.00    +0.041 C 
ATOM     24  C4  UNL     1      19.252  12.277  36.440  0.00  0.00    +0.162 C 
ATOM     25  C17 UNL     1      18.811  10.896  36.739  0.00  0.00    +0.227 C 
ATOM     26  O3  UNL     1      17.824  10.613  37.471  0.00  0.00    -0.275 OA
ENDBRANCH  16  24
ENDBRANCH  15  18
ENDBRANCH   1  15
TORSDOF 4
ENDMDL
