MODEL 1
REMARK VINA RESULT:    -5.921      0.000      0.000
REMARK INTER + INTRA:          -7.690
REMARK INTER:                  -6.959
REMARK INTRA:                  -0.730
REMARK UNBOUND:                -0.730
REMARK  Name = /home/qwerty/github/datacon2025hack/step_04_hit_selection/docking/ligands/lig_3.pdb
REMARK  5 active torsions:
REMARK  status: ('A' for Active; 'I' for Inactive)
REMARK    1  A    between atoms: C1_1  and  C2_2
REMARK    2  A    between atoms: C2_2  and  C3_3
REMARK    3  A    between atoms: C6_7  and  N1_8
REMARK    4  A    between atoms: C7_9  and  C8_11
REMARK    5  A    between atoms: C11_15  and  C12_16
REMARK                            x       y       z     vdW  Elec       q    Type
REMARK                         _______ _______ _______ _____ _____    ______ ____
ROOT
ATOM      1  C8  UNL     1      16.703  10.748  37.104  0.00  0.00    +0.100 A 
ATOM      2  C9  UNL     1      15.482  10.075  37.239  0.00  0.00    +0.100 A 
ATOM      3  N2  UNL     1      14.304  10.718  37.024  0.00  0.00    -0.360 N 
ATOM      4  C10 UNL     1      14.252  12.040  36.677  0.00  0.00    +0.053 A 
ATOM      5  C11 UNL     1      13.012  12.696  36.451  0.00  0.00    -0.024 A 
ATOM      6  C12 UNL     1      11.697  11.970  36.574  0.00  0.00    +0.046 C 
ATOM      7  C13 UNL     1      13.004  14.057  36.103  0.00  0.00    +0.043 A 
ATOM      8  C14 UNL     1      14.197  14.767  35.981  0.00  0.00    +0.124 A 
ATOM      9  F1  UNL     1      14.169  16.081  35.645  0.00  0.00    -0.205 F 
ATOM     10  C15 UNL     1      15.418  14.133  36.199  0.00  0.00    +0.052 A 
ATOM     11  C16 UNL     1      15.461  12.770  36.547  0.00  0.00    +0.049 A 
ATOM     12  C17 UNL     1      16.688  12.115  36.774  0.00  0.00    +0.202 A 
ATOM     13  O3  UNL     1      17.772  12.761  36.706  0.00  0.00    -0.286 OA
ATOM     14  H14 UNL     1      13.433  10.153  37.135  0.00  0.00    +0.165 HD
ENDROOT
BRANCH   1  16
ATOM     15  N1  UNL     1      18.852   9.699  36.249  0.00  0.00    -0.306 N 
ATOM     16  C7  UNL     1      17.967  10.008  37.336  0.00  0.00    +0.249 C 
ATOM     17  O2  UNL     1      18.249   9.620  38.503  0.00  0.00    -0.270 OA
ATOM     18  H12 UNL     1      18.500   9.817  35.272  0.00  0.00    +0.149 HD
BRANCH  15  23
ATOM     19  C3  UNL     1      20.223   7.612  36.212  0.00  0.00    +0.138 C 
ATOM     20  O1  UNL     1      21.493   7.284  35.693  0.00  0.00    -0.375 OA
ATOM     21  C4  UNL     1      22.138   8.484  35.328  0.00  0.00    +0.162 C 
ATOM     22  C5  UNL     1      21.180   9.646  35.484  0.00  0.00    +0.053 C 
ATOM     23  C6  UNL     1      20.182   9.121  36.475  0.00  0.00    +0.104 C 
BRANCH  19  25
ATOM     24  C1  UNL     1      18.574   6.147  37.497  0.00  0.00    +0.006 C 
ATOM     25  C2  UNL     1      19.966   6.778  37.479  0.00  0.00    +0.030 C 
ENDBRANCH  19  25
ENDBRANCH  15  23
ENDBRANCH   1  16
TORSDOF 3
ENDMDL
MODEL 2
REMARK VINA RESULT:    -5.880     17.029     18.855
REMARK INTER + INTRA:          -7.641
REMARK INTER:                  -6.819
REMARK INTRA:                  -0.823
REMARK UNBOUND:                -0.730
REMARK  Name = /home/qwerty/github/datacon2025hack/step_04_hit_selection/docking/ligands/lig_3.pdb
REMARK  5 active torsions:
REMARK  status: ('A' for Active; 'I' for Inactive)
REMARK    1  A    between atoms: C1_1  and  C2_2
REMARK    2  A    between atoms: C2_2  and  C3_3
REMARK    3  A    between atoms: C6_7  and  N1_8
REMARK    4  A    between atoms: C7_9  and  C8_11
REMARK    5  A    between atoms: C11_15  and  C12_16
REMARK                            x       y       z     vdW  Elec       q    Type
REMARK                         _______ _______ _______ _____ _____    ______ ____
ROOT
ATOM      1  C8  UNL     1      12.077   1.298  22.799  0.00  0.00    +0.100 A 
ATOM      2  C9  UNL     1      11.931   0.674  24.045  0.00  0.00    +0.100 A 
ATOM      3  N2  UNL     1      12.885  -0.168  24.519  0.00  0.00    -0.360 N 
ATOM      4  C10 UNL     1      14.020  -0.452  23.810  0.00  0.00    +0.053 A 
ATOM      5  C11 UNL     1      15.011  -1.332  24.322  0.00  0.00    -0.024 A 
ATOM      6  C12 UNL     1      14.867  -1.988  25.671  0.00  0.00    +0.046 C 
ATOM      7  C13 UNL     1      16.157  -1.602  23.557  0.00  0.00    +0.043 A 
ATOM      8  C14 UNL     1      16.329  -1.018  22.304  0.00  0.00    +0.124 A 
ATOM      9  F1  UNL     1      17.443  -1.292  21.579  0.00  0.00    -0.205 F 
ATOM     10  C15 UNL     1      15.364  -0.153  21.792  0.00  0.00    +0.052 A 
ATOM     11  C16 UNL     1      14.205   0.140  22.534  0.00  0.00    +0.049 A 
ATOM     12  C17 UNL     1      13.219   1.011  22.029  0.00  0.00    +0.202 A 
ATOM     13  O3  UNL     1      13.347   1.510  20.876  0.00  0.00    -0.286 OA
ATOM     14  H14 UNL     1      12.714  -0.592  25.458  0.00  0.00    +0.165 HD
ENDROOT
BRANCH   1  16
ATOM     15  N1  UNL     1      11.303   3.606  22.073  0.00  0.00    -0.306 N 
ATOM     16  C7  UNL     1      11.018   2.221  22.322  0.00  0.00    +0.249 C 
ATOM     17  O2  UNL     1       9.846   1.783  22.163  0.00  0.00    -0.270 OA
ATOM     18  H12 UNL     1      12.204   4.000  22.427  0.00  0.00    +0.149 HD
BRANCH  15  23
ATOM     19  C3  UNL     1       9.874   5.633  22.366  0.00  0.00    +0.138 C 
ATOM     20  O1  UNL     1       9.622   6.775  21.577  0.00  0.00    -0.375 OA
ATOM     21  C4  UNL     1      10.155   6.544  20.291  0.00  0.00    +0.162 C 
ATOM     22  C5  UNL     1      10.922   5.239  20.285  0.00  0.00    +0.053 C 
ATOM     23  C6  UNL     1      10.320   4.495  21.442  0.00  0.00    +0.104 C 
BRANCH  19  25
ATOM     24  C1  UNL     1       7.587   4.500  22.357  0.00  0.00    +0.006 C 
ATOM     25  C2  UNL     1       8.610   5.288  23.172  0.00  0.00    +0.030 C 
ENDBRANCH  19  25
ENDBRANCH  15  23
ENDBRANCH   1  16
TORSDOF 3
ENDMDL
MODEL 3
REMARK VINA RESULT:    -5.811     10.002     12.808
REMARK INTER + INTRA:          -7.560
REMARK INTER:                  -6.902
REMARK INTRA:                  -0.658
REMARK UNBOUND:                -0.730
REMARK  Name = /home/qwerty/github/datacon2025hack/step_04_hit_selection/docking/ligands/lig_3.pdb
REMARK  5 active torsions:
REMARK  status: ('A' for Active; 'I' for Inactive)
REMARK    1  A    between atoms: C1_1  and  C2_2
REMARK    2  A    between atoms: C2_2  and  C3_3
REMARK    3  A    between atoms: C6_7  and  N1_8
REMARK    4  A    between atoms: C7_9  and  C8_11
REMARK    5  A    between atoms: C11_15  and  C12_16
REMARK                            x       y       z     vdW  Elec       q    Type
REMARK                         _______ _______ _______ _____ _____    ______ ____
ROOT
ATOM      1  C8  UNL     1       8.005  10.229  29.171  0.00  0.00    +0.100 A 
ATOM      2  C9  UNL     1       7.352   9.570  30.220  0.00  0.00    +0.100 A 
ATOM      3  N2  UNL     1       6.971   8.271  30.098  0.00  0.00    -0.360 N 
ATOM      4  C10 UNL     1       7.197   7.553  28.956  0.00  0.00    +0.053 A 
ATOM      5  C11 UNL     1       6.798   6.195  28.846  0.00  0.00    -0.024 A 
ATOM      6  C12 UNL     1       6.114   5.476  29.980  0.00  0.00    +0.046 C 
ATOM      7  C13 UNL     1       7.043   5.496  27.652  0.00  0.00    +0.043 A 
ATOM      8  C14 UNL     1       7.671   6.123  26.579  0.00  0.00    +0.124 A 
ATOM      9  F1  UNL     1       7.899   5.433  25.433  0.00  0.00    -0.205 F 
ATOM     10  C15 UNL     1       8.068   7.455  26.676  0.00  0.00    +0.052 A 
ATOM     11  C16 UNL     1       7.839   8.182  27.859  0.00  0.00    +0.049 A 
ATOM     12  C17 UNL     1       8.232   9.531  27.971  0.00  0.00    +0.202 A 
ATOM     13  O3  UNL     1       8.764  10.119  26.988  0.00  0.00    -0.286 OA
ATOM     14  H14 UNL     1       6.496   7.842  30.923  0.00  0.00    +0.165 HD
ENDROOT
BRANCH   1  16
ATOM     15  N1  UNL     1       9.795  12.029  29.263  0.00  0.00    -0.306 N 
ATOM     16  C7  UNL     1       8.415  11.644  29.347  0.00  0.00    +0.249 C 
ATOM     17  O2  UNL     1       7.537  12.512  29.606  0.00  0.00    -0.270 OA
ATOM     18  H12 UNL     1      10.523  11.279  29.282  0.00  0.00    +0.149 HD
BRANCH  15  23
ATOM     19  C3  UNL     1      11.501  13.675  30.049  0.00  0.00    +0.138 C 
ATOM     20  O1  UNL     1      12.217  14.717  29.424  0.00  0.00    -0.375 OA
ATOM     21  C4  UNL     1      11.638  14.946  28.157  0.00  0.00    +0.162 C 
ATOM     22  C5  UNL     1      10.578  13.899  27.886  0.00  0.00    +0.053 C 
ATOM     23  C6  UNL     1      10.206  13.438  29.265  0.00  0.00    +0.104 C 
BRANCH  19  25
ATOM     24  C1  UNL     1      12.311  14.995  32.078  0.00  0.00    +0.006 C 
ATOM     25  C2  UNL     1      11.249  14.049  31.520  0.00  0.00    +0.030 C 
ENDBRANCH  19  25
ENDBRANCH  15  23
ENDBRANCH   1  16
TORSDOF 3
ENDMDL
MODEL 4
REMARK VINA RESULT:    -5.789      6.470     10.637
REMARK INTER + INTRA:          -7.535
REMARK INTER:                  -6.758
REMARK INTRA:                  -0.777
REMARK UNBOUND:                -0.730
REMARK  Name = /home/qwerty/github/datacon2025hack/step_04_hit_selection/docking/ligands/lig_3.pdb
REMARK  5 active torsions:
REMARK  status: ('A' for Active; 'I' for Inactive)
REMARK    1  A    between atoms: C1_1  and  C2_2
REMARK    2  A    between atoms: C2_2  and  C3_3
REMARK    3  A    between atoms: C6_7  and  N1_8
REMARK    4  A    between atoms: C7_9  and  C8_11
REMARK    5  A    between atoms: C11_15  and  C12_16
REMARK                            x       y       z     vdW  Elec       q    Type
REMARK                         _______ _______ _______ _____ _____    ______ ____
ROOT
ATOM      1  C8  UNL     1      21.600   4.304  33.703  0.00  0.00    +0.100 A 
ATOM      2  C9  UNL     1      22.550   4.231  32.676  0.00  0.00    +0.100 A 
ATOM      3  N2  UNL     1      22.501   3.238  31.750  0.00  0.00    -0.360 N 
ATOM      4  C10 UNL     1      21.538   2.266  31.777  0.00  0.00    +0.053 A 
ATOM      5  C11 UNL     1      21.498   1.238  30.799  0.00  0.00    -0.024 A 
ATOM      6  C12 UNL     1      22.505   1.168  29.680  0.00  0.00    +0.046 C 
ATOM      7  C13 UNL     1      20.496   0.256  30.870  0.00  0.00    +0.043 A 
ATOM      8  C14 UNL     1      19.546   0.281  31.888  0.00  0.00    +0.124 A 
ATOM      9  F1  UNL     1      18.587  -0.677  31.940  0.00  0.00    -0.205 F 
ATOM     10  C15 UNL     1      19.576   1.286  32.853  0.00  0.00    +0.052 A 
ATOM     11  C16 UNL     1      20.565   2.286  32.809  0.00  0.00    +0.049 A 
ATOM     12  C17 UNL     1      20.610   3.308  33.779  0.00  0.00    +0.202 A 
ATOM     13  O3  UNL     1      19.778   3.313  34.730  0.00  0.00    -0.286 OA
ATOM     14  H14 UNL     1      23.236   3.250  31.008  0.00  0.00    +0.165 HD
ENDROOT
BRANCH   1  16
ATOM     15  N1  UNL     1      20.491   6.017  35.214  0.00  0.00    -0.306 N 
ATOM     16  C7  UNL     1      21.681   5.410  34.688  0.00  0.00    +0.249 C 
ATOM     17  O2  UNL     1      22.813   5.840  35.040  0.00  0.00    -0.270 OA
ATOM     18  H12 UNL     1      19.579   5.815  34.745  0.00  0.00    +0.149 HD
BRANCH  15  23
ATOM     19  C3  UNL     1      20.225   8.418  35.848  0.00  0.00    +0.138 C 
ATOM     20  O1  UNL     1      19.551   9.087  36.892  0.00  0.00    -0.375 OA
ATOM     21  C4  UNL     1      19.155   8.122  37.843  0.00  0.00    +0.162 C 
ATOM     22  C5  UNL     1      19.461   6.735  37.319  0.00  0.00    +0.053 C 
ATOM     23  C6  UNL     1      20.542   6.993  36.310  0.00  0.00    +0.104 C 
BRANCH  19  25
ATOM     24  C1  UNL     1      21.816   9.124  33.980  0.00  0.00    +0.006 C 
ATOM     25  C2  UNL     1      21.484   9.217  35.468  0.00  0.00    +0.030 C 
ENDBRANCH  19  25
ENDBRANCH  15  23
ENDBRANCH   1  16
TORSDOF 3
ENDMDL
MODEL 5
REMARK VINA RESULT:    -5.730     14.210     16.530
REMARK INTER + INTRA:          -7.466
REMARK INTER:                  -6.785
REMARK INTRA:                  -0.681
REMARK UNBOUND:                -0.730
REMARK  Name = /home/qwerty/github/datacon2025hack/step_04_hit_selection/docking/ligands/lig_3.pdb
REMARK  5 active torsions:
REMARK  status: ('A' for Active; 'I' for Inactive)
REMARK    1  A    between atoms: C1_1  and  C2_2
REMARK    2  A    between atoms: C2_2  and  C3_3
REMARK    3  A    between atoms: C6_7  and  N1_8
REMARK    4  A    between atoms: C7_9  and  C8_11
REMARK    5  A    between atoms: C11_15  and  C12_16
REMARK                            x       y       z     vdW  Elec       q    Type
REMARK                         _______ _______ _______ _____ _____    ______ ____
ROOT
ATOM      1  C8  UNL     1      17.537   0.373  25.809  0.00  0.00    +0.100 A 
ATOM      2  C9  UNL     1      16.919   0.499  27.059  0.00  0.00    +0.100 A 
ATOM      3  N2  UNL     1      17.622   0.909  28.147  0.00  0.00    -0.360 N 
ATOM      4  C10 UNL     1      18.956   1.208  28.079  0.00  0.00    +0.053 A 
ATOM      5  C11 UNL     1      19.676   1.640  29.225  0.00  0.00    -0.024 A 
ATOM      6  C12 UNL     1      19.009   1.797  30.567  0.00  0.00    +0.046 C 
ATOM      7  C13 UNL     1      21.046   1.929  29.111  0.00  0.00    +0.043 A 
ATOM      8  C14 UNL     1      21.702   1.795  27.890  0.00  0.00    +0.124 A 
ATOM      9  F1  UNL     1      23.025   2.078  27.800  0.00  0.00    -0.205 F 
ATOM     10  C15 UNL     1      21.005   1.373  26.759  0.00  0.00    +0.052 A 
ATOM     11  C16 UNL     1      19.631   1.077  26.838  0.00  0.00    +0.049 A 
ATOM     12  C17 UNL     1      18.913   0.647  25.705  0.00  0.00    +0.202 A 
ATOM     13  O3  UNL     1      19.510   0.482  24.604  0.00  0.00    -0.286 OA
ATOM     14  H14 UNL     1      17.095   0.988  29.045  0.00  0.00    +0.165 HD
ENDROOT
BRANCH   1  16
ATOM     15  N1  UNL     1      16.873   0.574  23.366  0.00  0.00    -0.306 N 
ATOM     16  C7  UNL     1      16.733  -0.066  24.643  0.00  0.00    +0.249 C 
ATOM     17  O2  UNL     1      15.891  -0.994  24.789  0.00  0.00    -0.270 OA
ATOM     18  H12 UNL     1      17.393   1.480  23.317  0.00  0.00    +0.149 HD
BRANCH  15  23
ATOM     19  C3  UNL     1      16.217   1.053  21.004  0.00  0.00    +0.138 C 
ATOM     20  O1  UNL     1      16.324   0.336  19.793  0.00  0.00    -0.375 OA
ATOM     21  C4  UNL     1      16.691  -0.990  20.103  0.00  0.00    +0.162 C 
ATOM     22  C5  UNL     1      16.978  -1.107  21.585  0.00  0.00    +0.053 C 
ATOM     23  C6  UNL     1      16.216   0.050  22.162  0.00  0.00    +0.104 C 
BRANCH  19  25
ATOM     24  C1  UNL     1      13.666   1.102  21.103  0.00  0.00    +0.006 C 
ATOM     25  C2  UNL     1      14.948   1.922  20.964  0.00  0.00    +0.030 C 
ENDBRANCH  19  25
ENDBRANCH  15  23
ENDBRANCH   1  16
TORSDOF 3
ENDMDL
MODEL 6
REMARK VINA RESULT:    -5.664      3.537      8.401
REMARK INTER + INTRA:          -7.388
REMARK INTER:                  -6.594
REMARK INTRA:                  -0.794
REMARK UNBOUND:                -0.730
REMARK  Name = /home/qwerty/github/datacon2025hack/step_04_hit_selection/docking/ligands/lig_3.pdb
REMARK  5 active torsions:
REMARK  status: ('A' for Active; 'I' for Inactive)
REMARK    1  A    between atoms: C1_1  and  C2_2
REMARK    2  A    between atoms: C2_2  and  C3_3
REMARK    3  A    between atoms: C6_7  and  N1_8
REMARK    4  A    between atoms: C7_9  and  C8_11
REMARK    5  A    between atoms: C11_15  and  C12_16
REMARK                            x       y       z     vdW  Elec       q    Type
REMARK                         _______ _______ _______ _____ _____    ______ ____
ROOT
ATOM      1  C8  UNL     1      20.018  10.554  35.119  0.00  0.00    +0.100 A 
ATOM      2  C9  UNL     1      20.664  10.818  33.904  0.00  0.00    +0.100 A 
ATOM      3  N2  UNL     1      21.715  10.061  33.495  0.00  0.00    -0.360 N 
ATOM      4  C10 UNL     1      22.196   9.021  34.243  0.00  0.00    +0.053 A 
ATOM      5  C11 UNL     1      23.293   8.237  33.799  0.00  0.00    -0.024 A 
ATOM      6  C12 UNL     1      23.977   8.504  32.483  0.00  0.00    +0.046 C 
ATOM      7  C13 UNL     1      23.760   7.183  34.602  0.00  0.00    +0.043 A 
ATOM      8  C14 UNL     1      23.158   6.903  35.827  0.00  0.00    +0.124 A 
ATOM      9  F1  UNL     1      23.623   5.881  36.589  0.00  0.00    -0.205 F 
ATOM     10  C15 UNL     1      22.080   7.665  36.272  0.00  0.00    +0.052 A 
ATOM     11  C16 UNL     1      21.587   8.727  35.490  0.00  0.00    +0.049 A 
ATOM     12  C17 UNL     1      20.500   9.509  35.928  0.00  0.00    +0.202 A 
ATOM     13  O3  UNL     1      19.976   9.288  37.056  0.00  0.00    -0.286 OA
ATOM     14  H14 UNL     1      22.143  10.310  32.576  0.00  0.00    +0.165 HD
ENDROOT
BRANCH   1  16
ATOM     15  N1  UNL     1      17.544  10.842  35.620  0.00  0.00    -0.306 N 
ATOM     16  C7  UNL     1      18.866  11.395  35.525  0.00  0.00    +0.249 C 
ATOM     17  O2  UNL     1      19.050  12.621  35.760  0.00  0.00    -0.270 OA
ATOM     18  H12 UNL     1      17.368   9.900  35.202  0.00  0.00    +0.149 HD
BRANCH  15  23
ATOM     19  C3  UNL     1      15.462  12.120  35.103  0.00  0.00    +0.138 C 
ATOM     20  O1  UNL     1      14.155  12.120  35.636  0.00  0.00    -0.375 OA
ATOM     21  C4  UNL     1      14.173  11.376  36.834  0.00  0.00    +0.162 C 
ATOM     22  C5  UNL     1      15.533  10.737  37.017  0.00  0.00    +0.053 C 
ATOM     23  C6  UNL     1      16.424  11.608  36.179  0.00  0.00    +0.104 C 
BRANCH  19  25
ATOM     24  C1  UNL     1      15.921  14.543  35.763  0.00  0.00    +0.006 C 
ATOM     25  C2  UNL     1      15.808  13.538  34.618  0.00  0.00    +0.030 C 
ENDBRANCH  19  25
ENDBRANCH  15  23
ENDBRANCH   1  16
TORSDOF 3
ENDMDL
MODEL 7
REMARK VINA RESULT:    -5.647      8.909     11.898
REMARK INTER + INTRA:          -7.367
REMARK INTER:                  -6.700
REMARK INTRA:                  -0.667
REMARK UNBOUND:                -0.730
REMARK  Name = /home/qwerty/github/datacon2025hack/step_04_hit_selection/docking/ligands/lig_3.pdb
REMARK  5 active torsions:
REMARK  status: ('A' for Active; 'I' for Inactive)
REMARK    1  A    between atoms: C1_1  and  C2_2
REMARK    2  A    between atoms: C2_2  and  C3_3
REMARK    3  A    between atoms: C6_7  and  N1_8
REMARK    4  A    between atoms: C7_9  and  C8_11
REMARK    5  A    between atoms: C11_15  and  C12_16
REMARK                            x       y       z     vdW  Elec       q    Type
REMARK                         _______ _______ _______ _____ _____    ______ ____
ROOT
ATOM      1  C8  UNL     1      20.076   1.100  31.423  0.00  0.00    +0.100 A 
ATOM      2  C9  UNL     1      19.350   0.070  32.035  0.00  0.00    +0.100 A 
ATOM      3  N2  UNL     1      18.708   0.275  33.214  0.00  0.00    -0.360 N 
ATOM      4  C10 UNL     1      18.743   1.481  33.860  0.00  0.00    +0.053 A 
ATOM      5  C11 UNL     1      18.062   1.680  35.091  0.00  0.00    -0.024 A 
ATOM      6  C12 UNL     1      17.262   0.581  35.741  0.00  0.00    +0.046 C 
ATOM      7  C13 UNL     1      18.131   2.932  35.724  0.00  0.00    +0.043 A 
ATOM      8  C14 UNL     1      18.861   3.975  35.158  0.00  0.00    +0.124 A 
ATOM      9  F1  UNL     1      18.917   5.177  35.785  0.00  0.00    -0.205 F 
ATOM     10  C15 UNL     1      19.533   3.791  33.952  0.00  0.00    +0.052 A 
ATOM     11  C16 UNL     1      19.482   2.550  33.290  0.00  0.00    +0.049 A 
ATOM     12  C17 UNL     1      20.158   2.346  32.071  0.00  0.00    +0.202 A 
ATOM     13  O3  UNL     1      20.856   3.274  31.573  0.00  0.00    -0.286 OA
ATOM     14  H14 UNL     1      18.179  -0.535  33.609  0.00  0.00    +0.165 HD
ENDROOT
BRANCH   1  16
ATOM     15  N1  UNL     1      20.480   1.650  28.977  0.00  0.00    -0.306 N 
ATOM     16  C7  UNL     1      20.755   0.840  30.130  0.00  0.00    +0.249 C 
ATOM     17  O2  UNL     1      21.559  -0.127  30.040  0.00  0.00    -0.270 OA
ATOM     18  H12 UNL     1      19.652   2.287  29.001  0.00  0.00    +0.149 HD
BRANCH  15  23
ATOM     19  C3  UNL     1      20.430   1.818  26.486  0.00  0.00    +0.138 C 
ATOM     20  O1  UNL     1      21.271   2.424  25.528  0.00  0.00    -0.375 OA
ATOM     21  C4  UNL     1      22.466   2.802  26.175  0.00  0.00    +0.162 C 
ATOM     22  C5  UNL     1      22.338   2.560  27.663  0.00  0.00    +0.053 C 
ATOM     23  C6  UNL     1      21.258   1.520  27.739  0.00  0.00    +0.104 C 
BRANCH  19  25
ATOM     24  C1  UNL     1      19.644   0.649  24.357  0.00  0.00    +0.006 C 
ATOM     25  C2  UNL     1      19.796   0.557  25.874  0.00  0.00    +0.030 C 
ENDBRANCH  19  25
ENDBRANCH  15  23
ENDBRANCH   1  16
TORSDOF 3
ENDMDL
MODEL 8
REMARK VINA RESULT:    -5.602      7.022     10.834
REMARK INTER + INTRA:          -7.315
REMARK INTER:                  -6.688
REMARK INTRA:                  -0.627
REMARK UNBOUND:                -0.730
REMARK  Name = /home/qwerty/github/datacon2025hack/step_04_hit_selection/docking/ligands/lig_3.pdb
REMARK  5 active torsions:
REMARK  status: ('A' for Active; 'I' for Inactive)
REMARK    1  A    between atoms: C1_1  and  C2_2
REMARK    2  A    between atoms: C2_2  and  C3_3
REMARK    3  A    between atoms: C6_7  and  N1_8
REMARK    4  A    between atoms: C7_9  and  C8_11
REMARK    5  A    between atoms: C11_15  and  C12_16
REMARK                            x       y       z     vdW  Elec       q    Type
REMARK                         _______ _______ _______ _____ _____    ______ ____
ROOT
ATOM      1  C8  UNL     1      22.127   5.379  31.784  0.00  0.00    +0.100 A 
ATOM      2  C9  UNL     1      21.780   5.924  30.541  0.00  0.00    +0.100 A 
ATOM      3  N2  UNL     1      21.441   5.123  29.497  0.00  0.00    -0.360 N 
ATOM      4  C10 UNL     1      21.429   3.759  29.604  0.00  0.00    +0.053 A 
ATOM      5  C11 UNL     1      21.068   2.935  28.505  0.00  0.00    -0.024 A 
ATOM      6  C12 UNL     1      20.673   3.519  27.173  0.00  0.00    +0.046 C 
ATOM      7  C13 UNL     1      21.077   1.539  28.655  0.00  0.00    +0.043 A 
ATOM      8  C14 UNL     1      21.438   0.957  29.869  0.00  0.00    +0.124 A 
ATOM      9  F1  UNL     1      21.441  -0.394  29.995  0.00  0.00    -0.205 F 
ATOM     10  C15 UNL     1      21.793   1.756  30.954  0.00  0.00    +0.052 A 
ATOM     11  C16 UNL     1      21.792   3.158  30.837  0.00  0.00    +0.049 A 
ATOM     12  C17 UNL     1      22.152   3.979  31.924  0.00  0.00    +0.202 A 
ATOM     13  O3  UNL     1      22.521   3.459  33.014  0.00  0.00    -0.286 OA
ATOM     14  H14 UNL     1      21.186   5.598  28.603  0.00  0.00    +0.165 HD
ENDROOT
BRANCH   1  16
ATOM     15  N1  UNL     1      21.900   6.115  34.204  0.00  0.00    -0.306 N 
ATOM     16  C7  UNL     1      22.479   6.288  32.902  0.00  0.00    +0.249 C 
ATOM     17  O2  UNL     1      23.276   7.243  32.691  0.00  0.00    -0.270 OA
ATOM     18  H12 UNL     1      21.078   5.477  34.302  0.00  0.00    +0.149 HD
BRANCH  15  23
ATOM     19  C3  UNL     1      21.318   6.946  36.486  0.00  0.00    +0.138 C 
ATOM     20  O1  UNL     1      21.998   6.970  37.722  0.00  0.00    -0.375 OA
ATOM     21  C4  UNL     1      23.347   6.633  37.484  0.00  0.00    +0.162 C 
ATOM     22  C5  UNL     1      23.523   6.228  36.037  0.00  0.00    +0.053 C 
ATOM     23  C6  UNL     1      22.358   6.892  35.362  0.00  0.00    +0.104 C 
BRANCH  19  25
ATOM     24  C1  UNL     1      19.073   7.981  37.122  0.00  0.00    +0.006 C 
ATOM     25  C2  UNL     1      20.401   8.177  36.392  0.00  0.00    +0.030 C 
ENDBRANCH  19  25
ENDBRANCH  15  23
ENDBRANCH   1  16
TORSDOF 3
ENDMDL
MODEL 9
REMARK VINA RESULT:    -5.556     12.572     14.142
REMARK INTER + INTRA:          -7.261
REMARK INTER:                  -6.595
REMARK INTRA:                  -0.666
REMARK UNBOUND:                -0.730
REMARK  Name = /home/qwerty/github/datacon2025hack/step_04_hit_selection/docking/ligands/lig_3.pdb
REMARK  5 active torsions:
REMARK  status: ('A' for Active; 'I' for Inactive)
REMARK    1  A    between atoms: C1_1  and  C2_2
REMARK    2  A    between atoms: C2_2  and  C3_3
REMARK    3  A    between atoms: C6_7  and  N1_8
REMARK    4  A    between atoms: C7_9  and  C8_11
REMARK    5  A    between atoms: C11_15  and  C12_16
REMARK                            x       y       z     vdW  Elec       q    Type
REMARK                         _______ _______ _______ _____ _____    ______ ____
ROOT
ATOM      1  C8  UNL     1      10.267   9.973  25.858  0.00  0.00    +0.100 A 
ATOM      2  C9  UNL     1      11.383  10.819  25.856  0.00  0.00    +0.100 A 
ATOM      3  N2  UNL     1      11.420  11.926  26.642  0.00  0.00    -0.360 N 
ATOM      4  C10 UNL     1      10.379  12.270  27.460  0.00  0.00    +0.053 A 
ATOM      5  C11 UNL     1      10.435  13.429  28.280  0.00  0.00    -0.024 A 
ATOM      6  C12 UNL     1      11.642  14.330  28.297  0.00  0.00    +0.046 C 
ATOM      7  C13 UNL     1       9.340  13.749  29.100  0.00  0.00    +0.043 A 
ATOM      8  C14 UNL     1       8.203  12.944  29.114  0.00  0.00    +0.124 A 
ATOM      9  F1  UNL     1       7.155  13.271  29.911  0.00  0.00    -0.205 F 
ATOM     10  C15 UNL     1       8.137  11.806  28.314  0.00  0.00    +0.052 A 
ATOM     11  C16 UNL     1       9.218  11.455  27.483  0.00  0.00    +0.049 A 
ATOM     12  C17 UNL     1       9.166  10.308  26.666  0.00  0.00    +0.202 A 
ATOM     13  O3  UNL     1       8.122   9.596  26.641  0.00  0.00    -0.286 OA
ATOM     14  H14 UNL     1      12.286  12.507  26.596  0.00  0.00    +0.165 HD
ENDROOT
BRANCH   1  16
ATOM     15  N1  UNL     1       9.442   8.697  23.822  0.00  0.00    -0.306 N 
ATOM     16  C7  UNL     1      10.270   8.767  24.993  0.00  0.00    +0.249 C 
ATOM     17  O2  UNL     1      10.987   7.781  25.314  0.00  0.00    -0.270 OA
ATOM     18  H12 UNL     1       8.691   9.413  23.699  0.00  0.00    +0.149 HD
BRANCH  15  23
ATOM     19  C3  UNL     1       8.282   6.739  22.795  0.00  0.00    +0.138 C 
ATOM     20  O1  UNL     1       8.123   6.278  21.471  0.00  0.00    -0.375 OA
ATOM     21  C4  UNL     1       9.007   7.006  20.647  0.00  0.00    +0.162 C 
ATOM     22  C5  UNL     1       9.673   8.100  21.456  0.00  0.00    +0.053 C 
ATOM     23  C6  UNL     1       9.553   7.591  22.863  0.00  0.00    +0.104 C 
BRANCH  19  25
ATOM     24  C1  UNL     1       7.548   4.329  23.207  0.00  0.00    +0.006 C 
ATOM     25  C2  UNL     1       8.320   5.531  23.748  0.00  0.00    +0.030 C 
ENDBRANCH  19  25
ENDBRANCH  15  23
ENDBRANCH   1  16
TORSDOF 3
ENDMDL
