REMARK  Name = /home/qwerty/github/datacon2025hack/step_04_hit_selection/docking/ligands/lig_653.pdb
REMARK  2 active torsions:
REMARK  status: ('A' for Active; 'I' for Inactive)
REMARK    1  A    between atoms: C1_2  and  C2_3
REMARK    2  A    between atoms: C2_3  and  C3_4
REMARK                            x       y       z     vdW  Elec       q    Type
REMARK                         _______ _______ _______ _____ _____    ______ ____
ROOT
ATOM      1  O1  UNL     1      -0.590   0.744  -1.239  0.00  0.00    -0.275 OA
ATOM      2  C1  UNL     1      -0.216  -0.390  -0.830  0.00  0.00    +0.220 C 
ATOM      3  N1  UNL     1       1.193  -0.670  -0.714  0.00  0.00    -0.298 N 
ATOM      4  C12 UNL     1       1.713  -2.041  -0.851  0.00  0.00    +0.127 C 
ATOM      5  C13 UNL     1       2.999  -2.044  -1.682  0.00  0.00    +0.127 C 
ATOM      6  N2  UNL     1       3.872  -0.968  -1.228  0.00  0.00    -0.287 N 
ATOM      7  C14 UNL     1       5.139  -1.113  -0.592  0.00  0.00    +0.248 C 
ATOM      8  O3  UNL     1       5.792  -2.189  -0.536  0.00  0.00    -0.270 OA
ATOM      9  C15 UNL     1       5.536   0.148  -0.016  0.00  0.00    +0.043 A 
ATOM     10  C16 UNL     1       6.687   0.501   0.684  0.00  0.00    +0.028 A 
ATOM     11  C17 UNL     1       6.805   1.827   1.137  0.00  0.00    +0.019 A 
ATOM     12 BR1  UNL     1       8.359   2.365   2.106  0.00  0.00    -0.050 Br
ATOM     13  C18 UNL     1       5.777   2.760   0.878  0.00  0.00    +0.015 A 
ATOM     14  C19 UNL     1       4.626   2.374   0.170  0.00  0.00    +0.007 A 
ATOM     15  C20 UNL     1       4.524   1.052  -0.267  0.00  0.00    -0.013 A 
ATOM     16  C21 UNL     1       3.392   0.402  -1.022  0.00  0.00    +0.125 C 
ATOM     17  C22 UNL     1       2.098   0.369  -0.197  0.00  0.00    +0.135 C 
ENDROOT
BRANCH   2  18
ATOM     18  C2  UNL     1      -1.252  -1.439  -0.517  0.00  0.00    +0.131 C 
BRANCH  18  19
ATOM     19  C3  UNL     1      -2.458  -0.833   0.152  0.00  0.00    -0.038 A 
ATOM     20  C4  UNL     1      -2.427  -0.536   1.524  0.00  0.00    +0.008 A 
ATOM     21  C5  UNL     1      -3.528   0.064   2.141  0.00  0.00    +0.046 A 
ATOM     22  C6  UNL     1      -4.667   0.380   1.394  0.00  0.00    +0.124 A 
ATOM     23  C7  UNL     1      -4.715   0.074   0.020  0.00  0.00    -0.005 A 
ATOM     24  C8  UNL     1      -3.601  -0.511  -0.599  0.00  0.00    +0.011 A 
ATOM     25  C9  UNL     1      -5.932   0.440  -0.793  0.00  0.00    +0.042 C 
ATOM     26  C10 UNL     1      -7.179   0.583   0.090  0.00  0.00    +0.046 C 
ATOM     27  C11 UNL     1      -6.878   1.486   1.288  0.00  0.00    +0.229 C 
ATOM     28  O2  UNL     1      -5.764   0.979   2.024  0.00  0.00    -0.492 OA
ENDBRANCH  18  19
ENDBRANCH   2  18
TORSDOF 2
