MODEL 1
REMARK VINA RESULT:    -7.093      0.000      0.000
REMARK INTER + INTRA:         -10.820
REMARK INTER:                  -9.996
REMARK INTRA:                  -0.824
REMARK UNBOUND:                -0.824
REMARK  Name = /home/qwerty/github/datacon2025hack/step_04_hit_selection/docking/ligands/lig_418.pdb
REMARK  8 active torsions:
REMARK  status: ('A' for Active; 'I' for Inactive)
REMARK    1  A    between atoms: C1_1  and  C2_2
REMARK    2  A    between atoms: C2_2  and  C3_3
REMARK    3  A    between atoms: C2_2  and  N2_18
REMARK    4  A    between atoms: C3_3  and  C4_4
REMARK    5  A    between atoms: N1_6  and  C5_7
REMARK    6  A    between atoms: C7_9  and  C8_10
REMARK    7  A    between atoms: N2_18  and  C12_19
REMARK    8  A    between atoms: C12_19  and  C13_20
REMARK                            x       y       z     vdW  Elec       q    Type
REMARK                         _______ _______ _______ _____ _____    ______ ____
ROOT
ATOM      1  C3  UNL     1      22.615   5.554  34.158  0.00  0.00    +0.114 C 
ENDROOT
BRANCH   1   2
ATOM      2  C4  UNL     1      22.119   4.663  33.059  0.00  0.00    +0.219 C 
ATOM      3  O1  UNL     1      21.343   5.134  32.183  0.00  0.00    -0.275 OA
ATOM      4  N1  UNL     1      22.456   3.268  33.056  0.00  0.00    -0.284 N 
ATOM      5  H7  UNL     1      22.965   2.881  33.883  0.00  0.00    +0.155 HD
BRANCH   4   6
ATOM      6  C5  UNL     1      21.877   2.339  32.132  0.00  0.00    +0.052 A 
ATOM      7  C6  UNL     1      22.513   2.116  30.903  0.00  0.00    +0.037 A 
ATOM      8  C7  UNL     1      21.985   1.200  29.975  0.00  0.00    +0.057 A 
ATOM      9  C9  UNL     1      20.779   0.547  30.275  0.00  0.00    +0.014 A 
ATOM     10  C10 UNL     1      20.125   0.786  31.485  0.00  0.00    +0.022 A 
ATOM     11  C11 UNL     1      20.662   1.682  32.415  0.00  0.00    +0.062 A 
ATOM     12 CL1  UNL     1      19.746   2.028  33.876  0.00  0.00    -0.082 Cl
BRANCH   8  13
ATOM     13  C8  UNL     1      22.643   0.997  28.632  0.00  0.00    +0.417 C 
ATOM     14  F1  UNL     1      22.475  -0.319  28.240  0.00  0.00    -0.166 F 
ATOM     15  F2  UNL     1      22.085   1.827  27.675  0.00  0.00    -0.166 F 
ATOM     16  F3  UNL     1      23.996   1.276  28.712  0.00  0.00    -0.166 F 
ENDBRANCH   8  13
ENDBRANCH   4   6
ENDBRANCH   1   2
BRANCH   1  18
ATOM     17  C1  UNL     1      24.744   6.281  33.022  0.00  0.00    +0.024 C 
ATOM     18  C2  UNL     1      23.391   6.749  33.582  0.00  0.00    +0.060 C 
BRANCH  18  19
ATOM     19  N2  UNL     1      23.572   7.770  34.640  0.00  0.00    -0.305 NA
ATOM     20  H11 UNL     1      23.231   8.714  34.340  0.00  0.00    +0.123 HD
BRANCH  19  21
ATOM     21  C12 UNL     1      22.949   7.400  35.918  0.00  0.00    +0.178 C 
BRANCH  21  22
ATOM     22  C13 UNL     1      21.742   8.238  36.204  0.00  0.00    +0.211 A 
ATOM     23  N3  UNL     1      21.484   9.414  35.570  0.00  0.00    -0.212 NA
ATOM     24  C14 UNL     1      20.346   9.806  36.167  0.00  0.00    +0.111 A 
ATOM     25  C15 UNL     1      19.602  10.957  35.920  0.00  0.00    +0.051 A 
ATOM     26  C16 UNL     1      18.430  11.154  36.678  0.00  0.00    +0.043 A 
ATOM     27 CL2  UNL     1      17.445  12.576  36.406  0.00  0.00    -0.083 Cl
ATOM     28  C17 UNL     1      18.042  10.203  37.653  0.00  0.00    +0.024 A 
ATOM     29  C18 UNL     1      18.821   9.052  37.876  0.00  0.00    +0.050 A 
ATOM     30  C19 UNL     1      19.969   8.894  37.105  0.00  0.00    +0.155 A 
ATOM     31  O2  UNL     1      20.843   7.924  37.123  0.00  0.00    -0.438 OA
ENDBRANCH  21  22
ENDBRANCH  19  21
ENDBRANCH  18  19
ENDBRANCH   1  18
TORSDOF 7
ENDMDL
MODEL 2
REMARK VINA RESULT:    -7.002      4.890      7.387
REMARK INTER + INTRA:         -10.692
REMARK INTER:                  -9.937
REMARK INTRA:                  -0.754
REMARK UNBOUND:                -0.824
REMARK  Name = /home/qwerty/github/datacon2025hack/step_04_hit_selection/docking/ligands/lig_418.pdb
REMARK  8 active torsions:
REMARK  status: ('A' for Active; 'I' for Inactive)
REMARK    1  A    between atoms: C1_1  and  C2_2
REMARK    2  A    between atoms: C2_2  and  C3_3
REMARK    3  A    between atoms: C2_2  and  N2_18
REMARK    4  A    between atoms: C3_3  and  C4_4
REMARK    5  A    between atoms: N1_6  and  C5_7
REMARK    6  A    between atoms: C7_9  and  C8_10
REMARK    7  A    between atoms: N2_18  and  C12_19
REMARK    8  A    between atoms: C12_19  and  C13_20
REMARK                            x       y       z     vdW  Elec       q    Type
REMARK                         _______ _______ _______ _____ _____    ______ ____
ROOT
ATOM      1  C3  UNL     1      19.198  10.521  37.108  0.00  0.00    +0.114 C 
ENDROOT
BRANCH   1   2
ATOM      2  C4  UNL     1      19.980   9.496  36.342  0.00  0.00    +0.219 C 
ATOM      3  O1  UNL     1      19.367   8.657  35.628  0.00  0.00    -0.275 OA
ATOM      4  N1  UNL     1      21.406   9.420  36.491  0.00  0.00    -0.284 N 
ATOM      5  H7  UNL     1      21.860  10.024  37.213  0.00  0.00    +0.155 HD
BRANCH   4   6
ATOM      6  C5  UNL     1      22.183   8.361  35.919  0.00  0.00    +0.052 A 
ATOM      7  C6  UNL     1      22.651   8.494  34.604  0.00  0.00    +0.037 A 
ATOM      8  C7  UNL     1      23.430   7.484  34.013  0.00  0.00    +0.057 A 
ATOM      9  C9  UNL     1      23.692   6.312  34.740  0.00  0.00    +0.014 A 
ATOM     10  C10 UNL     1      23.205   6.162  36.040  0.00  0.00    +0.022 A 
ATOM     11  C11 UNL     1      22.447   7.175  36.634  0.00  0.00    +0.062 A 
ATOM     12 CL1  UNL     1      21.768   6.892  38.232  0.00  0.00    -0.082 Cl
BRANCH   8  13
ATOM     13  C8  UNL     1      23.892   7.605  32.581  0.00  0.00    +0.417 C 
ATOM     14  F1  UNL     1      24.484   6.417  32.193  0.00  0.00    -0.166 F 
ATOM     15  F2  UNL     1      22.828   7.875  31.737  0.00  0.00    -0.166 F 
ATOM     16  F3  UNL     1      24.813   8.631  32.457  0.00  0.00    -0.166 F 
ENDBRANCH   8  13
ENDBRANCH   4   6
ENDBRANCH   1   2
BRANCH   1  18
ATOM     17  C1  UNL     1      20.084  12.617  36.026  0.00  0.00    +0.024 C 
ATOM     18  C2  UNL     1      18.849  11.721  36.214  0.00  0.00    +0.060 C 
BRANCH  18  19
ATOM     19  N2  UNL     1      17.727  12.474  36.821  0.00  0.00    -0.305 NA
ATOM     20  H11 UNL     1      17.215  13.055  36.115  0.00  0.00    +0.123 HD
BRANCH  19  21
ATOM     21  C12 UNL     1      16.777  11.617  37.543  0.00  0.00    +0.178 C 
BRANCH  21  22
ATOM     22  C13 UNL     1      15.363  11.910  37.147  0.00  0.00    +0.211 A 
ATOM     23  N3  UNL     1      14.962  13.110  36.644  0.00  0.00    -0.212 NA
ATOM     24  C14 UNL     1      13.644  12.913  36.476  0.00  0.00    +0.111 A 
ATOM     25  C15 UNL     1      12.701  13.810  35.981  0.00  0.00    +0.051 A 
ATOM     26  C16 UNL     1      11.364  13.372  35.894  0.00  0.00    +0.043 A 
ATOM     27 CL2  UNL     1      10.133  14.449  35.268  0.00  0.00    -0.083 Cl
ATOM     28  C17 UNL     1      11.014  12.062  36.303  0.00  0.00    +0.024 A 
ATOM     29  C18 UNL     1      11.995  11.184  36.800  0.00  0.00    +0.050 A 
ATOM     30  C19 UNL     1      13.303  11.655  36.868  0.00  0.00    +0.155 A 
ATOM     31  O2  UNL     1      14.376  11.039  37.286  0.00  0.00    -0.438 OA
ENDBRANCH  21  22
ENDBRANCH  19  21
ENDBRANCH  18  19
ENDBRANCH   1  18
TORSDOF 7
ENDMDL
MODEL 3
REMARK VINA RESULT:    -6.957      7.147     10.532
REMARK INTER + INTRA:         -10.628
REMARK INTER:                  -9.675
REMARK INTRA:                  -0.952
REMARK UNBOUND:                -0.824
REMARK  Name = /home/qwerty/github/datacon2025hack/step_04_hit_selection/docking/ligands/lig_418.pdb
REMARK  8 active torsions:
REMARK  status: ('A' for Active; 'I' for Inactive)
REMARK    1  A    between atoms: C1_1  and  C2_2
REMARK    2  A    between atoms: C2_2  and  C3_3
REMARK    3  A    between atoms: C2_2  and  N2_18
REMARK    4  A    between atoms: C3_3  and  C4_4
REMARK    5  A    between atoms: N1_6  and  C5_7
REMARK    6  A    between atoms: C7_9  and  C8_10
REMARK    7  A    between atoms: N2_18  and  C12_19
REMARK    8  A    between atoms: C12_19  and  C13_20
REMARK                            x       y       z     vdW  Elec       q    Type
REMARK                         _______ _______ _______ _____ _____    ______ ____
ROOT
ATOM      1  C3  UNL     1      18.141   8.785  38.181  0.00  0.00    +0.114 C 
ENDROOT
BRANCH   1   2
ATOM      2  C4  UNL     1      17.626   9.861  37.272  0.00  0.00    +0.219 C 
ATOM      3  O1  UNL     1      16.929   9.544  36.271  0.00  0.00    -0.275 OA
ATOM      4  N1  UNL     1      17.999  11.230  37.495  0.00  0.00    -0.284 N 
ATOM      5  H7  UNL     1      18.707  11.435  38.235  0.00  0.00    +0.155 HD
BRANCH   4   6
ATOM      6  C5  UNL     1      17.678  12.273  36.567  0.00  0.00    +0.052 A 
ATOM      7  C6  UNL     1      16.481  12.984  36.731  0.00  0.00    +0.037 A 
ATOM      8  C7  UNL     1      16.137  14.026  35.852  0.00  0.00    +0.057 A 
ATOM      9  C9  UNL     1      16.988  14.314  34.772  0.00  0.00    +0.014 A 
ATOM     10  C10 UNL     1      18.168  13.592  34.588  0.00  0.00    +0.022 A 
ATOM     11  C11 UNL     1      18.517  12.569  35.474  0.00  0.00    +0.062 A 
ATOM     12 CL1  UNL     1      19.959  11.619  35.137  0.00  0.00    -0.082 Cl
BRANCH   8  13
ATOM     13  C8  UNL     1      14.825  14.758  35.998  0.00  0.00    +0.417 C 
ATOM     14  F1  UNL     1      14.185  14.316  37.141  0.00  0.00    -0.166 F 
ATOM     15  F2  UNL     1      15.026  16.125  36.094  0.00  0.00    -0.166 F 
ATOM     16  F3  UNL     1      14.014  14.516  34.902  0.00  0.00    -0.166 F 
ENDBRANCH   8  13
ENDBRANCH   4   6
ENDBRANCH   1   2
BRANCH   1  18
ATOM     17  C1  UNL     1      18.867   6.416  37.720  0.00  0.00    +0.024 C 
ATOM     18  C2  UNL     1      19.164   7.900  37.453  0.00  0.00    +0.060 C 
BRANCH  18  19
ATOM     19  N2  UNL     1      20.530   8.262  37.899  0.00  0.00    -0.305 NA
ATOM     20  H11 UNL     1      20.555   8.538  38.909  0.00  0.00    +0.123 HD
BRANCH  19  21
ATOM     21  C12 UNL     1      21.522   7.209  37.645  0.00  0.00    +0.178 C 
BRANCH  21  22
ATOM     22  C13 UNL     1      22.284   7.465  36.382  0.00  0.00    +0.211 A 
ATOM     23  N3  UNL     1      22.042   8.528  35.567  0.00  0.00    -0.212 NA
ATOM     24  C14 UNL     1      22.922   8.322  34.574  0.00  0.00    +0.111 A 
ATOM     25  C15 UNL     1      23.134   9.104  33.442  0.00  0.00    +0.051 A 
ATOM     26  C16 UNL     1      24.125   8.682  32.532  0.00  0.00    +0.043 A 
ATOM     27 CL2  UNL     1      24.447   9.630  31.094  0.00  0.00    -0.083 Cl
ATOM     28  C17 UNL     1      24.866   7.501  32.779  0.00  0.00    +0.024 A 
ATOM     29  C18 UNL     1      24.622   6.735  33.934  0.00  0.00    +0.050 A 
ATOM     30  C19 UNL     1      23.637   7.187  34.808  0.00  0.00    +0.155 A 
ATOM     31  O2  UNL     1      23.233   6.659  35.932  0.00  0.00    -0.438 OA
ENDBRANCH  21  22
ENDBRANCH  19  21
ENDBRANCH  18  19
ENDBRANCH   1  18
TORSDOF 7
ENDMDL
MODEL 4
REMARK VINA RESULT:    -6.955     14.976     16.059
REMARK INTER + INTRA:         -10.626
REMARK INTER:                  -8.697
REMARK INTRA:                  -1.929
REMARK UNBOUND:                -0.824
REMARK  Name = /home/qwerty/github/datacon2025hack/step_04_hit_selection/docking/ligands/lig_418.pdb
REMARK  8 active torsions:
REMARK  status: ('A' for Active; 'I' for Inactive)
REMARK    1  A    between atoms: C1_1  and  C2_2
REMARK    2  A    between atoms: C2_2  and  C3_3
REMARK    3  A    between atoms: C2_2  and  N2_18
REMARK    4  A    between atoms: C3_3  and  C4_4
REMARK    5  A    between atoms: N1_6  and  C5_7
REMARK    6  A    between atoms: C7_9  and  C8_10
REMARK    7  A    between atoms: N2_18  and  C12_19
REMARK    8  A    between atoms: C12_19  and  C13_20
REMARK                            x       y       z     vdW  Elec       q    Type
REMARK                         _______ _______ _______ _____ _____    ______ ____
ROOT
ATOM      1  C3  UNL     1       9.662   6.490  25.805  0.00  0.00    +0.114 C 
ENDROOT
BRANCH   1   2
ATOM      2  C4  UNL     1       9.209   7.202  24.566  0.00  0.00    +0.219 C 
ATOM      3  O1  UNL     1       8.587   6.560  23.676  0.00  0.00    -0.275 OA
ATOM      4  N1  UNL     1       9.556   8.579  24.359  0.00  0.00    -0.284 N 
ATOM      5  H7  UNL     1      10.208   9.032  25.040  0.00  0.00    +0.155 HD
BRANCH   4   6
ATOM      6  C5  UNL     1       9.298   9.260  23.126  0.00  0.00    +0.052 A 
ATOM      7  C6  UNL     1      10.273   9.236  22.118  0.00  0.00    +0.037 A 
ATOM      8  C7  UNL     1      10.051   9.878  20.887  0.00  0.00    +0.057 A 
ATOM      9  C9  UNL     1       8.856  10.592  20.697  0.00  0.00    +0.014 A 
ATOM     10  C10 UNL     1       7.894  10.643  21.707  0.00  0.00    +0.022 A 
ATOM     11  C11 UNL     1       8.107   9.987  22.923  0.00  0.00    +0.062 A 
ATOM     12 CL1  UNL     1       6.912  10.172  24.200  0.00  0.00    -0.082 Cl
BRANCH   8  13
ATOM     13  C8  UNL     1      11.120   9.894  19.822  0.00  0.00    +0.417 C 
ATOM     14  F1  UNL     1      12.162  10.703  20.237  0.00  0.00    -0.166 F 
ATOM     15  F2  UNL     1      11.606   8.619  19.587  0.00  0.00    -0.166 F 
ATOM     16  F3  UNL     1      10.609  10.389  18.634  0.00  0.00    -0.166 F 
ENDBRANCH   8  13
ENDBRANCH   4   6
ENDBRANCH   1   2
BRANCH   1  18
ATOM     17  C1  UNL     1       7.889   5.310  27.152  0.00  0.00    +0.024 C 
ATOM     18  C2  UNL     1       8.627   6.640  26.930  0.00  0.00    +0.060 C 
BRANCH  18  19
ATOM     19  N2  UNL     1       7.682   7.727  26.583  0.00  0.00    -0.305 NA
ATOM     20  H11 UNL     1       6.847   7.372  26.058  0.00  0.00    +0.123 HD
BRANCH  19  21
ATOM     21  C12 UNL     1       7.242   8.507  27.748  0.00  0.00    +0.178 C 
BRANCH  21  22
ATOM     22  C13 UNL     1       7.989   9.801  27.855  0.00  0.00    +0.211 A 
ATOM     23  N3  UNL     1       9.100  10.084  27.122  0.00  0.00    -0.212 NA
ATOM     24  C14 UNL     1       9.426  11.306  27.574  0.00  0.00    +0.111 A 
ATOM     25  C15 UNL     1      10.492  12.109  27.179  0.00  0.00    +0.051 A 
ATOM     26  C16 UNL     1      10.630  13.366  27.801  0.00  0.00    +0.043 A 
ATOM     27 CL2  UNL     1      11.945  14.428  27.338  0.00  0.00    -0.083 Cl
ATOM     28  C17 UNL     1       9.706  13.778  28.792  0.00  0.00    +0.024 A 
ATOM     29  C18 UNL     1       8.641  12.938  29.167  0.00  0.00    +0.050 A 
ATOM     30  C19 UNL     1       8.539  11.706  28.528  0.00  0.00    +0.155 A 
ATOM     31  O2  UNL     1       7.651  10.764  28.698  0.00  0.00    -0.438 OA
ENDBRANCH  21  22
ENDBRANCH  19  21
ENDBRANCH  18  19
ENDBRANCH   1  18
TORSDOF 7
ENDMDL
MODEL 5
REMARK VINA RESULT:    -6.868      4.301      7.351
REMARK INTER + INTRA:         -10.502
REMARK INTER:                  -7.754
REMARK INTRA:                  -2.749
REMARK UNBOUND:                -0.824
REMARK  Name = /home/qwerty/github/datacon2025hack/step_04_hit_selection/docking/ligands/lig_418.pdb
REMARK  8 active torsions:
REMARK  status: ('A' for Active; 'I' for Inactive)
REMARK    1  A    between atoms: C1_1  and  C2_2
REMARK    2  A    between atoms: C2_2  and  C3_3
REMARK    3  A    between atoms: C2_2  and  N2_18
REMARK    4  A    between atoms: C3_3  and  C4_4
REMARK    5  A    between atoms: N1_6  and  C5_7
REMARK    6  A    between atoms: C7_9  and  C8_10
REMARK    7  A    between atoms: N2_18  and  C12_19
REMARK    8  A    between atoms: C12_19  and  C13_20
REMARK                            x       y       z     vdW  Elec       q    Type
REMARK                         _______ _______ _______ _____ _____    ______ ____
ROOT
ATOM      1  C3  UNL     1      18.184   2.529  33.048  0.00  0.00    +0.114 C 
ENDROOT
BRANCH   1   2
ATOM      2  C4  UNL     1      18.802   3.291  34.182  0.00  0.00    +0.219 C 
ATOM      3  O1  UNL     1      18.945   2.728  35.301  0.00  0.00    -0.275 OA
ATOM      4  N1  UNL     1      19.147   4.675  34.015  0.00  0.00    -0.284 N 
ATOM      5  H7  UNL     1      18.866   5.150  33.128  0.00  0.00    +0.155 HD
BRANCH   4   6
ATOM      6  C5  UNL     1      19.581   5.495  35.107  0.00  0.00    +0.052 A 
ATOM      7  C6  UNL     1      20.951   5.741  35.269  0.00  0.00    +0.037 A 
ATOM      8  C7  UNL     1      21.417   6.554  36.318  0.00  0.00    +0.057 A 
ATOM      9  C9  UNL     1      20.491   7.078  37.235  0.00  0.00    +0.014 A 
ATOM     10  C10 UNL     1      19.128   6.813  37.095  0.00  0.00    +0.022 A 
ATOM     11  C11 UNL     1      18.665   6.021  36.040  0.00  0.00    +0.062 A 
ATOM     12 CL1  UNL     1      16.951   5.630  35.970  0.00  0.00    -0.082 Cl
BRANCH   8  13
ATOM     13  C8  UNL     1      22.895   6.779  36.522  0.00  0.00    +0.417 C 
ATOM     14  F1  UNL     1      23.262   7.964  35.911  0.00  0.00    -0.166 F 
ATOM     15  F2  UNL     1      23.205   6.852  37.870  0.00  0.00    -0.166 F 
ATOM     16  F3  UNL     1      23.621   5.739  35.967  0.00  0.00    -0.166 F 
ENDBRANCH   8  13
ENDBRANCH   4   6
ENDBRANCH   1   2
BRANCH   1  18
ATOM     17  C1  UNL     1      18.911   0.180  32.492  0.00  0.00    +0.024 C 
ATOM     18  C2  UNL     1      19.238   1.674  32.328  0.00  0.00    +0.060 C 
BRANCH  18  19
ATOM     19  N2  UNL     1      20.579   1.992  32.869  0.00  0.00    -0.305 NA
ATOM     20  H11 UNL     1      20.951   1.226  33.479  0.00  0.00    +0.123 HD
BRANCH  19  21
ATOM     21  C12 UNL     1      21.562   2.320  31.827  0.00  0.00    +0.178 C 
BRANCH  21  22
ATOM     22  C13 UNL     1      22.208   3.648  32.080  0.00  0.00    +0.211 A 
ATOM     23  N3  UNL     1      21.598   4.836  31.816  0.00  0.00    -0.212 NA
ATOM     24  C14 UNL     1      22.549   5.718  32.164  0.00  0.00    +0.111 A 
ATOM     25  C15 UNL     1      22.488   7.108  32.109  0.00  0.00    +0.051 A 
ATOM     26  C16 UNL     1      23.623   7.830  32.533  0.00  0.00    +0.043 A 
ATOM     27 CL2  UNL     1      23.604   9.581  32.500  0.00  0.00    -0.083 Cl
ATOM     28  C17 UNL     1      24.774   7.145  32.992  0.00  0.00    +0.024 A 
ATOM     29  C18 UNL     1      24.799   5.738  33.031  0.00  0.00    +0.050 A 
ATOM     30  C19 UNL     1      23.658   5.064  32.606  0.00  0.00    +0.155 A 
ATOM     31  O2  UNL     1      23.438   3.778  32.549  0.00  0.00    -0.438 OA
ENDBRANCH  21  22
ENDBRANCH  19  21
ENDBRANCH  18  19
ENDBRANCH   1  18
TORSDOF 7
ENDMDL
MODEL 6
REMARK VINA RESULT:    -6.794     15.250     16.297
REMARK INTER + INTRA:         -10.398
REMARK INTER:                  -8.675
REMARK INTRA:                  -1.723
REMARK UNBOUND:                -0.824
REMARK  Name = /home/qwerty/github/datacon2025hack/step_04_hit_selection/docking/ligands/lig_418.pdb
REMARK  8 active torsions:
REMARK  status: ('A' for Active; 'I' for Inactive)
REMARK    1  A    between atoms: C1_1  and  C2_2
REMARK    2  A    between atoms: C2_2  and  C3_3
REMARK    3  A    between atoms: C2_2  and  N2_18
REMARK    4  A    between atoms: C3_3  and  C4_4
REMARK    5  A    between atoms: N1_6  and  C5_7
REMARK    6  A    between atoms: C7_9  and  C8_10
REMARK    7  A    between atoms: N2_18  and  C12_19
REMARK    8  A    between atoms: C12_19  and  C13_20
REMARK                            x       y       z     vdW  Elec       q    Type
REMARK                         _______ _______ _______ _____ _____    ______ ____
ROOT
ATOM      1  C3  UNL     1       8.351   3.731  25.261  0.00  0.00    +0.114 C 
ENDROOT
BRANCH   1   2
ATOM      2  C4  UNL     1       8.979   4.645  24.251  0.00  0.00    +0.219 C 
ATOM      3  O1  UNL     1      10.232   4.785  24.239  0.00  0.00    -0.275 OA
ATOM      4  N1  UNL     1       8.153   5.416  23.366  0.00  0.00    -0.284 N 
ATOM      5  H7  UNL     1       7.119   5.397  23.514  0.00  0.00    +0.155 HD
BRANCH   4   6
ATOM      6  C5  UNL     1       8.687   6.425  22.501  0.00  0.00    +0.052 A 
ATOM      7  C6  UNL     1       8.597   7.770  22.889  0.00  0.00    +0.037 A 
ATOM      8  C7  UNL     1       9.123   8.789  22.075  0.00  0.00    +0.057 A 
ATOM      9  C9  UNL     1       9.697   8.447  20.840  0.00  0.00    +0.014 A 
ATOM     10  C10 UNL     1       9.765   7.112  20.436  0.00  0.00    +0.022 A 
ATOM     11  C11 UNL     1       9.259   6.098  21.255  0.00  0.00    +0.062 A 
ATOM     12 CL1  UNL     1       9.272   4.445  20.654  0.00  0.00    -0.082 Cl
BRANCH   8  13
ATOM     13  C8  UNL     1       8.982  10.239  22.468  0.00  0.00    +0.417 C 
ATOM     14  F1  UNL     1       8.368  10.930  21.439  0.00  0.00    -0.166 F 
ATOM     15  F2  UNL     1       8.220  10.372  23.617  0.00  0.00    -0.166 F 
ATOM     16  F3  UNL     1      10.226  10.797  22.708  0.00  0.00    -0.166 F 
ENDBRANCH   8  13
ENDBRANCH   4   6
ENDBRANCH   1   2
BRANCH   1  18
ATOM     17  C1  UNL     1       7.211   3.839  27.506  0.00  0.00    +0.024 C 
ATOM     18  C2  UNL     1       8.384   4.362  26.662  0.00  0.00    +0.060 C 
BRANCH  18  19
ATOM     19  N2  UNL     1       8.337   5.837  26.535  0.00  0.00    -0.305 NA
ATOM     20  H11 UNL     1       8.418   6.151  25.539  0.00  0.00    +0.123 HD
BRANCH  19  21
ATOM     21  C12 UNL     1       7.145   6.435  27.150  0.00  0.00    +0.178 C 
BRANCH  21  22
ATOM     22  C13 UNL     1       7.373   7.872  27.508  0.00  0.00    +0.211 A 
ATOM     23  N3  UNL     1       7.845   8.794  26.626  0.00  0.00    -0.212 NA
ATOM     24  C14 UNL     1       7.914   9.897  27.389  0.00  0.00    +0.111 A 
ATOM     25  C15 UNL     1       8.333  11.171  27.016  0.00  0.00    +0.051 A 
ATOM     26  C16 UNL     1       8.316  12.180  28.001  0.00  0.00    +0.043 A 
ATOM     27 CL2  UNL     1       8.820  13.807  27.592  0.00  0.00    -0.083 Cl
ATOM     28  C17 UNL     1       7.887  11.885  29.318  0.00  0.00    +0.024 A 
ATOM     29  C18 UNL     1       7.472  10.584  29.658  0.00  0.00    +0.050 A 
ATOM     30  C19 UNL     1       7.501   9.618  28.656  0.00  0.00    +0.155 A 
ATOM     31  O2  UNL     1       7.169   8.357  28.722  0.00  0.00    -0.438 OA
ENDBRANCH  21  22
ENDBRANCH  19  21
ENDBRANCH  18  19
ENDBRANCH   1  18
TORSDOF 7
ENDMDL
MODEL 7
REMARK VINA RESULT:    -6.785      5.899      7.663
REMARK INTER + INTRA:         -10.385
REMARK INTER:                  -7.743
REMARK INTRA:                  -2.643
REMARK UNBOUND:                -0.824
REMARK  Name = /home/qwerty/github/datacon2025hack/step_04_hit_selection/docking/ligands/lig_418.pdb
REMARK  8 active torsions:
REMARK  status: ('A' for Active; 'I' for Inactive)
REMARK    1  A    between atoms: C1_1  and  C2_2
REMARK    2  A    between atoms: C2_2  and  C3_3
REMARK    3  A    between atoms: C2_2  and  N2_18
REMARK    4  A    between atoms: C3_3  and  C4_4
REMARK    5  A    between atoms: N1_6  and  C5_7
REMARK    6  A    between atoms: C7_9  and  C8_10
REMARK    7  A    between atoms: N2_18  and  C12_19
REMARK    8  A    between atoms: C12_19  and  C13_20
REMARK                            x       y       z     vdW  Elec       q    Type
REMARK                         _______ _______ _______ _____ _____    ______ ____
ROOT
ATOM      1  C3  UNL     1      23.700   7.443  31.994  0.00  0.00    +0.114 C 
ENDROOT
BRANCH   1   2
ATOM      2  C4  UNL     1      23.029   8.782  32.080  0.00  0.00    +0.219 C 
ATOM      3  O1  UNL     1      23.716   9.829  31.931  0.00  0.00    -0.275 OA
ATOM      4  N1  UNL     1      21.636   8.868  32.413  0.00  0.00    -0.284 N 
ATOM      5  H7  UNL     1      21.138   7.991  32.688  0.00  0.00    +0.155 HD
BRANCH   4   6
ATOM      6  C5  UNL     1      20.984  10.117  32.674  0.00  0.00    +0.052 A 
ATOM      7  C6  UNL     1      20.899  10.577  33.995  0.00  0.00    +0.037 A 
ATOM      8  C7  UNL     1      20.281  11.805  34.291  0.00  0.00    +0.057 A 
ATOM      9  C9  UNL     1      19.703  12.545  33.247  0.00  0.00    +0.014 A 
ATOM     10  C10 UNL     1      19.760  12.079  31.933  0.00  0.00    +0.022 A 
ATOM     11  C11 UNL     1      20.391  10.867  31.638  0.00  0.00    +0.062 A 
ATOM     12 CL1  UNL     1      20.343  10.273  29.983  0.00  0.00    -0.082 Cl
BRANCH   8  13
ATOM     13  C8  UNL     1      20.145  12.276  35.718  0.00  0.00    +0.417 C 
ATOM     14  F1  UNL     1      20.011  11.177  36.548  0.00  0.00    -0.166 F 
ATOM     15  F2  UNL     1      21.257  13.002  36.110  0.00  0.00    -0.166 F 
ATOM     16  F3  UNL     1      19.030  13.085  35.855  0.00  0.00    -0.166 F 
ENDBRANCH   8  13
ENDBRANCH   4   6
ENDBRANCH   1   2
BRANCH   1  18
ATOM     17  C1  UNL     1      24.973   5.756  33.368  0.00  0.00    +0.024 C 
ATOM     18  C2  UNL     1      24.685   7.252  33.158  0.00  0.00    +0.060 C 
BRANCH  18  19
ATOM     19  N2  UNL     1      24.121   7.867  34.382  0.00  0.00    -0.305 NA
ATOM     20  H11 UNL     1      23.427   8.621  34.162  0.00  0.00    +0.123 HD
BRANCH  19  21
ATOM     21  C12 UNL     1      23.519   6.889  35.298  0.00  0.00    +0.178 C 
BRANCH  21  22
ATOM     22  C13 UNL     1      22.090   7.223  35.597  0.00  0.00    +0.211 A 
ATOM     23  N3  UNL     1      21.670   7.694  36.803  0.00  0.00    -0.212 NA
ATOM     24  C14 UNL     1      20.346   7.811  36.609  0.00  0.00    +0.111 A 
ATOM     25  C15 UNL     1      19.385   8.256  37.512  0.00  0.00    +0.051 A 
ATOM     26  C16 UNL     1      18.045   8.294  37.075  0.00  0.00    +0.043 A 
ATOM     27 CL2  UNL     1      16.790   8.855  38.161  0.00  0.00    -0.083 Cl
ATOM     28  C17 UNL     1      17.710   7.887  35.761  0.00  0.00    +0.024 A 
ATOM     29  C18 UNL     1      18.710   7.442  34.876  0.00  0.00    +0.050 A 
ATOM     30  C19 UNL     1      20.020   7.421  35.345  0.00  0.00    +0.155 A 
ATOM     31  O2  UNL     1      21.109   7.056  34.724  0.00  0.00    -0.438 OA
ENDBRANCH  21  22
ENDBRANCH  19  21
ENDBRANCH  18  19
ENDBRANCH   1  18
TORSDOF 7
ENDMDL
MODEL 8
REMARK VINA RESULT:    -6.777     15.367     17.058
REMARK INTER + INTRA:         -10.375
REMARK INTER:                  -7.867
REMARK INTRA:                  -2.508
REMARK UNBOUND:                -0.824
REMARK  Name = /home/qwerty/github/datacon2025hack/step_04_hit_selection/docking/ligands/lig_418.pdb
REMARK  8 active torsions:
REMARK  status: ('A' for Active; 'I' for Inactive)
REMARK    1  A    between atoms: C1_1  and  C2_2
REMARK    2  A    between atoms: C2_2  and  C3_3
REMARK    3  A    between atoms: C2_2  and  N2_18
REMARK    4  A    between atoms: C3_3  and  C4_4
REMARK    5  A    between atoms: N1_6  and  C5_7
REMARK    6  A    between atoms: C7_9  and  C8_10
REMARK    7  A    between atoms: N2_18  and  C12_19
REMARK    8  A    between atoms: C12_19  and  C13_20
REMARK                            x       y       z     vdW  Elec       q    Type
REMARK                         _______ _______ _______ _____ _____    ______ ____
ROOT
ATOM      1  C3  UNL     1      12.957   2.794  20.293  0.00  0.00    +0.114 C 
ENDROOT
BRANCH   1   2
ATOM      2  C4  UNL     1      13.005   4.291  20.213  0.00  0.00    +0.219 C 
ATOM      3  O1  UNL     1      13.619   4.841  19.259  0.00  0.00    -0.275 OA
ATOM      4  N1  UNL     1      12.431   5.086  21.262  0.00  0.00    -0.284 N 
ATOM      5  H7  UNL     1      12.076   4.597  22.114  0.00  0.00    +0.155 HD
BRANCH   4   6
ATOM      6  C5  UNL     1      12.594   6.508  21.325  0.00  0.00    +0.052 A 
ATOM      7  C6  UNL     1      11.642   7.330  20.706  0.00  0.00    +0.037 A 
ATOM      8  C7  UNL     1      11.757   8.730  20.759  0.00  0.00    +0.057 A 
ATOM      9  C9  UNL     1      12.870   9.298  21.399  0.00  0.00    +0.014 A 
ATOM     10  C10 UNL     1      13.837   8.485  21.993  0.00  0.00    +0.022 A 
ATOM     11  C11 UNL     1      13.711   7.093  21.956  0.00  0.00    +0.062 A 
ATOM     12 CL1  UNL     1      15.008   6.112  22.626  0.00  0.00    -0.082 Cl
BRANCH   8  13
ATOM     13  C8  UNL     1      10.759   9.613  20.050  0.00  0.00    +0.417 C 
ATOM     14  F1  UNL     1      11.255   9.949  18.804  0.00  0.00    -0.166 F 
ATOM     15  F2  UNL     1       9.546   8.965  19.891  0.00  0.00    -0.166 F 
ATOM     16  F3  UNL     1      10.539  10.771  20.777  0.00  0.00    -0.166 F 
ENDBRANCH   8  13
ENDBRANCH   4   6
ENDBRANCH   1   2
BRANCH   1  18
ATOM     17  C1  UNL     1      12.811   1.034  22.091  0.00  0.00    +0.024 C 
ATOM     18  C2  UNL     1      12.202   2.339  21.550  0.00  0.00    +0.060 C 
BRANCH  18  19
ATOM     19  N2  UNL     1      10.767   2.167  21.225  0.00  0.00    -0.305 NA
ATOM     20  H11 UNL     1      10.561   1.212  20.845  0.00  0.00    +0.123 HD
BRANCH  19  21
ATOM     21  C12 UNL     1       9.876   2.457  22.356  0.00  0.00    +0.178 C 
BRANCH  21  22
ATOM     22  C13 UNL     1       9.408   3.880  22.336  0.00  0.00    +0.211 A 
ATOM     23  N3  UNL     1       9.879   4.831  23.187  0.00  0.00    -0.212 NA
ATOM     24  C14 UNL     1       9.161   5.907  22.822  0.00  0.00    +0.111 A 
ATOM     25  C15 UNL     1       9.217   7.193  23.353  0.00  0.00    +0.051 A 
ATOM     26  C16 UNL     1       8.360   8.167  22.800  0.00  0.00    +0.043 A 
ATOM     27 CL2  UNL     1       8.391   9.806  23.417  0.00  0.00    -0.083 Cl
ATOM     28  C17 UNL     1       7.480   7.826  21.744  0.00  0.00    +0.024 A 
ATOM     29  C18 UNL     1       7.451   6.515  21.235  0.00  0.00    +0.050 A 
ATOM     30  C19 UNL     1       8.314   5.584  21.806  0.00  0.00    +0.155 A 
ATOM     31  O2  UNL     1       8.472   4.322  21.512  0.00  0.00    -0.438 OA
ENDBRANCH  21  22
ENDBRANCH  19  21
ENDBRANCH  18  19
ENDBRANCH   1  18
TORSDOF 7
ENDMDL
MODEL 9
REMARK VINA RESULT:    -6.722      9.623     13.076
REMARK INTER + INTRA:         -10.297
REMARK INTER:                  -9.523
REMARK INTRA:                  -0.774
REMARK UNBOUND:                -0.824
REMARK  Name = /home/qwerty/github/datacon2025hack/step_04_hit_selection/docking/ligands/lig_418.pdb
REMARK  8 active torsions:
REMARK  status: ('A' for Active; 'I' for Inactive)
REMARK    1  A    between atoms: C1_1  and  C2_2
REMARK    2  A    between atoms: C2_2  and  C3_3
REMARK    3  A    between atoms: C2_2  and  N2_18
REMARK    4  A    between atoms: C3_3  and  C4_4
REMARK    5  A    between atoms: N1_6  and  C5_7
REMARK    6  A    between atoms: C7_9  and  C8_10
REMARK    7  A    between atoms: N2_18  and  C12_19
REMARK    8  A    between atoms: C12_19  and  C13_20
REMARK                            x       y       z     vdW  Elec       q    Type
REMARK                         _______ _______ _______ _____ _____    ______ ____
ROOT
ATOM      1  C3  UNL     1      13.188  14.244  34.139  0.00  0.00    +0.114 C 
ENDROOT
BRANCH   1   2
ATOM      2  C4  UNL     1      12.608  14.562  32.793  0.00  0.00    +0.219 C 
ATOM      3  O1  UNL     1      12.175  15.724  32.566  0.00  0.00    -0.275 OA
ATOM      4  N1  UNL     1      12.469  13.529  31.806  0.00  0.00    -0.284 N 
ATOM      5  H7  UNL     1      12.688  12.546  32.086  0.00  0.00    +0.155 HD
BRANCH   4   6
ATOM      6  C5  UNL     1      11.771  13.734  30.572  0.00  0.00    +0.052 A 
ATOM      7  C6  UNL     1      10.427  13.346  30.479  0.00  0.00    +0.037 A 
ATOM      8  C7  UNL     1       9.702  13.544  29.290  0.00  0.00    +0.057 A 
ATOM      9  C9  UNL     1      10.358  14.092  28.176  0.00  0.00    +0.014 A 
ATOM     10  C10 UNL     1      11.704  14.455  28.254  0.00  0.00    +0.022 A 
ATOM     11  C11 UNL     1      12.418  14.274  29.443  0.00  0.00    +0.062 A 
ATOM     12 CL1  UNL     1      14.137  14.648  29.458  0.00  0.00    -0.082 Cl
BRANCH   8  13
ATOM     13  C8  UNL     1       8.270  13.081  29.173  0.00  0.00    +0.417 C 
ATOM     14  F1  UNL     1       7.915  13.039  27.837  0.00  0.00    -0.166 F 
ATOM     15  F2  UNL     1       8.109  11.820  29.722  0.00  0.00    -0.166 F 
ATOM     16  F3  UNL     1       7.426  13.954  29.839  0.00  0.00    -0.166 F 
ENDBRANCH   8  13
ENDBRANCH   4   6
ENDBRANCH   1   2
BRANCH   1  18
ATOM     17  C1  UNL     1      10.845  13.909  35.005  0.00  0.00    +0.024 C 
ATOM     18  C2  UNL     1      12.258  13.308  34.926  0.00  0.00    +0.060 C 
BRANCH  18  19
ATOM     19  N2  UNL     1      12.821  13.081  36.277  0.00  0.00    -0.305 NA
ATOM     20  H11 UNL     1      13.010  12.066  36.460  0.00  0.00    +0.123 HD
BRANCH  19  21
ATOM     21  C12 UNL     1      14.033  13.868  36.541  0.00  0.00    +0.178 C 
BRANCH  21  22
ATOM     22  C13 UNL     1      15.243  12.993  36.656  0.00  0.00    +0.211 A 
ATOM     23  N3  UNL     1      16.369  13.177  35.914  0.00  0.00    -0.212 NA
ATOM     24  C14 UNL     1      17.142  12.160  36.329  0.00  0.00    +0.111 A 
ATOM     25  C15 UNL     1      18.431  11.839  35.912  0.00  0.00    +0.051 A 
ATOM     26  C16 UNL     1      19.048  10.715  36.498  0.00  0.00    +0.043 A 
ATOM     27 CL2  UNL     1      20.674  10.267  36.024  0.00  0.00    -0.083 Cl
ATOM     28  C17 UNL     1      18.361   9.951  37.473  0.00  0.00    +0.024 A 
ATOM     29  C18 UNL     1      17.058  10.305  37.868  0.00  0.00    +0.050 A 
ATOM     30  C19 UNL     1      16.486  11.423  37.267  0.00  0.00    +0.155 A 
ATOM     31  O2  UNL     1      15.305  11.946  37.462  0.00  0.00    -0.438 OA
ENDBRANCH  21  22
ENDBRANCH  19  21
ENDBRANCH  18  19
ENDBRANCH   1  18
TORSDOF 7
ENDMDL
