MODEL 1
REMARK VINA RESULT:    -5.705      0.000      0.000
REMARK INTER + INTRA:          -7.104
REMARK INTER:                  -6.705
REMARK INTRA:                  -0.399
REMARK UNBOUND:                -0.399
REMARK  Name = /home/qwerty/github/datacon2025hack/step_04_hit_selection/docking/ligands/lig_149.pdb
REMARK  5 active torsions:
REMARK  status: ('A' for Active; 'I' for Inactive)
REMARK    1  A    between atoms: C1_1  and  N1_2
REMARK    2  A    between atoms: N1_2  and  C2_3
REMARK    3  A    between atoms: N1_2  and  C3_4
REMARK    4  A    between atoms: C6_8  and  C7_9
REMARK    5  A    between atoms: C9_11  and  C10_12
REMARK                            x       y       z     vdW  Elec       q    Type
REMARK                         _______ _______ _______ _____ _____    ______ ____
ROOT
ATOM      1  C7  UNL     1      21.656   3.379  30.666  0.00  0.00    +0.073 A 
ATOM      2  C8  UNL     1      22.466   2.236  30.542  0.00  0.00    +0.040 A 
ATOM      3  C9  UNL     1      22.605   1.601  29.295  0.00  0.00    +0.021 A 
ATOM      4  C13 UNL     1      21.924   2.133  28.189  0.00  0.00    +0.031 A 
ATOM      5  C14 UNL     1      21.139   3.277  28.344  0.00  0.00    +0.112 A 
ATOM      6  N5  UNL     1      21.027   3.867  29.562  0.00  0.00    -0.255 NA
ENDROOT
BRANCH   1  11
ATOM      7  C3  UNL     1      22.392   5.373  33.839  0.00  0.00    +0.048 A 
ATOM      8  C4  UNL     1      21.108   5.354  34.414  0.00  0.00    +0.133 A 
ATOM      9  N2  UNL     1      20.081   4.721  33.791  0.00  0.00    -0.261 NA
ATOM     10  C5  UNL     1      20.240   4.089  32.602  0.00  0.00    +0.120 A 
ATOM     11  C6  UNL     1      21.489   4.079  31.965  0.00  0.00    +0.020 A 
ATOM     12  C15 UNL     1      22.567   4.718  32.603  0.00  0.00    +0.036 A 
BRANCH   7  14
ATOM     13  C1  UNL     1      23.455   6.311  35.940  0.00  0.00    +0.129 C 
ATOM     14  N1  UNL     1      23.500   6.038  34.498  0.00  0.00    -0.335 N 
ATOM     15  C2  UNL     1      24.684   6.454  33.735  0.00  0.00    +0.129 C 
ENDBRANCH   7  14
ENDBRANCH   1  11
BRANCH   3  16
ATOM     16  C10 UNL     1      23.460   0.391  29.170  0.00  0.00    +0.138 A 
ATOM     17  N3  UNL     1      22.955  -0.847  28.970  0.00  0.00    -0.236 NA
ATOM     18  C11 UNL     1      24.038  -1.647  28.918  0.00  0.00    +0.130 A 
ATOM     19  C12 UNL     1      25.173  -0.891  29.088  0.00  0.00    +0.104 A 
ATOM     20  N4  UNL     1      24.808   0.390  29.247  0.00  0.00    -0.344 N 
ATOM     21  H12 UNL     1      25.455   1.194  29.405  0.00  0.00    +0.167 HD
ENDBRANCH   3  16
TORSDOF 3
ENDMDL
MODEL 2
REMARK VINA RESULT:    -5.596     11.306     13.642
REMARK INTER + INTRA:          -6.976
REMARK INTER:                  -6.535
REMARK INTRA:                  -0.441
REMARK UNBOUND:                -0.399
REMARK  Name = /home/qwerty/github/datacon2025hack/step_04_hit_selection/docking/ligands/lig_149.pdb
REMARK  5 active torsions:
REMARK  status: ('A' for Active; 'I' for Inactive)
REMARK    1  A    between atoms: C1_1  and  N1_2
REMARK    2  A    between atoms: N1_2  and  C2_3
REMARK    3  A    between atoms: N1_2  and  C3_4
REMARK    4  A    between atoms: C6_8  and  C7_9
REMARK    5  A    between atoms: C9_11  and  C10_12
REMARK                            x       y       z     vdW  Elec       q    Type
REMARK                         _______ _______ _______ _____ _____    ______ ____
ROOT
ATOM      1  C7  UNL     1      14.299   1.030  21.065  0.00  0.00    +0.073 A 
ATOM      2  C8  UNL     1      14.583   0.136  22.112  0.00  0.00    +0.040 A 
ATOM      3  C9  UNL     1      15.701  -0.713  22.033  0.00  0.00    +0.021 A 
ATOM      4  C13 UNL     1      16.520  -0.642  20.894  0.00  0.00    +0.031 A 
ATOM      5  C14 UNL     1      16.217   0.267  19.879  0.00  0.00    +0.112 A 
ATOM      6  N5  UNL     1      15.129   1.073  19.988  0.00  0.00    -0.255 NA
ENDROOT
BRANCH   1  11
ATOM      7  C3  UNL     1      10.924   2.564  21.985  0.00  0.00    +0.048 A 
ATOM      8  C4  UNL     1      10.958   3.692  21.145  0.00  0.00    +0.133 A 
ATOM      9  N2  UNL     1      12.023   3.918  20.334  0.00  0.00    -0.261 NA
ATOM     10  C5  UNL     1      13.091   3.081  20.296  0.00  0.00    +0.120 A 
ATOM     11  C6  UNL     1      13.129   1.945  21.117  0.00  0.00    +0.020 A 
ATOM     12  C15 UNL     1      12.028   1.689  21.953  0.00  0.00    +0.036 A 
BRANCH   7  14
ATOM     13  C1  UNL     1       8.743   3.322  23.030  0.00  0.00    +0.129 C 
ATOM     14  N1  UNL     1       9.788   2.306  22.850  0.00  0.00    -0.335 N 
ATOM     15  C2  UNL     1       9.665   1.029  23.563  0.00  0.00    +0.129 C 
ENDBRANCH   7  14
ENDBRANCH   1  11
BRANCH   3  16
ATOM     16  C10 UNL     1      15.995  -1.659  23.140  0.00  0.00    +0.138 A 
ATOM     17  N3  UNL     1      17.231  -2.156  23.373  0.00  0.00    -0.236 NA
ATOM     18  C11 UNL     1      17.073  -2.961  24.442  0.00  0.00    +0.130 A 
ATOM     19  C12 UNL     1      15.757  -2.942  24.838  0.00  0.00    +0.104 A 
ATOM     20  N4  UNL     1      15.081  -2.123  24.019  0.00  0.00    -0.344 N 
ATOM     21  H12 UNL     1      14.059  -1.917  24.069  0.00  0.00    +0.167 HD
ENDBRANCH   3  16
TORSDOF 3
ENDMDL
MODEL 3
REMARK VINA RESULT:    -5.577     14.057     16.884
REMARK INTER + INTRA:          -6.954
REMARK INTER:                  -6.517
REMARK INTRA:                  -0.436
REMARK UNBOUND:                -0.399
REMARK  Name = /home/qwerty/github/datacon2025hack/step_04_hit_selection/docking/ligands/lig_149.pdb
REMARK  5 active torsions:
REMARK  status: ('A' for Active; 'I' for Inactive)
REMARK    1  A    between atoms: C1_1  and  N1_2
REMARK    2  A    between atoms: N1_2  and  C2_3
REMARK    3  A    between atoms: N1_2  and  C3_4
REMARK    4  A    between atoms: C6_8  and  C7_9
REMARK    5  A    between atoms: C9_11  and  C10_12
REMARK                            x       y       z     vdW  Elec       q    Type
REMARK                         _______ _______ _______ _____ _____    ______ ____
ROOT
ATOM      1  C7  UNL     1       9.985   4.564  21.056  0.00  0.00    +0.073 A 
ATOM      2  C8  UNL     1      10.439   5.869  20.795  0.00  0.00    +0.040 A 
ATOM      3  C9  UNL     1       9.517   6.913  20.606  0.00  0.00    +0.021 A 
ATOM      4  C13 UNL     1       8.145   6.622  20.686  0.00  0.00    +0.031 A 
ATOM      5  C14 UNL     1       7.729   5.319  20.960  0.00  0.00    +0.112 A 
ATOM      6  N5  UNL     1       8.646   4.333  21.139  0.00  0.00    -0.255 NA
ENDROOT
BRANCH   1  11
ATOM      7  C3  UNL     1      13.072   2.324  20.849  0.00  0.00    +0.048 A 
ATOM      8  C4  UNL     1      12.643   1.279  21.688  0.00  0.00    +0.133 A 
ATOM      9  N2  UNL     1      11.417   1.319  22.270  0.00  0.00    -0.261 NA
ATOM     10  C5  UNL     1      10.562   2.355  22.079  0.00  0.00    +0.120 A 
ATOM     11  C6  UNL     1      10.930   3.437  21.266  0.00  0.00    +0.020 A 
ATOM     12  C15 UNL     1      12.190   3.405  20.644  0.00  0.00    +0.036 A 
BRANCH   7  14
ATOM     13  C1  UNL     1      15.017   1.006  19.897  0.00  0.00    +0.129 C 
ATOM     14  N1  UNL     1      14.376   2.289  20.214  0.00  0.00    -0.335 N 
ATOM     15  C2  UNL     1      15.078   3.534  19.879  0.00  0.00    +0.129 C 
ENDBRANCH   7  14
ENDBRANCH   1  11
BRANCH   3  16
ATOM     16  C10 UNL     1      10.002   8.290  20.328  0.00  0.00    +0.138 A 
ATOM     17  N3  UNL     1       9.340   9.397  20.734  0.00  0.00    -0.236 NA
ATOM     18  C11 UNL     1      10.094  10.421  20.287  0.00  0.00    +0.130 A 
ATOM     19  C12 UNL     1      11.190   9.925  19.622  0.00  0.00    +0.104 A 
ATOM     20  N4  UNL     1      11.130   8.585  19.648  0.00  0.00    -0.344 N 
ATOM     21  H12 UNL     1      11.822   7.935  19.215  0.00  0.00    +0.167 HD
ENDBRANCH   3  16
TORSDOF 3
ENDMDL
MODEL 4
REMARK VINA RESULT:    -5.565     11.354     13.951
REMARK INTER + INTRA:          -6.940
REMARK INTER:                  -6.535
REMARK INTRA:                  -0.404
REMARK UNBOUND:                -0.399
REMARK  Name = /home/qwerty/github/datacon2025hack/step_04_hit_selection/docking/ligands/lig_149.pdb
REMARK  5 active torsions:
REMARK  status: ('A' for Active; 'I' for Inactive)
REMARK    1  A    between atoms: C1_1  and  N1_2
REMARK    2  A    between atoms: N1_2  and  C2_3
REMARK    3  A    between atoms: N1_2  and  C3_4
REMARK    4  A    between atoms: C6_8  and  C7_9
REMARK    5  A    between atoms: C9_11  and  C10_12
REMARK                            x       y       z     vdW  Elec       q    Type
REMARK                         _______ _______ _______ _____ _____    ______ ____
ROOT
ATOM      1  C7  UNL     1      13.282   1.108  21.654  0.00  0.00    +0.073 A 
ATOM      2  C8  UNL     1      13.896   0.162  22.494  0.00  0.00    +0.040 A 
ATOM      3  C9  UNL     1      15.163  -0.354  22.168  0.00  0.00    +0.021 A 
ATOM      4  C13 UNL     1      15.792   0.097  20.996  0.00  0.00    +0.031 A 
ATOM      5  C14 UNL     1      15.160   1.047  20.192  0.00  0.00    +0.112 A 
ATOM      6  N5  UNL     1      13.937   1.526  20.536  0.00  0.00    -0.255 NA
ENDROOT
BRANCH   1  11
ATOM      7  C3  UNL     1      10.173   3.326  21.592  0.00  0.00    +0.048 A 
ATOM      8  C4  UNL     1       9.443   2.713  22.627  0.00  0.00    +0.133 A 
ATOM      9  N2  UNL     1       9.954   1.647  23.294  0.00  0.00    -0.261 NA
ATOM     10  C5  UNL     1      11.172   1.126  22.997  0.00  0.00    +0.120 A 
ATOM     11  C6  UNL     1      11.947   1.679  21.968  0.00  0.00    +0.020 A 
ATOM     12  C15 UNL     1      11.439   2.794  21.276  0.00  0.00    +0.036 A 
BRANCH   7  14
ATOM     13  C1  UNL     1       8.193   4.692  20.791  0.00  0.00    +0.129 C 
ATOM     14  N1  UNL     1       9.642   4.472  20.877  0.00  0.00    -0.335 N 
ATOM     15  C2  UNL     1      10.544   5.429  20.224  0.00  0.00    +0.129 C 
ENDBRANCH   7  14
ENDBRANCH   1  11
BRANCH   3  16
ATOM     16  C10 UNL     1      15.807  -1.355  23.057  0.00  0.00    +0.138 A 
ATOM     17  N3  UNL     1      17.119  -1.671  22.978  0.00  0.00    -0.236 NA
ATOM     18  C11 UNL     1      17.298  -2.602  23.935  0.00  0.00    +0.130 A 
ATOM     19  C12 UNL     1      16.104  -2.837  24.574  0.00  0.00    +0.104 A 
ATOM     20  N4  UNL     1      15.168  -2.053  24.020  0.00  0.00    -0.344 N 
ATOM     21  H12 UNL     1      14.161  -2.019  24.293  0.00  0.00    +0.167 HD
ENDBRANCH   3  16
TORSDOF 3
ENDMDL
MODEL 5
REMARK VINA RESULT:    -5.546     11.655     14.784
REMARK INTER + INTRA:          -6.917
REMARK INTER:                  -6.484
REMARK INTRA:                  -0.433
REMARK UNBOUND:                -0.399
REMARK  Name = /home/qwerty/github/datacon2025hack/step_04_hit_selection/docking/ligands/lig_149.pdb
REMARK  5 active torsions:
REMARK  status: ('A' for Active; 'I' for Inactive)
REMARK    1  A    between atoms: C1_1  and  N1_2
REMARK    2  A    between atoms: N1_2  and  C2_3
REMARK    3  A    between atoms: N1_2  and  C3_4
REMARK    4  A    between atoms: C6_8  and  C7_9
REMARK    5  A    between atoms: C9_11  and  C10_12
REMARK                            x       y       z     vdW  Elec       q    Type
REMARK                         _______ _______ _______ _____ _____    ______ ____
ROOT
ATOM      1  C7  UNL     1      14.205   2.307  20.576  0.00  0.00    +0.073 A 
ATOM      2  C8  UNL     1      12.856   2.528  20.906  0.00  0.00    +0.040 A 
ATOM      3  C9  UNL     1      12.212   3.707  20.491  0.00  0.00    +0.021 A 
ATOM      4  C13 UNL     1      12.943   4.646  19.745  0.00  0.00    +0.031 A 
ATOM      5  C14 UNL     1      14.276   4.389  19.423  0.00  0.00    +0.112 A 
ATOM      6  N5  UNL     1      14.868   3.239  19.838  0.00  0.00    -0.255 NA
ENDROOT
BRANCH   1  11
ATOM      7  C3  UNL     1      15.377  -0.695  22.626  0.00  0.00    +0.048 A 
ATOM      8  C4  UNL     1      16.306  -1.234  21.717  0.00  0.00    +0.133 A 
ATOM      9  N2  UNL     1      16.525  -0.637  20.517  0.00  0.00    -0.261 NA
ATOM     10  C5  UNL     1      15.867   0.488  20.141  0.00  0.00    +0.120 A 
ATOM     11  C6  UNL     1      14.917   1.071  20.992  0.00  0.00    +0.020 A 
ATOM     12  C15 UNL     1      14.688   0.473  22.245  0.00  0.00    +0.036 A 
BRANCH   7  14
ATOM     13  C1  UNL     1      14.079  -0.819  24.801  0.00  0.00    +0.129 C 
ATOM     14  N1  UNL     1      15.139  -1.319  23.915  0.00  0.00    -0.335 N 
ATOM     15  C2  UNL     1      15.955  -2.456  24.357  0.00  0.00    +0.129 C 
ENDBRANCH   7  14
ENDBRANCH   1  11
BRANCH   3  16
ATOM     16  C10 UNL     1      10.788   3.938  20.845  0.00  0.00    +0.138 A 
ATOM     17  N3  UNL     1      10.215   3.423  21.956  0.00  0.00    -0.236 NA
ATOM     18  C11 UNL     1       8.939   3.855  21.907  0.00  0.00    +0.130 A 
ATOM     19  C12 UNL     1       8.758   4.617  20.778  0.00  0.00    +0.104 A 
ATOM     20  N4  UNL     1       9.921   4.668  20.111  0.00  0.00    -0.344 N 
ATOM     21  H12 UNL     1      10.086   5.168  19.210  0.00  0.00    +0.167 HD
ENDBRANCH   3  16
TORSDOF 3
ENDMDL
MODEL 6
REMARK VINA RESULT:    -5.442     11.773     13.848
REMARK INTER + INTRA:          -6.795
REMARK INTER:                  -6.349
REMARK INTRA:                  -0.446
REMARK UNBOUND:                -0.399
REMARK  Name = /home/qwerty/github/datacon2025hack/step_04_hit_selection/docking/ligands/lig_149.pdb
REMARK  5 active torsions:
REMARK  status: ('A' for Active; 'I' for Inactive)
REMARK    1  A    between atoms: C1_1  and  N1_2
REMARK    2  A    between atoms: N1_2  and  C2_3
REMARK    3  A    between atoms: N1_2  and  C3_4
REMARK    4  A    between atoms: C6_8  and  C7_9
REMARK    5  A    between atoms: C9_11  and  C10_12
REMARK                            x       y       z     vdW  Elec       q    Type
REMARK                         _______ _______ _______ _____ _____    ______ ____
ROOT
ATOM      1  C7  UNL     1      14.613   0.968  21.276  0.00  0.00    +0.073 A 
ATOM      2  C8  UNL     1      14.288   0.286  22.463  0.00  0.00    +0.040 A 
ATOM      3  C9  UNL     1      15.057  -0.816  22.876  0.00  0.00    +0.021 A 
ATOM      4  C13 UNL     1      16.146  -1.212  22.084  0.00  0.00    +0.031 A 
ATOM      5  C14 UNL     1      16.449  -0.505  20.920  0.00  0.00    +0.112 A 
ATOM      6  N5  UNL     1      15.687   0.556  20.549  0.00  0.00    -0.255 NA
ENDROOT
BRANCH   1  11
ATOM      7  C3  UNL     1      11.764   3.458  20.758  0.00  0.00    +0.048 A 
ATOM      8  C4  UNL     1      12.406   4.349  19.879  0.00  0.00    +0.133 A 
ATOM      9  N2  UNL     1      13.688   4.130  19.489  0.00  0.00    -0.261 NA
ATOM     10  C5  UNL     1      14.402   3.061  19.923  0.00  0.00    +0.120 A 
ATOM     11  C6  UNL     1      13.828   2.140  20.811  0.00  0.00    +0.020 A 
ATOM     12  C15 UNL     1      12.496   2.344  21.215  0.00  0.00    +0.036 A 
BRANCH   7  14
ATOM     13  C1  UNL     1       9.772   2.805  22.184  0.00  0.00    +0.129 C 
ATOM     14  N1  UNL     1      10.391   3.675  21.176  0.00  0.00    -0.335 N 
ATOM     15  C2  UNL     1       9.597   4.766  20.597  0.00  0.00    +0.129 C 
ENDBRANCH   7  14
ENDBRANCH   1  11
BRANCH   3  16
ATOM     16  C10 UNL     1      14.707  -1.535  24.129  0.00  0.00    +0.138 A 
ATOM     17  N3  UNL     1      13.993  -0.967  25.127  0.00  0.00    -0.236 NA
ATOM     18  C11 UNL     1      13.899  -1.932  26.063  0.00  0.00    +0.130 A 
ATOM     19  C12 UNL     1      14.551  -3.059  25.625  0.00  0.00    +0.104 A 
ATOM     20  N4  UNL     1      15.059  -2.809  24.409  0.00  0.00    -0.344 N 
ATOM     21  H12 UNL     1      15.615  -3.476  23.831  0.00  0.00    +0.167 HD
ENDBRANCH   3  16
TORSDOF 3
ENDMDL
MODEL 7
REMARK VINA RESULT:    -5.414      5.870      8.754
REMARK INTER + INTRA:          -6.762
REMARK INTER:                  -6.358
REMARK INTRA:                  -0.404
REMARK UNBOUND:                -0.399
REMARK  Name = /home/qwerty/github/datacon2025hack/step_04_hit_selection/docking/ligands/lig_149.pdb
REMARK  5 active torsions:
REMARK  status: ('A' for Active; 'I' for Inactive)
REMARK    1  A    between atoms: C1_1  and  N1_2
REMARK    2  A    between atoms: N1_2  and  C2_3
REMARK    3  A    between atoms: N1_2  and  C3_4
REMARK    4  A    between atoms: C6_8  and  C7_9
REMARK    5  A    between atoms: C9_11  and  C10_12
REMARK                            x       y       z     vdW  Elec       q    Type
REMARK                         _______ _______ _______ _____ _____    ______ ____
ROOT
ATOM      1  C7  UNL     1      21.014   9.112  36.300  0.00  0.00    +0.073 A 
ATOM      2  C8  UNL     1      21.986   8.699  35.371  0.00  0.00    +0.040 A 
ATOM      3  C9  UNL     1      22.736   7.533  35.605  0.00  0.00    +0.021 A 
ATOM      4  C13 UNL     1      22.488   6.797  36.776  0.00  0.00    +0.031 A 
ATOM      5  C14 UNL     1      21.506   7.228  37.669  0.00  0.00    +0.112 A 
ATOM      6  N5  UNL     1      20.799   8.358  37.413  0.00  0.00    -0.255 NA
ENDROOT
BRANCH   1  11
ATOM      7  C3  UNL     1      18.135  11.621  36.379  0.00  0.00    +0.048 A 
ATOM      8  C4  UNL     1      18.719  12.651  35.620  0.00  0.00    +0.133 A 
ATOM      9  N2  UNL     1      19.974  12.514  35.119  0.00  0.00    -0.261 NA
ATOM     10  C5  UNL     1      20.714  11.396  35.325  0.00  0.00    +0.120 A 
ATOM     11  C6  UNL     1      20.199  10.335  36.084  0.00  0.00    +0.020 A 
ATOM     12  C15 UNL     1      18.896  10.455  36.599  0.00  0.00    +0.036 A 
BRANCH   7  14
ATOM     13  C1  UNL     1      16.202  10.674  37.720  0.00  0.00    +0.129 C 
ATOM     14  N1  UNL     1      16.792  11.751  36.913  0.00  0.00    -0.335 N 
ATOM     15  C2  UNL     1      15.998  12.958  36.655  0.00  0.00    +0.129 C 
ENDBRANCH   7  14
ENDBRANCH   1  11
BRANCH   3  16
ATOM     16  C10 UNL     1      23.764   7.103  34.623  0.00  0.00    +0.138 A 
ATOM     17  N3  UNL     1      24.126   7.858  33.561  0.00  0.00    -0.236 NA
ATOM     18  C11 UNL     1      25.063   7.123  32.931  0.00  0.00    +0.130 A 
ATOM     19  C12 UNL     1      25.254   5.945  33.611  0.00  0.00    +0.104 A 
ATOM     20  N4  UNL     1      24.437   5.933  34.674  0.00  0.00    -0.344 N 
ATOM     21  H12 UNL     1      24.353   5.161  35.372  0.00  0.00    +0.167 HD
ENDBRANCH   3  16
TORSDOF 3
ENDMDL
MODEL 8
REMARK VINA RESULT:    -5.351     14.485     16.570
REMARK INTER + INTRA:          -6.688
REMARK INTER:                  -6.309
REMARK INTRA:                  -0.379
REMARK UNBOUND:                -0.399
REMARK  Name = /home/qwerty/github/datacon2025hack/step_04_hit_selection/docking/ligands/lig_149.pdb
REMARK  5 active torsions:
REMARK  status: ('A' for Active; 'I' for Inactive)
REMARK    1  A    between atoms: C1_1  and  N1_2
REMARK    2  A    between atoms: N1_2  and  C2_3
REMARK    3  A    between atoms: N1_2  and  C3_4
REMARK    4  A    between atoms: C6_8  and  C7_9
REMARK    5  A    between atoms: C9_11  and  C10_12
REMARK                            x       y       z     vdW  Elec       q    Type
REMARK                         _______ _______ _______ _____ _____    ______ ____
ROOT
ATOM      1  C7  UNL     1      11.762  13.229  32.211  0.00  0.00    +0.073 A 
ATOM      2  C8  UNL     1      12.626  14.013  32.996  0.00  0.00    +0.040 A 
ATOM      3  C9  UNL     1      12.943  13.617  34.308  0.00  0.00    +0.021 A 
ATOM      4  C13 UNL     1      12.381  12.430  34.806  0.00  0.00    +0.031 A 
ATOM      5  C14 UNL     1      11.539  11.669  33.995  0.00  0.00    +0.112 A 
ATOM      6  N5  UNL     1      11.254  12.079  32.732  0.00  0.00    -0.255 NA
ENDROOT
BRANCH   1  11
ATOM      7  C3  UNL     1       9.892  13.562  28.897  0.00  0.00    +0.048 A 
ATOM      8  C4  UNL     1      10.822  14.352  28.197  0.00  0.00    +0.133 A 
ATOM      9  N2  UNL     1      11.983  14.738  28.786  0.00  0.00    -0.261 NA
ATOM     10  C5  UNL     1      12.296  14.388  30.059  0.00  0.00    +0.120 A 
ATOM     11  C6  UNL     1      11.409  13.613  30.820  0.00  0.00    +0.020 A 
ATOM     12  C15 UNL     1      10.208  13.193  30.220  0.00  0.00    +0.036 A 
BRANCH   7  14
ATOM     13  C1  UNL     1       8.198  11.743  28.394  0.00  0.00    +0.129 C 
ATOM     14  N1  UNL     1       8.652  13.135  28.276  0.00  0.00    -0.335 N 
ATOM     15  C2  UNL     1       7.830  14.086  27.517  0.00  0.00    +0.129 C 
ENDBRANCH   7  14
ENDBRANCH   1  11
BRANCH   3  16
ATOM     16  C10 UNL     1      13.853  14.451  35.135  0.00  0.00    +0.138 A 
ATOM     17  N3  UNL     1      15.064  14.019  35.555  0.00  0.00    -0.236 NA
ATOM     18  C11 UNL     1      15.560  15.051  36.265  0.00  0.00    +0.130 A 
ATOM     19  C12 UNL     1      14.653  16.084  36.266  0.00  0.00    +0.104 A 
ATOM     20  N4  UNL     1      13.580  15.704  35.555  0.00  0.00    -0.344 N 
ATOM     21  H12 UNL     1      12.724  16.278  35.389  0.00  0.00    +0.167 HD
ENDBRANCH   3  16
TORSDOF 3
ENDMDL
MODEL 9
REMARK VINA RESULT:    -5.334      2.105      7.486
REMARK INTER + INTRA:          -6.668
REMARK INTER:                  -6.267
REMARK INTRA:                  -0.401
REMARK UNBOUND:                -0.399
REMARK  Name = /home/qwerty/github/datacon2025hack/step_04_hit_selection/docking/ligands/lig_149.pdb
REMARK  5 active torsions:
REMARK  status: ('A' for Active; 'I' for Inactive)
REMARK    1  A    between atoms: C1_1  and  N1_2
REMARK    2  A    between atoms: N1_2  and  C2_3
REMARK    3  A    between atoms: N1_2  and  C3_4
REMARK    4  A    between atoms: C6_8  and  C7_9
REMARK    5  A    between atoms: C9_11  and  C10_12
REMARK                            x       y       z     vdW  Elec       q    Type
REMARK                         _______ _______ _______ _____ _____    ______ ____
ROOT
ATOM      1  C7  UNL     1      22.375   4.148  33.041  0.00  0.00    +0.073 A 
ATOM      2  C8  UNL     1      21.715   4.822  34.084  0.00  0.00    +0.040 A 
ATOM      3  C9  UNL     1      22.282   5.980  34.645  0.00  0.00    +0.021 A 
ATOM      4  C13 UNL     1      23.509   6.441  34.141  0.00  0.00    +0.031 A 
ATOM      5  C14 UNL     1      24.130   5.756  33.096  0.00  0.00    +0.112 A 
ATOM      6  N5  UNL     1      23.555   4.641  32.575  0.00  0.00    -0.255 NA
ENDROOT
BRANCH   1  11
ATOM      7  C3  UNL     1      21.631   1.344  30.557  0.00  0.00    +0.048 A 
ATOM      8  C4  UNL     1      20.676   0.632  31.306  0.00  0.00    +0.133 A 
ATOM      9  N2  UNL     1      20.308   1.061  32.541  0.00  0.00    -0.261 NA
ATOM     10  C5  UNL     1      20.838   2.175  33.104  0.00  0.00    +0.120 A 
ATOM     11  C6  UNL     1      21.805   2.925  32.419  0.00  0.00    +0.020 A 
ATOM     12  C15 UNL     1      22.187   2.503  31.133  0.00  0.00    +0.036 A 
BRANCH   7  14
ATOM     13  C1  UNL     1      22.463  -0.483  29.007  0.00  0.00    +0.129 C 
ATOM     14  N1  UNL     1      22.027   0.902  29.232  0.00  0.00    -0.335 N 
ATOM     15  C2  UNL     1      22.002   1.830  28.095  0.00  0.00    +0.129 C 
ENDBRANCH   7  14
ENDBRANCH   1  11
BRANCH   3  16
ATOM     16  C10 UNL     1      21.582   6.687  35.749  0.00  0.00    +0.138 A 
ATOM     17  N3  UNL     1      20.299   6.430  36.088  0.00  0.00    -0.236 NA
ATOM     18  C11 UNL     1      20.048   7.269  37.113  0.00  0.00    +0.130 A 
ATOM     19  C12 UNL     1      21.171   8.016  37.377  0.00  0.00    +0.104 A 
ATOM     20  N4  UNL     1      22.134   7.649  36.519  0.00  0.00    -0.344 N 
ATOM     21  H12 UNL     1      23.097   8.051  36.474  0.00  0.00    +0.167 HD
ENDBRANCH   3  16
TORSDOF 3
ENDMDL
