MODEL 1
REMARK VINA RESULT:    -6.353      0.000      0.000
REMARK INTER + INTRA:          -8.928
REMARK INTER:                  -8.582
REMARK INTRA:                  -0.347
REMARK UNBOUND:                -0.347
REMARK  Name = /home/qwerty/github/datacon2025hack/step_04_hit_selection/docking/ligands/lig_684.pdb
REMARK  6 active torsions:
REMARK  status: ('A' for Active; 'I' for Inactive)
REMARK    1  A    between atoms: C2_2  and  C3_3
REMARK    2  A    between atoms: C3_3  and  N1_4
REMARK    3  A    between atoms: C5_6  and  C6_7
REMARK    4  A    between atoms: C8_11  and  C9_12
REMARK    5  A    between atoms: C9_12  and  N3_13
REMARK    6  A    between atoms: C10_14  and  C11_16
REMARK                            x       y       z     vdW  Elec       q    Type
REMARK                         _______ _______ _______ _____ _____    ______ ____
ROOT
ATOM      1  C6  UNL     1      21.463   7.819  36.851  0.00  0.00    +0.268 C 
ATOM      2  O1  UNL     1      21.413   7.187  37.939  0.00  0.00    -0.268 OA
ATOM      3  N2  UNL     1      20.503   8.851  36.606  0.00  0.00    -0.295 N 
ATOM      4  C7  UNL     1      20.150   9.833  35.563  0.00  0.00    +0.114 C 
ATOM      5  C8  UNL     1      18.987  10.432  36.294  0.00  0.00    +0.041 C 
ATOM      6  C16 UNL     1      19.362   9.429  37.341  0.00  0.00    +0.114 C 
ENDROOT
BRANCH   1   9
ATOM      7  N1  UNL     1      23.810   7.399  34.130  0.00  0.00    -0.247 N 
ATOM      8  C4  UNL     1      22.766   8.065  34.650  0.00  0.00    +0.143 A 
ATOM      9  C5  UNL     1      22.507   7.473  35.871  0.00  0.00    +0.167 A 
ATOM     10  N5  UNL     1      23.404   6.482  36.055  0.00  0.00    -0.125 NA
ATOM     11  N6  UNL     1      24.186   6.463  34.985  0.00  0.00    -0.065 NA
BRANCH   7  12
ATOM     12  C3  UNL     1      24.497   7.696  32.877  0.00  0.00    +0.172 C 
BRANCH  12  14
ATOM     13  C1  UNL     1      24.500   9.757  31.515  0.00  0.00    +0.006 C 
ATOM     14  C2  UNL     1      24.655   9.180  32.709  0.00  0.00    -0.012 C 
ENDBRANCH  12  14
ENDBRANCH   7  12
ENDBRANCH   1   9
BRANCH   5  15
ATOM     15  C9  UNL     1      19.194  11.897  36.710  0.00  0.00    +0.111 C 
BRANCH  15  16
ATOM     16  N3  UNL     1      17.914  12.604  36.774  0.00  0.00    -0.311 N 
ATOM     17  C10 UNL     1      17.301  13.142  35.592  0.00  0.00    +0.244 C 
ATOM     18  O2  UNL     1      17.940  13.136  34.504  0.00  0.00    -0.270 OA
ATOM     19  H12 UNL     1      17.464  12.760  37.704  0.00  0.00    +0.149 HD
BRANCH  17  20
ATOM     20  C11 UNL     1      15.936  13.723  35.630  0.00  0.00    +0.042 A 
ATOM     21  C12 UNL     1      14.818  12.987  35.200  0.00  0.00    +0.033 A 
ATOM     22  C13 UNL     1      13.549  13.571  35.244  0.00  0.00    +0.114 A 
ATOM     23  N4  UNL     1      13.396  14.844  35.694  0.00  0.00    -0.228 NA
ATOM     24  C14 UNL     1      14.458  15.584  36.107  0.00  0.00    +0.214 A 
ATOM     25  F1  UNL     1      14.266  16.852  36.546  0.00  0.00    -0.184 F 
ATOM     26  C15 UNL     1      15.745  15.041  36.078  0.00  0.00    +0.072 A 
ENDBRANCH  17  20
ENDBRANCH  15  16
ENDBRANCH   5  15
TORSDOF 6
ENDMDL
MODEL 2
REMARK VINA RESULT:    -6.216      3.613     10.320
REMARK INTER + INTRA:          -8.743
REMARK INTER:                  -8.272
REMARK INTRA:                  -0.471
REMARK UNBOUND:                -0.347
REMARK  Name = /home/qwerty/github/datacon2025hack/step_04_hit_selection/docking/ligands/lig_684.pdb
REMARK  6 active torsions:
REMARK  status: ('A' for Active; 'I' for Inactive)
REMARK    1  A    between atoms: C2_2  and  C3_3
REMARK    2  A    between atoms: C3_3  and  N1_4
REMARK    3  A    between atoms: C5_6  and  C6_7
REMARK    4  A    between atoms: C8_11  and  C9_12
REMARK    5  A    between atoms: C9_12  and  N3_13
REMARK    6  A    between atoms: C10_14  and  C11_16
REMARK                            x       y       z     vdW  Elec       q    Type
REMARK                         _______ _______ _______ _____ _____    ______ ____
ROOT
ATOM      1  C6  UNL     1      15.386  13.812  35.971  0.00  0.00    +0.268 C 
ATOM      2  O1  UNL     1      15.819  14.992  35.898  0.00  0.00    -0.268 OA
ATOM      3  N2  UNL     1      16.325  12.734  36.031  0.00  0.00    -0.295 N 
ATOM      4  C7  UNL     1      16.341  11.261  36.125  0.00  0.00    +0.114 C 
ATOM      5  C8  UNL     1      17.831  11.117  36.117  0.00  0.00    +0.041 C 
ATOM      6  C16 UNL     1      17.795  12.611  36.023  0.00  0.00    +0.114 C 
ENDROOT
BRANCH   1   9
ATOM      7  N1  UNL     1      11.924  12.871  36.438  0.00  0.00    -0.247 N 
ATOM      8  C4  UNL     1      13.211  12.716  36.788  0.00  0.00    +0.143 A 
ATOM      9  C5  UNL     1      13.931  13.585  35.993  0.00  0.00    +0.167 A 
ATOM     10  N5  UNL     1      13.061  14.244  35.198  0.00  0.00    -0.125 NA
ATOM     11  N6  UNL     1      11.850  13.794  35.494  0.00  0.00    -0.065 NA
BRANCH   7  12
ATOM     12  C3  UNL     1      10.770  12.215  37.043  0.00  0.00    +0.172 C 
BRANCH  12  14
ATOM     13  C1  UNL     1      10.902   9.753  36.899  0.00  0.00    +0.006 C 
ATOM     14  C2  UNL     1      11.160  10.869  37.584  0.00  0.00    -0.012 C 
ENDBRANCH  12  14
ENDBRANCH   7  12
ENDBRANCH   1   9
BRANCH   5  15
ATOM     15  C9  UNL     1      18.417  10.574  37.431  0.00  0.00    +0.111 C 
BRANCH  15  16
ATOM     16  N3  UNL     1      19.729   9.967  37.204  0.00  0.00    -0.311 N 
ATOM     17  C10 UNL     1      19.942   8.561  37.404  0.00  0.00    +0.244 C 
ATOM     18  O2  UNL     1      19.029   7.861  37.922  0.00  0.00    -0.270 OA
ATOM     19  H12 UNL     1      20.533  10.578  36.938  0.00  0.00    +0.149 HD
BRANCH  17  20
ATOM     20  C11 UNL     1      21.226   7.918  37.029  0.00  0.00    +0.042 A 
ATOM     21  C12 UNL     1      21.723   7.991  35.716  0.00  0.00    +0.033 A 
ATOM     22  C13 UNL     1      22.932   7.367  35.399  0.00  0.00    +0.114 A 
ATOM     23  N4  UNL     1      23.621   6.686  36.352  0.00  0.00    -0.228 NA
ATOM     24  C14 UNL     1      23.163   6.589  37.627  0.00  0.00    +0.214 A 
ATOM     25  F1  UNL     1      23.879   5.900  38.549  0.00  0.00    -0.184 F 
ATOM     26  C15 UNL     1      21.957   7.197  37.987  0.00  0.00    +0.072 A 
ENDBRANCH  17  20
ENDBRANCH  15  16
ENDBRANCH   5  15
TORSDOF 6
ENDMDL
MODEL 3
REMARK VINA RESULT:    -6.055     17.010     19.651
REMARK INTER + INTRA:          -8.525
REMARK INTER:                  -8.110
REMARK INTRA:                  -0.416
REMARK UNBOUND:                -0.347
REMARK  Name = /home/qwerty/github/datacon2025hack/step_04_hit_selection/docking/ligands/lig_684.pdb
REMARK  6 active torsions:
REMARK  status: ('A' for Active; 'I' for Inactive)
REMARK    1  A    between atoms: C2_2  and  C3_3
REMARK    2  A    between atoms: C3_3  and  N1_4
REMARK    3  A    between atoms: C5_6  and  C6_7
REMARK    4  A    between atoms: C8_11  and  C9_12
REMARK    5  A    between atoms: C9_12  and  N3_13
REMARK    6  A    between atoms: C10_14  and  C11_16
REMARK                            x       y       z     vdW  Elec       q    Type
REMARK                         _______ _______ _______ _____ _____    ______ ____
ROOT
ATOM      1  C6  UNL     1       9.786   4.859  20.897  0.00  0.00    +0.268 C 
ATOM      2  O1  UNL     1       8.613   4.446  20.702  0.00  0.00    -0.268 OA
ATOM      3  N2  UNL     1      10.784   3.930  21.327  0.00  0.00    -0.295 N 
ATOM      4  C7  UNL     1      12.220   3.900  21.670  0.00  0.00    +0.114 C 
ATOM      5  C8  UNL     1      12.277   2.439  21.993  0.00  0.00    +0.041 C 
ATOM      6  C16 UNL     1      10.822   2.488  21.640  0.00  0.00    +0.114 C 
ENDROOT
BRANCH   1   9
ATOM      7  N1  UNL     1       9.986   8.453  20.530  0.00  0.00    -0.247 N 
ATOM      8  C4  UNL     1       9.262   7.374  20.869  0.00  0.00    +0.143 A 
ATOM      9  C5  UNL     1      10.087   6.284  20.676  0.00  0.00    +0.167 A 
ATOM     10  N5  UNL     1      11.282   6.736  20.240  0.00  0.00    -0.125 NA
ATOM     11  N6  UNL     1      11.194   8.056  20.167  0.00  0.00    -0.065 NA
BRANCH   7  12
ATOM     12  C3  UNL     1       9.571   9.848  20.627  0.00  0.00    +0.172 C 
BRANCH  12  14
ATOM     13  C1  UNL     1       7.772  11.139  21.722  0.00  0.00    +0.006 C 
ATOM     14  C2  UNL     1       8.263   9.952  21.358  0.00  0.00    -0.012 C 
ENDBRANCH  12  14
ENDBRANCH   7  12
ENDBRANCH   1   9
BRANCH   5  15
ATOM     15  C9  UNL     1      13.140   1.614  21.025  0.00  0.00    +0.111 C 
BRANCH  15  16
ATOM     16  N3  UNL     1      13.682   0.429  21.691  0.00  0.00    -0.311 N 
ATOM     17  C10 UNL     1      15.031   0.404  22.183  0.00  0.00    +0.244 C 
ATOM     18  O2  UNL     1      15.810   1.358  21.910  0.00  0.00    -0.270 OA
ATOM     19  H12 UNL     1      13.089  -0.428  21.768  0.00  0.00    +0.149 HD
BRANCH  17  20
ATOM     20  C11 UNL     1      15.532  -0.735  22.992  0.00  0.00    +0.042 A 
ATOM     21  C12 UNL     1      16.778  -1.327  22.725  0.00  0.00    +0.033 A 
ATOM     22  C13 UNL     1      17.213  -2.403  23.504  0.00  0.00    +0.114 A 
ATOM     23  N4  UNL     1      16.434  -2.878  24.511  0.00  0.00    -0.228 NA
ATOM     24  C14 UNL     1      15.221  -2.333  24.788  0.00  0.00    +0.214 A 
ATOM     25  F1  UNL     1      14.472  -2.837  25.799  0.00  0.00    -0.184 F 
ATOM     26  C15 UNL     1      14.746  -1.258  24.033  0.00  0.00    +0.072 A 
ENDBRANCH  17  20
ENDBRANCH  15  16
ENDBRANCH   5  15
TORSDOF 6
ENDMDL
MODEL 4
REMARK VINA RESULT:    -6.009      7.478      9.662
REMARK INTER + INTRA:          -8.463
REMARK INTER:                  -8.045
REMARK INTRA:                  -0.418
REMARK UNBOUND:                -0.347
REMARK  Name = /home/qwerty/github/datacon2025hack/step_04_hit_selection/docking/ligands/lig_684.pdb
REMARK  6 active torsions:
REMARK  status: ('A' for Active; 'I' for Inactive)
REMARK    1  A    between atoms: C2_2  and  C3_3
REMARK    2  A    between atoms: C3_3  and  N1_4
REMARK    3  A    between atoms: C5_6  and  C6_7
REMARK    4  A    between atoms: C8_11  and  C9_12
REMARK    5  A    between atoms: C9_12  and  N3_13
REMARK    6  A    between atoms: C10_14  and  C11_16
REMARK                            x       y       z     vdW  Elec       q    Type
REMARK                         _______ _______ _______ _____ _____    ______ ____
ROOT
ATOM      1  C6  UNL     1      20.681   1.058  31.556  0.00  0.00    +0.268 C 
ATOM      2  O1  UNL     1      20.315   0.025  32.176  0.00  0.00    -0.268 OA
ATOM      3  N2  UNL     1      20.698   2.310  32.248  0.00  0.00    -0.295 N 
ATOM      4  C7  UNL     1      21.029   3.727  32.000  0.00  0.00    +0.114 C 
ATOM      5  C8  UNL     1      20.699   4.211  33.378  0.00  0.00    +0.041 C 
ATOM      6  C16 UNL     1      20.370   2.769  33.611  0.00  0.00    +0.114 C 
ENDROOT
BRANCH   1   9
ATOM      7  N1  UNL     1      21.374   1.262  28.011  0.00  0.00    -0.247 N 
ATOM      8  C4  UNL     1      20.799   1.799  29.099  0.00  0.00    +0.143 A 
ATOM      9  C5  UNL     1      21.078   0.939  30.143  0.00  0.00    +0.167 A 
ATOM     10  N5  UNL     1      21.819  -0.080  29.659  0.00  0.00    -0.125 NA
ATOM     11  N6  UNL     1      21.988   0.145  28.364  0.00  0.00    -0.065 NA
BRANCH   7  12
ATOM     12  C3  UNL     1      21.413   1.837  26.671  0.00  0.00    +0.172 C 
BRANCH  12  14
ATOM     13  C1  UNL     1      22.492   3.804  25.638  0.00  0.00    +0.006 C 
ATOM     14  C2  UNL     1      22.516   2.852  26.573  0.00  0.00    -0.012 C 
ENDBRANCH  12  14
ENDBRANCH   7  12
ENDBRANCH   1   9
BRANCH   5  15
ATOM     15  C9  UNL     1      21.912   4.725  34.171  0.00  0.00    +0.111 C 
BRANCH  15  16
ATOM     16  N3  UNL     1      22.287   6.070  33.735  0.00  0.00    -0.311 N 
ATOM     17  C10 UNL     1      23.516   6.309  33.031  0.00  0.00    +0.244 C 
ATOM     18  O2  UNL     1      24.356   5.375  32.915  0.00  0.00    -0.270 OA
ATOM     19  H12 UNL     1      21.670   6.876  33.981  0.00  0.00    +0.149 HD
BRANCH  17  20
ATOM     20  C11 UNL     1      23.826   7.640  32.455  0.00  0.00    +0.042 A 
ATOM     21  C12 UNL     1      24.998   8.333  32.804  0.00  0.00    +0.033 A 
ATOM     22  C13 UNL     1      25.252   9.588  32.246  0.00  0.00    +0.114 A 
ATOM     23  N4  UNL     1      24.367  10.141  31.375  0.00  0.00    -0.228 NA
ATOM     24  C14 UNL     1      23.220   9.502  31.025  0.00  0.00    +0.214 A 
ATOM     25  F1  UNL     1      22.362  10.088  30.155  0.00  0.00    -0.184 F 
ATOM     26  C15 UNL     1      22.926   8.245  31.561  0.00  0.00    +0.072 A 
ENDBRANCH  17  20
ENDBRANCH  15  16
ENDBRANCH   5  15
TORSDOF 6
ENDMDL
MODEL 5
REMARK VINA RESULT:    -5.971      7.727     10.662
REMARK INTER + INTRA:          -8.413
REMARK INTER:                  -7.915
REMARK INTRA:                  -0.498
REMARK UNBOUND:                -0.347
REMARK  Name = /home/qwerty/github/datacon2025hack/step_04_hit_selection/docking/ligands/lig_684.pdb
REMARK  6 active torsions:
REMARK  status: ('A' for Active; 'I' for Inactive)
REMARK    1  A    between atoms: C2_2  and  C3_3
REMARK    2  A    between atoms: C3_3  and  N1_4
REMARK    3  A    between atoms: C5_6  and  C6_7
REMARK    4  A    between atoms: C8_11  and  C9_12
REMARK    5  A    between atoms: C9_12  and  N3_13
REMARK    6  A    between atoms: C10_14  and  C11_16
REMARK                            x       y       z     vdW  Elec       q    Type
REMARK                         _______ _______ _______ _____ _____    ______ ____
ROOT
ATOM      1  C6  UNL     1      21.863   1.301  28.349  0.00  0.00    +0.268 C 
ATOM      2  O1  UNL     1      22.018   0.054  28.436  0.00  0.00    -0.268 OA
ATOM      3  N2  UNL     1      21.794   2.075  29.549  0.00  0.00    -0.295 N 
ATOM      4  C7  UNL     1      21.636   3.480  29.974  0.00  0.00    +0.114 C 
ATOM      5  C8  UNL     1      21.693   3.209  31.446  0.00  0.00    +0.041 C 
ATOM      6  C16 UNL     1      21.854   1.790  30.996  0.00  0.00    +0.114 C 
ENDROOT
BRANCH   1   9
ATOM      7  N1  UNL     1      21.145   2.473  25.002  0.00  0.00    -0.247 N 
ATOM      8  C4  UNL     1      20.821   1.671  26.029  0.00  0.00    +0.143 A 
ATOM      9  C5  UNL     1      21.758   1.916  27.014  0.00  0.00    +0.167 A 
ATOM     10  N5  UNL     1      22.607   2.861  26.559  0.00  0.00    -0.125 NA
ATOM     11  N6  UNL     1      22.208   3.184  25.338  0.00  0.00    -0.065 NA
BRANCH   7  12
ATOM     12  C3  UNL     1      20.412   2.625  23.750  0.00  0.00    +0.172 C 
BRANCH  12  14
ATOM     13  C1  UNL     1      19.414   4.455  22.424  0.00  0.00    +0.006 C 
ATOM     14  C2  UNL     1      20.046   4.066  23.534  0.00  0.00    -0.012 C 
ENDBRANCH  12  14
ENDBRANCH   7  12
ENDBRANCH   1   9
BRANCH   5  15
ATOM     15  C9  UNL     1      22.929   3.800  32.146  0.00  0.00    +0.111 C 
BRANCH  15  16
ATOM     16  N3  UNL     1      22.590   4.267  33.491  0.00  0.00    -0.311 N 
ATOM     17  C10 UNL     1      22.988   5.569  33.948  0.00  0.00    +0.244 C 
ATOM     18  O2  UNL     1      23.765   6.266  33.239  0.00  0.00    -0.270 OA
ATOM     19  H12 UNL     1      22.091   3.622  34.143  0.00  0.00    +0.149 HD
BRANCH  17  20
ATOM     20  C11 UNL     1      22.517   6.103  35.250  0.00  0.00    +0.042 A 
ATOM     21  C12 UNL     1      21.196   6.553  35.419  0.00  0.00    +0.033 A 
ATOM     22  C13 UNL     1      20.791   7.056  36.658  0.00  0.00    +0.114 A 
ATOM     23  N4  UNL     1      21.670   7.118  37.692  0.00  0.00    -0.228 NA
ATOM     24  C14 UNL     1      22.956   6.701  37.558  0.00  0.00    +0.214 A 
ATOM     25  F1  UNL     1      23.804   6.780  38.612  0.00  0.00    -0.184 F 
ATOM     26  C15 UNL     1      23.404   6.192  36.336  0.00  0.00    +0.072 A 
ENDBRANCH  17  20
ENDBRANCH  15  16
ENDBRANCH   5  15
TORSDOF 6
ENDMDL
MODEL 6
REMARK VINA RESULT:    -5.963     12.203     14.256
REMARK INTER + INTRA:          -8.402
REMARK INTER:                  -7.801
REMARK INTRA:                  -0.601
REMARK UNBOUND:                -0.347
REMARK  Name = /home/qwerty/github/datacon2025hack/step_04_hit_selection/docking/ligands/lig_684.pdb
REMARK  6 active torsions:
REMARK  status: ('A' for Active; 'I' for Inactive)
REMARK    1  A    between atoms: C2_2  and  C3_3
REMARK    2  A    between atoms: C3_3  and  N1_4
REMARK    3  A    between atoms: C5_6  and  C6_7
REMARK    4  A    between atoms: C8_11  and  C9_12
REMARK    5  A    between atoms: C9_12  and  N3_13
REMARK    6  A    between atoms: C10_14  and  C11_16
REMARK                            x       y       z     vdW  Elec       q    Type
REMARK                         _______ _______ _______ _____ _____    ______ ____
ROOT
ATOM      1  C6  UNL     1      20.840   1.319  26.804  0.00  0.00    +0.268 C 
ATOM      2  O1  UNL     1      20.013   0.589  26.195  0.00  0.00    -0.268 OA
ATOM      3  N2  UNL     1      21.469   2.390  26.095  0.00  0.00    -0.295 N 
ATOM      4  C7  UNL     1      22.444   3.474  26.328  0.00  0.00    +0.114 C 
ATOM      5  C8  UNL     1      22.405   4.027  24.937  0.00  0.00    +0.041 C 
ATOM      6  C16 UNL     1      21.417   2.922  24.720  0.00  0.00    +0.114 C 
ENDROOT
BRANCH   1   9
ATOM      7  N1  UNL     1      21.069   0.939  30.394  0.00  0.00    -0.247 N 
ATOM      8  C4  UNL     1      20.407   1.429  29.334  0.00  0.00    +0.143 A 
ATOM      9  C5  UNL     1      21.129   1.043  28.221  0.00  0.00    +0.167 A 
ATOM     10  N5  UNL     1      22.192   0.325  28.640  0.00  0.00    -0.125 NA
ATOM     11  N6  UNL     1      22.128   0.273  29.963  0.00  0.00    -0.065 NA
BRANCH   7  12
ATOM     12  C3  UNL     1      20.664   1.027  31.793  0.00  0.00    +0.172 C 
BRANCH  12  14
ATOM     13  C1  UNL     1      18.421   0.164  32.363  0.00  0.00    +0.006 C 
ATOM     14  C2  UNL     1      19.712  -0.084  32.129  0.00  0.00    -0.012 C 
ENDBRANCH  12  14
ENDBRANCH   7  12
ENDBRANCH   1   9
BRANCH   5  15
ATOM     15  C9  UNL     1      21.812   5.442  24.840  0.00  0.00    +0.111 C 
BRANCH  15  16
ATOM     16  N3  UNL     1      22.584   6.266  23.908  0.00  0.00    -0.311 N 
ATOM     17  C10 UNL     1      22.265   6.303  22.508  0.00  0.00    +0.244 C 
ATOM     18  O2  UNL     1      21.404   5.506  22.046  0.00  0.00    -0.270 OA
ATOM     19  H12 UNL     1      23.410   6.798  24.263  0.00  0.00    +0.149 HD
BRANCH  17  20
ATOM     20  C11 UNL     1      22.945   7.251  21.591  0.00  0.00    +0.042 A 
ATOM     21  C12 UNL     1      24.341   7.415  21.614  0.00  0.00    +0.033 A 
ATOM     22  C13 UNL     1      24.944   8.322  20.739  0.00  0.00    +0.114 A 
ATOM     23  N4  UNL     1      24.187   9.048  19.876  0.00  0.00    -0.228 NA
ATOM     24  C14 UNL     1      22.834   8.920  19.836  0.00  0.00    +0.214 A 
ATOM     25  F1  UNL     1      22.113   9.663  18.962  0.00  0.00    -0.184 F 
ATOM     26  C15 UNL     1      22.189   8.025  20.695  0.00  0.00    +0.072 A 
ENDBRANCH  17  20
ENDBRANCH  15  16
ENDBRANCH   5  15
TORSDOF 6
ENDMDL
MODEL 7
REMARK VINA RESULT:    -5.959     17.112     19.733
REMARK INTER + INTRA:          -8.396
REMARK INTER:                  -7.846
REMARK INTRA:                  -0.550
REMARK UNBOUND:                -0.347
REMARK  Name = /home/qwerty/github/datacon2025hack/step_04_hit_selection/docking/ligands/lig_684.pdb
REMARK  6 active torsions:
REMARK  status: ('A' for Active; 'I' for Inactive)
REMARK    1  A    between atoms: C2_2  and  C3_3
REMARK    2  A    between atoms: C3_3  and  N1_4
REMARK    3  A    between atoms: C5_6  and  C6_7
REMARK    4  A    between atoms: C8_11  and  C9_12
REMARK    5  A    between atoms: C9_12  and  N3_13
REMARK    6  A    between atoms: C10_14  and  C11_16
REMARK                            x       y       z     vdW  Elec       q    Type
REMARK                         _______ _______ _______ _____ _____    ______ ____
ROOT
ATOM      1  C6  UNL     1       8.678   5.462  21.046  0.00  0.00    +0.268 C 
ATOM      2  O1  UNL     1       7.613   4.929  20.637  0.00  0.00    -0.268 OA
ATOM      3  N2  UNL     1       9.752   4.619  21.474  0.00  0.00    -0.295 N 
ATOM      4  C7  UNL     1      11.126   4.731  22.002  0.00  0.00    +0.114 C 
ATOM      5  C8  UNL     1      11.370   3.258  22.123  0.00  0.00    +0.041 C 
ATOM      6  C16 UNL     1       9.975   3.166  21.586  0.00  0.00    +0.114 C 
ENDROOT
BRANCH   1   9
ATOM      7  N1  UNL     1       9.344   9.002  20.710  0.00  0.00    -0.247 N 
ATOM      8  C4  UNL     1       9.632   7.742  20.345  0.00  0.00    +0.143 A 
ATOM      9  C5  UNL     1       8.779   6.931  21.068  0.00  0.00    +0.167 A 
ATOM     10  N5  UNL     1       7.998   7.722  21.834  0.00  0.00    -0.125 NA
ATOM     11  N6  UNL     1       8.359   8.973  21.592  0.00  0.00    -0.065 NA
BRANCH   7  12
ATOM     12  C3  UNL     1       9.934  10.223  20.172  0.00  0.00    +0.172 C 
BRANCH  12  14
ATOM     13  C1  UNL     1      12.362  10.311  20.618  0.00  0.00    +0.006 C 
ATOM     14  C2  UNL     1      11.367   9.983  19.791  0.00  0.00    -0.012 C 
ENDBRANCH  12  14
ENDBRANCH   7  12
ENDBRANCH   1   9
BRANCH   5  15
ATOM     15  C9  UNL     1      12.456   2.721  21.176  0.00  0.00    +0.111 C 
BRANCH  15  16
ATOM     16  N3  UNL     1      13.193   1.621  21.800  0.00  0.00    -0.311 N 
ATOM     17  C10 UNL     1      14.331   1.028  21.156  0.00  0.00    +0.244 C 
ATOM     18  O2  UNL     1      14.614   1.355  19.971  0.00  0.00    -0.270 OA
ATOM     19  H12 UNL     1      12.855   1.233  22.709  0.00  0.00    +0.149 HD
BRANCH  17  20
ATOM     20  C11 UNL     1      15.169   0.021  21.852  0.00  0.00    +0.042 A 
ATOM     21  C12 UNL     1      16.435  -0.341  21.360  0.00  0.00    +0.033 A 
ATOM     22  C13 UNL     1      17.193  -1.299  22.039  0.00  0.00    +0.114 A 
ATOM     23  N4  UNL     1      16.707  -1.883  23.165  0.00  0.00    -0.228 NA
ATOM     24  C14 UNL     1      15.482  -1.562  23.661  0.00  0.00    +0.214 A 
ATOM     25  F1  UNL     1      15.031  -2.169  24.786  0.00  0.00    -0.184 F 
ATOM     26  C15 UNL     1      14.691  -0.611  23.012  0.00  0.00    +0.072 A 
ENDBRANCH  17  20
ENDBRANCH  15  16
ENDBRANCH   5  15
TORSDOF 6
ENDMDL
MODEL 8
REMARK VINA RESULT:    -5.891     13.098     15.832
REMARK INTER + INTRA:          -8.304
REMARK INTER:                  -7.851
REMARK INTRA:                  -0.454
REMARK UNBOUND:                -0.347
REMARK  Name = /home/qwerty/github/datacon2025hack/step_04_hit_selection/docking/ligands/lig_684.pdb
REMARK  6 active torsions:
REMARK  status: ('A' for Active; 'I' for Inactive)
REMARK    1  A    between atoms: C2_2  and  C3_3
REMARK    2  A    between atoms: C3_3  and  N1_4
REMARK    3  A    between atoms: C5_6  and  C6_7
REMARK    4  A    between atoms: C8_11  and  C9_12
REMARK    5  A    between atoms: C9_12  and  N3_13
REMARK    6  A    between atoms: C10_14  and  C11_16
REMARK                            x       y       z     vdW  Elec       q    Type
REMARK                         _______ _______ _______ _____ _____    ______ ____
ROOT
ATOM      1  C6  UNL     1      24.003  15.845  22.206  0.00  0.00    +0.268 C 
ATOM      2  O1  UNL     1      25.178  16.272  22.055  0.00  0.00    -0.268 OA
ATOM      3  N2  UNL     1      23.295  15.351  21.066  0.00  0.00    -0.295 N 
ATOM      4  C7  UNL     1      21.982  14.769  20.723  0.00  0.00    +0.114 C 
ATOM      5  C8  UNL     1      22.258  14.605  19.260  0.00  0.00    +0.041 C 
ATOM      6  C16 UNL     1      23.584  15.196  19.627  0.00  0.00    +0.114 C 
ENDROOT
BRANCH   1   9
ATOM      7  N1  UNL     1      22.943  15.532  25.651  0.00  0.00    -0.247 N 
ATOM      8  C4  UNL     1      23.803  15.183  24.681  0.00  0.00    +0.143 A 
ATOM      9  C5  UNL     1      23.402  15.868  23.551  0.00  0.00    +0.167 A 
ATOM     10  N5  UNL     1      22.325  16.614  23.874  0.00  0.00    -0.125 NA
ATOM     11  N6  UNL     1      22.072  16.395  25.156  0.00  0.00    -0.065 NA
BRANCH   7  12
ATOM     12  C3  UNL     1      22.992  15.119  27.049  0.00  0.00    +0.172 C 
BRANCH  12  14
ATOM     13  C1  UNL     1      24.410  13.458  28.202  0.00  0.00    +0.006 C 
ATOM     14  C2  UNL     1      23.621  13.760  27.169  0.00  0.00    -0.012 C 
ENDBRANCH  12  14
ENDBRANCH   7  12
ENDBRANCH   1   9
BRANCH   5  15
ATOM     15  C9  UNL     1      22.319  13.142  18.792  0.00  0.00    +0.111 C 
BRANCH  15  16
ATOM     16  N3  UNL     1      20.973  12.591  18.631  0.00  0.00    -0.311 N 
ATOM     17  C10 UNL     1      20.568  11.402  19.328  0.00  0.00    +0.244 C 
ATOM     18  O2  UNL     1      21.424  10.738  19.974  0.00  0.00    -0.270 OA
ATOM     19  H12 UNL     1      20.313  13.045  17.961  0.00  0.00    +0.149 HD
BRANCH  17  20
ATOM     20  C11 UNL     1      19.162  10.929  19.287  0.00  0.00    +0.042 A 
ATOM     21  C12 UNL     1      18.853   9.558  19.272  0.00  0.00    +0.033 A 
ATOM     22  C13 UNL     1      17.517   9.152  19.226  0.00  0.00    +0.114 A 
ATOM     23  N4  UNL     1      16.521  10.075  19.188  0.00  0.00    -0.228 NA
ATOM     24  C14 UNL     1      16.787  11.408  19.191  0.00  0.00    +0.214 A 
ATOM     25  F1  UNL     1      15.766  12.299  19.151  0.00  0.00    -0.184 F 
ATOM     26  C15 UNL     1      18.109  11.859  19.235  0.00  0.00    +0.072 A 
ENDBRANCH  17  20
ENDBRANCH  15  16
ENDBRANCH   5  15
TORSDOF 6
ENDMDL
MODEL 9
REMARK VINA RESULT:    -5.852     11.046     11.998
REMARK INTER + INTRA:          -8.251
REMARK INTER:                  -7.674
REMARK INTRA:                  -0.577
REMARK UNBOUND:                -0.347
REMARK  Name = /home/qwerty/github/datacon2025hack/step_04_hit_selection/docking/ligands/lig_684.pdb
REMARK  6 active torsions:
REMARK  status: ('A' for Active; 'I' for Inactive)
REMARK    1  A    between atoms: C2_2  and  C3_3
REMARK    2  A    between atoms: C3_3  and  N1_4
REMARK    3  A    between atoms: C5_6  and  C6_7
REMARK    4  A    between atoms: C8_11  and  C9_12
REMARK    5  A    between atoms: C9_12  and  N3_13
REMARK    6  A    between atoms: C10_14  and  C11_16
REMARK                            x       y       z     vdW  Elec       q    Type
REMARK                         _______ _______ _______ _____ _____    ______ ____
ROOT
ATOM      1  C6  UNL     1      21.523   1.683  30.567  0.00  0.00    +0.268 C 
ATOM      2  O1  UNL     1      22.533   2.179  31.133  0.00  0.00    -0.268 OA
ATOM      3  N2  UNL     1      20.507   1.078  31.372  0.00  0.00    -0.295 N 
ATOM      4  C7  UNL     1      19.205   0.401  31.218  0.00  0.00    +0.114 C 
ATOM      5  C8  UNL     1      18.976   0.158  32.677  0.00  0.00    +0.041 C 
ATOM      6  C16 UNL     1      20.298   0.848  32.814  0.00  0.00    +0.114 C 
ENDROOT
BRANCH   1   9
ATOM      7  N1  UNL     1      21.232   2.400  27.033  0.00  0.00    -0.247 N 
ATOM      8  C4  UNL     1      21.267   2.856  28.296  0.00  0.00    +0.143 A 
ATOM      9  C5  UNL     1      21.425   1.744  29.099  0.00  0.00    +0.167 A 
ATOM     10  N5  UNL     1      21.493   0.657  28.301  0.00  0.00    -0.125 NA
ATOM     11  N6  UNL     1      21.378   1.086  27.052  0.00  0.00    -0.065 NA
BRANCH   7  12
ATOM     12  C3  UNL     1      21.144   3.203  25.819  0.00  0.00    +0.172 C 
BRANCH  12  14
ATOM     13  C1  UNL     1      22.991   4.807  25.471  0.00  0.00    +0.006 C 
ATOM     14  C2  UNL     1      22.519   3.565  25.334  0.00  0.00    -0.012 C 
ENDBRANCH  12  14
ENDBRANCH   7  12
ENDBRANCH   1   9
BRANCH   5  15
ATOM     15  C9  UNL     1      17.787   0.934  33.266  0.00  0.00    +0.111 C 
BRANCH  15  16
ATOM     16  N3  UNL     1      17.012   0.088  34.174  0.00  0.00    -0.311 N 
ATOM     17  C10 UNL     1      17.017   0.319  35.592  0.00  0.00    +0.244 C 
ATOM     18  O2  UNL     1      17.812   1.167  36.080  0.00  0.00    -0.270 OA
ATOM     19  H12 UNL     1      16.484  -0.725  33.786  0.00  0.00    +0.149 HD
BRANCH  17  20
ATOM     20  C11 UNL     1      16.116  -0.438  36.496  0.00  0.00    +0.042 A 
ATOM     21  C12 UNL     1      16.559  -1.585  37.176  0.00  0.00    +0.033 A 
ATOM     22  C13 UNL     1      15.678  -2.275  38.014  0.00  0.00    +0.114 A 
ATOM     23  N4  UNL     1      14.399  -1.844  38.165  0.00  0.00    -0.228 NA
ATOM     24  C14 UNL     1      13.937  -0.744  37.514  0.00  0.00    +0.214 A 
ATOM     25  F1  UNL     1      12.653  -0.347  37.689  0.00  0.00    -0.184 F 
ATOM     26  C15 UNL     1      14.783  -0.026  36.665  0.00  0.00    +0.072 A 
ENDBRANCH  17  20
ENDBRANCH  15  16
ENDBRANCH   5  15
TORSDOF 6
ENDMDL
