REMARK  Name = /home/qwerty/github/datacon2025hack/step_04_hit_selection/docking/ligands/lig_30.pdb
REMARK  6 active torsions:
REMARK  status: ('A' for Active; 'I' for Inactive)
REMARK    1  A    between atoms: C1_1  and  C2_2
REMARK    2  A    between atoms: C6_6  and  N1_7
REMARK    3  A    between atoms: C7_8  and  C8_10
REMARK    4  A    between atoms: C8_10  and  N2_11
REMARK    5  A    between atoms: N4_17  and  C12_18
REMARK    6  A    between atoms: C16_22  and  N5_23
REMARK                            x       y       z     vdW  Elec       q    Type
REMARK                         _______ _______ _______ _____ _____    ______ ____
ROOT
ATOM      1  N2  UNL     1      -2.025  -1.151   1.283  0.00  0.00    -0.291 NA
ATOM      2  C9  UNL     1      -1.736  -1.740  -0.049  0.00  0.00    +0.104 C 
ATOM      3  C10 UNL     1      -0.814  -0.864  -0.916  0.00  0.00    +0.124 C 
ATOM      4  N3  UNL     1       0.151  -0.146  -0.077  0.00  0.00    -0.283 N 
ATOM      5  C11 UNL     1       1.524  -0.011  -0.481  0.00  0.00    +0.307 C 
ATOM      6  O2  UNL     1       2.079   1.119  -0.410  0.00  0.00    -0.252 OA
ATOM      7  N4  UNL     1       2.255  -1.150  -0.969  0.00  0.00    -0.269 N 
ATOM      8  C22 UNL     1      -0.334   0.622   1.076  0.00  0.00    +0.124 C 
ATOM      9  C23 UNL     1      -1.804   0.307   1.367  0.00  0.00    +0.104 C 
ATOM     10  H14 UNL     1       1.757  -2.063  -1.057  0.00  0.00    +0.156 HD
ENDROOT
BRANCH   7  11
ATOM     11  C12 UNL     1       3.619  -1.101  -1.421  0.00  0.00    +0.037 A 
ATOM     12  C13 UNL     1       4.002  -1.880  -2.519  0.00  0.00    +0.023 A 
ATOM     13  C14 UNL     1       5.325  -1.871  -2.964  0.00  0.00    +0.004 A 
ATOM     14  C15 UNL     1       6.282  -1.095  -2.309  0.00  0.00    +0.023 A 
ATOM     15  C16 UNL     1       5.930  -0.318  -1.188  0.00  0.00    +0.031 A 
ATOM     16  C21 UNL     1       4.591  -0.340  -0.746  0.00  0.00    +0.046 A 
BRANCH  15  17
ATOM     17  N5  UNL     1       6.923   0.480  -0.501  0.00  0.00    -0.330 N 
ATOM     18  C17 UNL     1       8.352   0.408  -0.770  0.00  0.00    +0.105 C 
ATOM     19  C18 UNL     1       9.016   1.299   0.270  0.00  0.00    +0.020 C 
ATOM     20  C19 UNL     1       7.911   2.199   0.807  0.00  0.00    +0.020 C 
ATOM     21  C20 UNL     1       6.609   1.463   0.525  0.00  0.00    +0.105 C 
ENDBRANCH  15  17
ENDBRANCH   7  11
BRANCH   1  22
ATOM     22  C8  UNL     1      -3.307  -1.619   1.866  0.00  0.00    +0.180 C 
BRANCH  22  24
ATOM     23  N1  UNL     1      -5.122  -0.567   0.390  0.00  0.00    -0.284 N 
ATOM     24  C7  UNL     1      -4.466  -0.670   1.664  0.00  0.00    +0.231 C 
ATOM     25  O1  UNL     1      -4.827   0.063   2.625  0.00  0.00    -0.274 OA
ATOM     26  H7  UNL     1      -4.642  -0.955  -0.450  0.00  0.00    +0.155 HD
BRANCH  23  32
ATOM     27  C1  UNL     1      -9.686   0.780   1.904  0.00  0.00    +0.044 C 
ATOM     28  C2  UNL     1      -8.575   0.838   0.898  0.00  0.00    -0.049 A 
ATOM     29  C3  UNL     1      -8.751   1.517  -0.317  0.00  0.00    +0.003 A 
ATOM     30  C4  UNL     1      -7.733   1.518  -1.276  0.00  0.00    +0.002 A 
ATOM     31  C5  UNL     1      -6.537   0.841  -1.031  0.00  0.00    +0.023 A 
ATOM     32  C6  UNL     1      -6.343   0.160   0.180  0.00  0.00    +0.034 A 
ATOM     33  C24 UNL     1      -7.377   0.143   1.133  0.00  0.00    +0.026 A 
ENDBRANCH  23  32
ENDBRANCH  22  24
ENDBRANCH   1  22
TORSDOF 5
