REMARK  Name = /home/qwerty/github/datacon2025hack/step_04_hit_selection/docking/ligands/lig_319.pdb
REMARK  3 active torsions:
REMARK  status: ('A' for Active; 'I' for Inactive)
REMARK    1  A    between atoms: C1_2  and  C15_19
REMARK    2  A    between atoms: N1_3  and  C2_4
REMARK    3  A    between atoms: C6_8  and  C7_9
REMARK                            x       y       z     vdW  Elec       q    Type
REMARK                         _______ _______ _______ _____ _____    ______ ____
ROOT
ATOM      1  C2  UNL     1       1.233   0.967  -0.292  0.00  0.00    +0.034 A 
ATOM      2  C3  UNL     1       1.598   2.163  -0.935  0.00  0.00    +0.023 A 
ATOM      3  C4  UNL     1       0.666   3.191  -1.094  0.00  0.00    +0.002 A 
ATOM      4  C5  UNL     1      -0.637   3.038  -0.615  0.00  0.00    +0.011 A 
ATOM      5  C6  UNL     1      -1.019   1.850   0.024  0.00  0.00    +0.019 A 
ATOM      6  C14 UNL     1      -0.073   0.830   0.206  0.00  0.00    +0.034 A 
ENDROOT
BRANCH   5   7
ATOM      7  C7  UNL     1      -2.391   1.710   0.549  0.00  0.00    +0.141 A 
ATOM      8  N2  UNL     1      -2.985   2.675   1.289  0.00  0.00    -0.236 NA
ATOM      9  C8  UNL     1      -4.229   2.208   1.520  0.00  0.00    +0.134 A 
ATOM     10  C9  UNL     1      -4.372   0.991   0.897  0.00  0.00    +0.039 A 
ATOM     11  N3  UNL     1      -3.211   0.660   0.310  0.00  0.00    -0.328 N 
ATOM     12  C10 UNL     1      -3.041  -0.451  -0.633  0.00  0.00    +0.123 C 
ATOM     13  C11 UNL     1      -4.141  -1.507  -0.433  0.00  0.00    +0.022 C 
ATOM     14  C12 UNL     1      -5.525  -0.847  -0.321  0.00  0.00    +0.008 C 
ATOM     15  C13 UNL     1      -5.588   0.116   0.874  0.00  0.00    +0.055 C 
ENDBRANCH   5   7
BRANCH   1  18
ATOM     16  O1  UNL     1       3.203  -0.003  -2.177  0.00  0.00    -0.270 OA
ATOM     17  C1  UNL     1       3.269  -0.380  -0.975  0.00  0.00    +0.248 C 
ATOM     18  N1  UNL     1       2.186  -0.089  -0.077  0.00  0.00    -0.281 N 
ATOM     19  H1  UNL     1       2.011  -0.751   0.713  0.00  0.00    +0.155 HD
BRANCH  17  20
ATOM     20  C15 UNL     1       4.444  -1.164  -0.521  0.00  0.00    +0.037 A 
ATOM     21  C16 UNL     1       5.285  -1.790  -1.461  0.00  0.00    +0.016 A 
ATOM     22  C17 UNL     1       6.397  -2.525  -1.039  0.00  0.00    +0.039 A 
ATOM     23  C18 UNL     1       6.686  -2.640   0.322  0.00  0.00    +0.123 A 
ATOM     24  F1  UNL     1       7.765  -3.353   0.729  0.00  0.00    -0.205 F 
ATOM     25  C19 UNL     1       5.865  -2.016   1.265  0.00  0.00    +0.039 A 
ATOM     26  C20 UNL     1       4.752  -1.280   0.849  0.00  0.00    +0.016 A 
ENDBRANCH  17  20
ENDBRANCH   1  18
TORSDOF 3
