REMARK  Name = /home/qwerty/github/datacon2025hack/step_04_hit_selection/docking/ligands/lig_67.pdb
REMARK  5 active torsions:
REMARK  status: ('A' for Active; 'I' for Inactive)
REMARK    1  A    between atoms: C1_1  and  O1_2
REMARK    2  A    between atoms: O1_2  and  C2_3
REMARK    3  A    between atoms: C6_8  and  C7_9
REMARK    4  A    between atoms: N2_11  and  C8_12
REMARK    5  A    between atoms: C11_15  and  C12_16
REMARK                            x       y       z     vdW  Elec       q    Type
REMARK                         _______ _______ _______ _____ _____    ______ ____
ROOT
ATOM      1  C7  UNL     1       0.658   0.348   0.504  0.00  0.00    +0.265 C 
ATOM      2  O2  UNL     1       0.260   1.462   0.939  0.00  0.00    -0.268 OA
ATOM      3  N2  UNL     1      -0.284  -0.711   0.265  0.00  0.00    -0.280 N 
ATOM      4  H7  UNL     1       0.060  -1.696   0.313  0.00  0.00    +0.155 HD
ENDROOT
BRANCH   1  10
ATOM      5  C2  UNL     1       6.564   0.112  -0.135  0.00  0.00    +0.215 A 
ATOM      6  C3  UNL     1       6.284  -1.143  -0.726  0.00  0.00    +0.069 A 
ATOM      7  C4  UNL     1       4.955  -1.593  -0.822  0.00  0.00    +0.033 A 
ATOM      8  C5  UNL     1       3.960  -0.762  -0.318  0.00  0.00    +0.066 A 
ATOM      9  N1  UNL     1       2.633  -0.968  -0.301  0.00  0.00    -0.349 N 
ATOM     10  C6  UNL     1       2.102   0.134   0.289  0.00  0.00    +0.105 A 
ATOM     11  C18 UNL     1       3.101   1.045   0.642  0.00  0.00    +0.060 A 
ATOM     12  C19 UNL     1       4.269   0.441   0.243  0.00  0.00    +0.093 A 
ATOM     13  N5  UNL     1       5.543   0.892   0.343  0.00  0.00    -0.211 NA
ATOM     14  H6  UNL     1       2.129  -1.799  -0.683  0.00  0.00    +0.166 HD
BRANCH   5  16
ATOM     15  C1  UNL     1       8.259   1.790   0.529  0.00  0.00    +0.279 C 
ATOM     16  O1  UNL     1       7.891   0.543  -0.048  0.00  0.00    -0.480 OA
ENDBRANCH   5  16
ENDBRANCH   1  10
BRANCH   3  17
ATOM     17  C8  UNL     1      -1.698  -0.502   0.107  0.00  0.00    +0.034 A 
ATOM     18  C9  UNL     1      -2.204   0.662  -0.495  0.00  0.00    +0.024 A 
ATOM     19  C10 UNL     1      -3.582   0.833  -0.659  0.00  0.00    +0.012 A 
ATOM     20  C11 UNL     1      -4.483  -0.158  -0.230  0.00  0.00    +0.001 A 
ATOM     21  C16 UNL     1      -3.969  -1.337   0.343  0.00  0.00    +0.012 A 
ATOM     22  C17 UNL     1      -2.591  -1.506   0.504  0.00  0.00    +0.024 A 
BRANCH  20  23
ATOM     23  C12 UNL     1      -5.944   0.039  -0.418  0.00  0.00    +0.074 A 
ATOM     24  C13 UNL     1      -6.888  -0.558   0.435  0.00  0.00    +0.048 A 
ATOM     25  C14 UNL     1      -8.243  -0.326   0.203  0.00  0.00    +0.114 A 
ATOM     26  N3  UNL     1      -8.630   0.469  -0.827  0.00  0.00    -0.244 NA
ATOM     27  C15 UNL     1      -7.711   1.048  -1.641  0.00  0.00    +0.221 A 
ATOM     28  N4  UNL     1      -6.386   0.834  -1.432  0.00  0.00    -0.235 NA
ENDBRANCH  20  23
ENDBRANCH   3  17
TORSDOF 4
