MODEL 1
REMARK VINA RESULT:    -6.676      0.000      0.000
REMARK INTER + INTRA:          -9.502
REMARK INTER:                  -8.823
REMARK INTRA:                  -0.679
REMARK UNBOUND:                -0.679
REMARK  Name = /home/qwerty/github/datacon2025hack/step_04_hit_selection/docking/ligands/lig_138.pdb
REMARK  8 active torsions:
REMARK  status: ('A' for Active; 'I' for Inactive)
REMARK    1  A    between atoms: C1_1  and  O1_2
REMARK    2  A    between atoms: O1_2  and  C2_3
REMARK    3  A    between atoms: C2_3  and  C3_5
REMARK    4  A    between atoms: C6_10  and  N2_11
REMARK    5  A    between atoms: C7_12  and  C8_14
REMARK    6  A    between atoms: C11_19  and  C12_20
REMARK    7  A    between atoms: C12_20  and  O6_22
REMARK    8  A    between atoms: C13_23  and  C14_24
REMARK                            x       y       z     vdW  Elec       q    Type
REMARK                         _______ _______ _______ _____ _____    ______ ____
ROOT
ATOM      1  N2  UNL     1      23.002   3.362  32.478  0.00  0.00    -0.275 N 
ATOM      2  C7  UNL     1      22.837   4.772  32.256  0.00  0.00    +0.303 C 
ATOM      3  O3  UNL     1      22.054   5.185  31.360  0.00  0.00    -0.265 OA
ATOM      4  H5  UNL     1      23.825   3.043  33.038  0.00  0.00    +0.155 HD
ENDROOT
BRANCH   2   5
ATOM      5  C8  UNL     1      23.590   5.746  33.072  0.00  0.00    +0.302 C 
ATOM      6  O4  UNL     1      24.834   5.863  32.902  0.00  0.00    -0.265 OA
ATOM      7  N3  UNL     1      22.934   6.534  34.081  0.00  0.00    -0.293 N 
ATOM      8  C9  UNL     1      23.662   6.871  35.312  0.00  0.00    +0.109 C 
ATOM      9  C10 UNL     1      22.700   6.939  36.503  0.00  0.00    +0.034 C 
ATOM     10  C11 UNL     1      21.494   7.849  36.189  0.00  0.00    +0.103 C 
ATOM     11  C13 UNL     1      20.766   7.413  34.889  0.00  0.00    +0.017 C 
ATOM     12  C14 UNL     1      20.021   6.071  35.018  0.00  0.00    +0.010 C 
ATOM     13  C15 UNL     1      21.773   7.361  33.724  0.00  0.00    +0.112 C 
BRANCH  10  14
ATOM     14  C12 UNL     1      20.548   7.955  37.357  0.00  0.00    +0.308 C 
ATOM     15  O5  UNL     1      19.701   8.888  37.421  0.00  0.00    -0.251 OA
BRANCH  14  16
ATOM     16  O6  UNL     1      20.644   7.039  38.400  0.00  0.00    -0.480 OA
ATOM     17  H11 UNL     1      20.422   7.309  39.351  0.00  0.00    +0.295 HD
ENDBRANCH  14  16
ENDBRANCH  10  14
ENDBRANCH   2   5
BRANCH   1  23
ATOM     18  C3  UNL     1      21.600   0.845  30.064  0.00  0.00    +0.079 A 
ATOM     19  C4  UNL     1      20.439   0.478  30.759  0.00  0.00    +0.127 A 
ATOM     20  N1  UNL     1      20.151   1.044  31.959  0.00  0.00    -0.241 NA
ATOM     21  C5  UNL     1      20.961   1.970  32.536  0.00  0.00    +0.150 A 
ATOM     22 CL1  UNL     1      20.506   2.623  34.102  0.00  0.00    -0.060 Cl
ATOM     23  C6  UNL     1      22.148   2.363  31.892  0.00  0.00    +0.072 A 
ATOM     24  C16 UNL     1      22.451   1.801  30.642  0.00  0.00    +0.042 A 
BRANCH  18  25
ATOM     25  C2  UNL     1      21.912   0.243  28.749  0.00  0.00    +0.340 C 
ATOM     26  O2  UNL     1      21.670   0.881  27.687  0.00  0.00    -0.245 OA
BRANCH  25  28
ATOM     27  C1  UNL     1      23.861  -1.275  28.906  0.00  0.00    +0.280 C 
ATOM     28  O1  UNL     1      22.477  -1.036  28.684  0.00  0.00    -0.464 OA
ENDBRANCH  25  28
ENDBRANCH  18  25
ENDBRANCH   1  23
TORSDOF 6
ENDMDL
MODEL 2
REMARK VINA RESULT:    -6.381      6.949     11.973
REMARK INTER + INTRA:          -9.111
REMARK INTER:                  -8.466
REMARK INTRA:                  -0.646
REMARK UNBOUND:                -0.679
REMARK  Name = /home/qwerty/github/datacon2025hack/step_04_hit_selection/docking/ligands/lig_138.pdb
REMARK  8 active torsions:
REMARK  status: ('A' for Active; 'I' for Inactive)
REMARK    1  A    between atoms: C1_1  and  O1_2
REMARK    2  A    between atoms: O1_2  and  C2_3
REMARK    3  A    between atoms: C2_3  and  C3_5
REMARK    4  A    between atoms: C6_10  and  N2_11
REMARK    5  A    between atoms: C7_12  and  C8_14
REMARK    6  A    between atoms: C11_19  and  C12_20
REMARK    7  A    between atoms: C12_20  and  O6_22
REMARK    8  A    between atoms: C13_23  and  C14_24
REMARK                            x       y       z     vdW  Elec       q    Type
REMARK                         _______ _______ _______ _____ _____    ______ ____
ROOT
ATOM      1  N2  UNL     1      19.899  -0.052  25.324  0.00  0.00    -0.275 N 
ATOM      2  C7  UNL     1      18.489  -0.267  25.497  0.00  0.00    +0.303 C 
ATOM      3  O3  UNL     1      17.859   0.354  26.394  0.00  0.00    -0.265 OA
ATOM      4  H5  UNL     1      20.438  -0.746  24.758  0.00  0.00    +0.155 HD
ENDROOT
BRANCH   2   5
ATOM      5  C8  UNL     1      17.770  -1.221  24.630  0.00  0.00    +0.302 C 
ATOM      6  O4  UNL     1      17.991  -2.456  24.755  0.00  0.00    -0.265 OA
ATOM      7  N3  UNL     1      16.853  -0.763  23.620  0.00  0.00    -0.293 N 
ATOM      8  C9  UNL     1      16.748  -1.506  22.357  0.00  0.00    +0.109 C 
ATOM      9  C10 UNL     1      16.445  -0.553  21.197  0.00  0.00    +0.034 C 
ATOM     10  C11 UNL     1      15.237   0.351  21.524  0.00  0.00    +0.103 C 
ATOM     11  C13 UNL     1      15.435   1.118  22.860  0.00  0.00    +0.017 C 
ATOM     12  C14 UNL     1      16.528   2.201  22.793  0.00  0.00    +0.010 C 
ATOM     13  C15 UNL     1      15.737   0.117  23.992  0.00  0.00    +0.112 C 
BRANCH  10  14
ATOM     14  C12 UNL     1      14.900   1.278  20.386  0.00  0.00    +0.308 C 
ATOM     15  O5  UNL     1      13.915   2.063  20.460  0.00  0.00    -0.251 OA
BRANCH  14  16
ATOM     16  O6  UNL     1      15.658   1.232  19.219  0.00  0.00    -0.480 OA
ATOM     17  H11 UNL     1      15.617   0.429  18.604  0.00  0.00    +0.295 HD
ENDBRANCH  14  16
ENDBRANCH  10  14
ENDBRANCH   2   5
BRANCH   1  23
ATOM     18  C3  UNL     1      21.779   1.927  27.908  0.00  0.00    +0.079 A 
ATOM     19  C4  UNL     1      21.963   3.122  27.197  0.00  0.00    +0.127 A 
ATOM     20  N1  UNL     1      21.484   3.247  25.932  0.00  0.00    -0.241 NA
ATOM     21  C5  UNL     1      20.821   2.240  25.306  0.00  0.00    +0.150 A 
ATOM     22 CL1  UNL     1      20.262   2.501  23.661  0.00  0.00    -0.060 Cl
ATOM     23  C6  UNL     1      20.623   1.014  25.964  0.00  0.00    +0.072 A 
ATOM     24  C16 UNL     1      21.096   0.874  27.279  0.00  0.00    +0.042 A 
BRANCH  18  25
ATOM     25  C2  UNL     1      22.286   1.789  29.291  0.00  0.00    +0.340 C 
ATOM     26  O2  UNL     1      21.971   2.639  30.169  0.00  0.00    -0.245 OA
BRANCH  25  28
ATOM     27  C1  UNL     1      24.470   0.626  29.198  0.00  0.00    +0.280 C 
ATOM     28  O1  UNL     1      23.116   0.712  29.624  0.00  0.00    -0.464 OA
ENDBRANCH  25  28
ENDBRANCH  18  25
ENDBRANCH   1  23
TORSDOF 6
ENDMDL
MODEL 3
REMARK VINA RESULT:    -6.267      2.526      3.332
REMARK INTER + INTRA:          -8.962
REMARK INTER:                  -8.223
REMARK INTRA:                  -0.738
REMARK UNBOUND:                -0.679
REMARK  Name = /home/qwerty/github/datacon2025hack/step_04_hit_selection/docking/ligands/lig_138.pdb
REMARK  8 active torsions:
REMARK  status: ('A' for Active; 'I' for Inactive)
REMARK    1  A    between atoms: C1_1  and  O1_2
REMARK    2  A    between atoms: O1_2  and  C2_3
REMARK    3  A    between atoms: C2_3  and  C3_5
REMARK    4  A    between atoms: C6_10  and  N2_11
REMARK    5  A    between atoms: C7_12  and  C8_14
REMARK    6  A    between atoms: C11_19  and  C12_20
REMARK    7  A    between atoms: C12_20  and  O6_22
REMARK    8  A    between atoms: C13_23  and  C14_24
REMARK                            x       y       z     vdW  Elec       q    Type
REMARK                         _______ _______ _______ _____ _____    ______ ____
ROOT
ATOM      1  N2  UNL     1      22.352   3.065  32.750  0.00  0.00    -0.275 N 
ATOM      2  C7  UNL     1      22.584   4.405  32.286  0.00  0.00    +0.303 C 
ATOM      3  O3  UNL     1      22.006   4.825  31.248  0.00  0.00    -0.265 OA
ATOM      4  H5  UNL     1      23.018   2.663  33.447  0.00  0.00    +0.155 HD
ENDROOT
BRANCH   2   5
ATOM      5  C8  UNL     1      23.505   5.297  33.017  0.00  0.00    +0.302 C 
ATOM      6  O4  UNL     1      24.736   5.270  32.745  0.00  0.00    -0.265 OA
ATOM      7  N3  UNL     1      23.028   6.165  34.060  0.00  0.00    -0.293 N 
ATOM      8  C9  UNL     1      23.889   6.432  35.220  0.00  0.00    +0.109 C 
ATOM      9  C10 UNL     1      23.044   6.622  36.485  0.00  0.00    +0.034 C 
ATOM     10  C11 UNL     1      21.925   7.659  36.251  0.00  0.00    +0.103 C 
ATOM     11  C13 UNL     1      21.047   7.293  35.024  0.00  0.00    +0.017 C 
ATOM     12  C14 UNL     1      20.170   6.046  35.240  0.00  0.00    +0.010 C 
ATOM     13  C15 UNL     1      21.942   7.114  33.782  0.00  0.00    +0.112 C 
BRANCH  10  14
ATOM     14  C12 UNL     1      21.097   7.884  37.490  0.00  0.00    +0.308 C 
ATOM     15  O5  UNL     1      20.161   8.730  37.497  0.00  0.00    -0.251 OA
BRANCH  14  16
ATOM     16  O6  UNL     1      21.401   7.183  38.653  0.00  0.00    -0.480 OA
ATOM     17  H11 UNL     1      21.848   6.276  38.611  0.00  0.00    +0.295 HD
ENDBRANCH  14  16
ENDBRANCH  10  14
ENDBRANCH   2   5
BRANCH   1  23
ATOM     18  C3  UNL     1      19.074   1.259  32.411  0.00  0.00    +0.079 A 
ATOM     19  C4  UNL     1      19.334   0.521  31.247  0.00  0.00    +0.127 A 
ATOM     20  N1  UNL     1      20.535   0.627  30.623  0.00  0.00    -0.241 NA
ATOM     21  C5  UNL     1      21.521   1.441  31.083  0.00  0.00    +0.150 A 
ATOM     22 CL1  UNL     1      23.029   1.520  30.186  0.00  0.00    -0.060 Cl
ATOM     23  C6  UNL     1      21.309   2.218  32.236  0.00  0.00    +0.072 A 
ATOM     24  C16 UNL     1      20.079   2.107  32.903  0.00  0.00    +0.042 A 
BRANCH  18  25
ATOM     25  C2  UNL     1      17.772   1.137  33.104  0.00  0.00    +0.340 C 
ATOM     26  O2  UNL     1      16.835   1.939  32.837  0.00  0.00    -0.245 OA
BRANCH  25  28
ATOM     27  C1  UNL     1      17.161   0.400  35.387  0.00  0.00    +0.280 C 
ATOM     28  O1  UNL     1      17.582   0.129  34.056  0.00  0.00    -0.464 OA
ENDBRANCH  25  28
ENDBRANCH  18  25
ENDBRANCH   1  23
TORSDOF 6
ENDMDL
MODEL 4
REMARK VINA RESULT:    -6.168     12.266     14.412
REMARK INTER + INTRA:          -8.830
REMARK INTER:                  -7.869
REMARK INTRA:                  -0.961
REMARK UNBOUND:                -0.679
REMARK  Name = /home/qwerty/github/datacon2025hack/step_04_hit_selection/docking/ligands/lig_138.pdb
REMARK  8 active torsions:
REMARK  status: ('A' for Active; 'I' for Inactive)
REMARK    1  A    between atoms: C1_1  and  O1_2
REMARK    2  A    between atoms: O1_2  and  C2_3
REMARK    3  A    between atoms: C2_3  and  C3_5
REMARK    4  A    between atoms: C6_10  and  N2_11
REMARK    5  A    between atoms: C7_12  and  C8_14
REMARK    6  A    between atoms: C11_19  and  C12_20
REMARK    7  A    between atoms: C12_20  and  O6_22
REMARK    8  A    between atoms: C13_23  and  C14_24
REMARK                            x       y       z     vdW  Elec       q    Type
REMARK                         _______ _______ _______ _____ _____    ______ ____
ROOT
ATOM      1  N2  UNL     1      12.527  13.590  32.083  0.00  0.00    -0.275 N 
ATOM      2  C7  UNL     1      12.630  14.623  33.077  0.00  0.00    +0.303 C 
ATOM      3  O3  UNL     1      12.286  15.804  32.801  0.00  0.00    -0.265 OA
ATOM      4  H5  UNL     1      13.042  12.696  32.247  0.00  0.00    +0.155 HD
ENDROOT
BRANCH   2   5
ATOM      5  C8  UNL     1      13.145  14.311  34.425  0.00  0.00    +0.302 C 
ATOM      6  O4  UNL     1      13.984  15.085  34.960  0.00  0.00    -0.265 OA
ATOM      7  N3  UNL     1      12.736  13.119  35.119  0.00  0.00    -0.293 N 
ATOM      8  C9  UNL     1      13.700  12.427  35.985  0.00  0.00    +0.109 C 
ATOM      9  C10 UNL     1      13.454  10.914  35.961  0.00  0.00    +0.034 C 
ATOM     10  C11 UNL     1      11.972  10.591  36.246  0.00  0.00    +0.103 C 
ATOM     11  C13 UNL     1      11.020  11.341  35.276  0.00  0.00    +0.017 C 
ATOM     12  C14 UNL     1      11.096  10.837  33.823  0.00  0.00    +0.010 C 
ATOM     13  C15 UNL     1      11.307  12.854  35.337  0.00  0.00    +0.112 C 
BRANCH  10  14
ATOM     14  C12 UNL     1      11.711   9.107  36.257  0.00  0.00    +0.308 C 
ATOM     15  O5  UNL     1      12.604   8.289  35.903  0.00  0.00    -0.251 OA
BRANCH  14  16
ATOM     16  O6  UNL     1      10.451   8.637  36.617  0.00  0.00    -0.480 OA
ATOM     17  H11 UNL     1       9.674   9.275  36.741  0.00  0.00    +0.295 HD
ENDBRANCH  14  16
ENDBRANCH  10  14
ENDBRANCH   2   5
BRANCH   1  23
ATOM     18  C3  UNL     1       9.811  13.536  29.485  0.00  0.00    +0.079 A 
ATOM     19  C4  UNL     1      10.529  14.036  28.389  0.00  0.00    +0.127 A 
ATOM     20  N1  UNL     1      11.839  14.367  28.521  0.00  0.00    -0.241 NA
ATOM     21  C5  UNL     1      12.504  14.238  29.699  0.00  0.00    +0.150 A 
ATOM     22 CL1  UNL     1      14.193  14.716  29.765  0.00  0.00    -0.060 Cl
ATOM     23  C6  UNL     1      11.830  13.758  30.836  0.00  0.00    +0.072 A 
ATOM     24  C16 UNL     1      10.480  13.394  30.712  0.00  0.00    +0.042 A 
BRANCH  18  25
ATOM     25  C2  UNL     1       8.388  13.160  29.345  0.00  0.00    +0.340 C 
ATOM     26  O2  UNL     1       7.482  13.958  29.714  0.00  0.00    -0.245 OA
BRANCH  25  28
ATOM     27  C1  UNL     1       7.777  10.774  29.602  0.00  0.00    +0.280 C 
ATOM     28  O1  UNL     1       8.046  11.917  28.799  0.00  0.00    -0.464 OA
ENDBRANCH  25  28
ENDBRANCH  18  25
ENDBRANCH   1  23
TORSDOF 6
ENDMDL
MODEL 5
REMARK VINA RESULT:    -6.092     15.238     18.059
REMARK INTER + INTRA:          -8.730
REMARK INTER:                  -8.056
REMARK INTRA:                  -0.673
REMARK UNBOUND:                -0.679
REMARK  Name = /home/qwerty/github/datacon2025hack/step_04_hit_selection/docking/ligands/lig_138.pdb
REMARK  8 active torsions:
REMARK  status: ('A' for Active; 'I' for Inactive)
REMARK    1  A    between atoms: C1_1  and  O1_2
REMARK    2  A    between atoms: O1_2  and  C2_3
REMARK    3  A    between atoms: C2_3  and  C3_5
REMARK    4  A    between atoms: C6_10  and  N2_11
REMARK    5  A    between atoms: C7_12  and  C8_14
REMARK    6  A    between atoms: C11_19  and  C12_20
REMARK    7  A    between atoms: C12_20  and  O6_22
REMARK    8  A    between atoms: C13_23  and  C14_24
REMARK                            x       y       z     vdW  Elec       q    Type
REMARK                         _______ _______ _______ _____ _____    ______ ____
ROOT
ATOM      1  N2  UNL     1       7.800  10.298  25.276  0.00  0.00    -0.275 N 
ATOM      2  C7  UNL     1       8.920  10.052  24.409  0.00  0.00    +0.303 C 
ATOM      3  O3  UNL     1      10.095  10.120  24.858  0.00  0.00    -0.265 OA
ATOM      4  H5  UNL     1       6.869  10.482  24.839  0.00  0.00    +0.155 HD
ENDROOT
BRANCH   2   5
ATOM      5  C8  UNL     1       8.701   9.724  22.987  0.00  0.00    +0.302 C 
ATOM      6  O4  UNL     1       8.346  10.636  22.191  0.00  0.00    -0.265 OA
ATOM      7  N3  UNL     1       8.847   8.377  22.503  0.00  0.00    -0.293 N 
ATOM      8  C9  UNL     1       7.967   7.903  21.426  0.00  0.00    +0.109 C 
ATOM      9  C10 UNL     1       7.669   6.410  21.594  0.00  0.00    +0.034 C 
ATOM     10  C11 UNL     1       8.972   5.602  21.775  0.00  0.00    +0.103 C 
ATOM     11  C13 UNL     1       9.833   6.150  22.945  0.00  0.00    +0.017 C 
ATOM     12  C14 UNL     1       9.213   5.910  24.334  0.00  0.00    +0.010 C 
ATOM     13  C15 UNL     1      10.104   7.652  22.729  0.00  0.00    +0.112 C 
BRANCH  10  14
ATOM     14  C12 UNL     1       8.706   4.126  21.914  0.00  0.00    +0.308 C 
ATOM     15  O5  UNL     1       9.635   3.285  21.771  0.00  0.00    -0.251 OA
BRANCH  14  16
ATOM     16  O6  UNL     1       7.408   3.684  22.155  0.00  0.00    -0.480 OA
ATOM     17  H11 UNL     1       6.610   4.224  21.846  0.00  0.00    +0.295 HD
ENDBRANCH  14  16
ENDBRANCH  10  14
ENDBRANCH   2   5
BRANCH   1  23
ATOM     18  C3  UNL     1       8.419  11.687  28.714  0.00  0.00    +0.079 A 
ATOM     19  C4  UNL     1       8.184  10.533  29.476  0.00  0.00    +0.127 A 
ATOM     20  N1  UNL     1       7.842   9.368  28.868  0.00  0.00    -0.241 NA
ATOM     21  C5  UNL     1       7.707   9.267  27.520  0.00  0.00    +0.150 A 
ATOM     22 CL1  UNL     1       7.239   7.717  26.839  0.00  0.00    -0.060 Cl
ATOM     23  C6  UNL     1       7.913  10.396  26.707  0.00  0.00    +0.072 A 
ATOM     24  C16 UNL     1       8.286  11.604  27.318  0.00  0.00    +0.042 A 
BRANCH  18  25
ATOM     25  C2  UNL     1       8.807  12.955  29.368  0.00  0.00    +0.340 C 
ATOM     26  O2  UNL     1       7.924  13.801  29.683  0.00  0.00    -0.245 OA
BRANCH  25  28
ATOM     27  C1  UNL     1      10.944  14.086  28.838  0.00  0.00    +0.280 C 
ATOM     28  O1  UNL     1      10.155  13.216  29.639  0.00  0.00    -0.464 OA
ENDBRANCH  25  28
ENDBRANCH  18  25
ENDBRANCH   1  23
TORSDOF 6
ENDMDL
MODEL 6
REMARK VINA RESULT:    -6.090     11.773     14.204
REMARK INTER + INTRA:          -8.727
REMARK INTER:                  -8.073
REMARK INTRA:                  -0.654
REMARK UNBOUND:                -0.679
REMARK  Name = /home/qwerty/github/datacon2025hack/step_04_hit_selection/docking/ligands/lig_138.pdb
REMARK  8 active torsions:
REMARK  status: ('A' for Active; 'I' for Inactive)
REMARK    1  A    between atoms: C1_1  and  O1_2
REMARK    2  A    between atoms: O1_2  and  C2_3
REMARK    3  A    between atoms: C2_3  and  C3_5
REMARK    4  A    between atoms: C6_10  and  N2_11
REMARK    5  A    between atoms: C7_12  and  C8_14
REMARK    6  A    between atoms: C11_19  and  C12_20
REMARK    7  A    between atoms: C12_20  and  O6_22
REMARK    8  A    between atoms: C13_23  and  C14_24
REMARK                            x       y       z     vdW  Elec       q    Type
REMARK                         _______ _______ _______ _____ _____    ______ ____
ROOT
ATOM      1  N2  UNL     1      11.033  14.106  31.954  0.00  0.00    -0.275 N 
ATOM      2  C7  UNL     1      11.323  12.973  32.790  0.00  0.00    +0.303 C 
ATOM      3  O3  UNL     1      11.298  11.809  32.310  0.00  0.00    -0.265 OA
ATOM      4  H5  UNL     1      10.814  15.017  32.416  0.00  0.00    +0.155 HD
ENDROOT
BRANCH   2   5
ATOM      5  C8  UNL     1      11.644  13.166  34.218  0.00  0.00    +0.302 C 
ATOM      6  O4  UNL     1      10.713  13.405  35.033  0.00  0.00    -0.265 OA
ATOM      7  N3  UNL     1      13.004  13.125  34.686  0.00  0.00    -0.293 N 
ATOM      8  C9  UNL     1      13.408  14.002  35.793  0.00  0.00    +0.109 C 
ATOM      9  C10 UNL     1      14.866  14.441  35.626  0.00  0.00    +0.034 C 
ATOM     10  C11 UNL     1      15.787  13.225  35.388  0.00  0.00    +0.103 C 
ATOM     11  C13 UNL     1      15.306  12.364  34.189  0.00  0.00    +0.017 C 
ATOM     12  C14 UNL     1      15.475  13.056  32.824  0.00  0.00    +0.010 C 
ATOM     13  C15 UNL     1      13.839  11.948  34.405  0.00  0.00    +0.112 C 
BRANCH  10  14
ATOM     14  C12 UNL     1      17.232  13.630  35.249  0.00  0.00    +0.308 C 
ATOM     15  O5  UNL     1      18.158  12.789  35.414  0.00  0.00    -0.251 OA
BRANCH  14  16
ATOM     16  O6  UNL     1      17.547  14.959  34.982  0.00  0.00    -0.480 OA
ATOM     17  H11 UNL     1      17.926  15.233  34.084  0.00  0.00    +0.295 HD
ENDBRANCH  14  16
ENDBRANCH  10  14
ENDBRANCH   2   5
BRANCH   1  23
ATOM     18  C3  UNL     1       9.692  13.449  28.504  0.00  0.00    +0.079 A 
ATOM     19  C4  UNL     1      10.808  13.830  27.745  0.00  0.00    +0.127 A 
ATOM     20  N1  UNL     1      11.934  14.277  28.358  0.00  0.00    -0.241 NA
ATOM     21  C5  UNL     1      12.030  14.379  29.710  0.00  0.00    +0.150 A 
ATOM     22 CL1  UNL     1      13.526  14.990  30.399  0.00  0.00    -0.060 Cl
ATOM     23  C6  UNL     1      10.937  14.028  30.520  0.00  0.00    +0.072 A 
ATOM     24  C16 UNL     1       9.771  13.547  29.903  0.00  0.00    +0.042 A 
BRANCH  18  25
ATOM     25  C2  UNL     1       8.467  12.948  27.843  0.00  0.00    +0.340 C 
ATOM     26  O2  UNL     1       7.651  13.758  27.323  0.00  0.00    -0.245 OA
BRANCH  25  28
ATOM     27  C1  UNL     1       8.337  10.813  26.596  0.00  0.00    +0.280 C 
ATOM     28  O1  UNL     1       8.216  11.572  27.792  0.00  0.00    -0.464 OA
ENDBRANCH  25  28
ENDBRANCH  18  25
ENDBRANCH   1  23
TORSDOF 6
ENDMDL
MODEL 7
REMARK VINA RESULT:    -5.932     12.827     14.342
REMARK INTER + INTRA:          -8.518
REMARK INTER:                  -7.772
REMARK INTRA:                  -0.746
REMARK UNBOUND:                -0.679
REMARK  Name = /home/qwerty/github/datacon2025hack/step_04_hit_selection/docking/ligands/lig_138.pdb
REMARK  8 active torsions:
REMARK  status: ('A' for Active; 'I' for Inactive)
REMARK    1  A    between atoms: C1_1  and  O1_2
REMARK    2  A    between atoms: O1_2  and  C2_3
REMARK    3  A    between atoms: C2_3  and  C3_5
REMARK    4  A    between atoms: C6_10  and  N2_11
REMARK    5  A    between atoms: C7_12  and  C8_14
REMARK    6  A    between atoms: C11_19  and  C12_20
REMARK    7  A    between atoms: C12_20  and  O6_22
REMARK    8  A    between atoms: C13_23  and  C14_24
REMARK                            x       y       z     vdW  Elec       q    Type
REMARK                         _______ _______ _______ _____ _____    ______ ____
ROOT
ATOM      1  N2  UNL     1      10.236  13.358  30.597  0.00  0.00    -0.275 N 
ATOM      2  C7  UNL     1      11.592  13.155  31.027  0.00  0.00    +0.303 C 
ATOM      3  O3  UNL     1      12.276  12.214  30.544  0.00  0.00    -0.265 OA
ATOM      4  H5  UNL     1       9.620  13.969  31.179  0.00  0.00    +0.155 HD
ENDROOT
BRANCH   2   5
ATOM      5  C8  UNL     1      12.191  14.044  32.042  0.00  0.00    +0.302 C 
ATOM      6  O4  UNL     1      12.642  15.168  31.690  0.00  0.00    -0.265 OA
ATOM      7  N3  UNL     1      12.304  13.633  33.416  0.00  0.00    -0.293 N 
ATOM      8  C9  UNL     1      13.467  14.068  34.201  0.00  0.00    +0.109 C 
ATOM      9  C10 UNL     1      13.860  12.994  35.220  0.00  0.00    +0.034 C 
ATOM     10  C11 UNL     1      12.640  12.550  36.055  0.00  0.00    +0.103 C 
ATOM     11  C13 UNL     1      11.464  12.084  35.154  0.00  0.00    +0.017 C 
ATOM     12  C14 UNL     1      11.738  10.760  34.417  0.00  0.00    +0.010 C 
ATOM     13  C15 UNL     1      11.108  13.197  34.150  0.00  0.00    +0.112 C 
BRANCH  10  14
ATOM     14  C12 UNL     1      13.007  11.513  37.085  0.00  0.00    +0.308 C 
ATOM     15  O5  UNL     1      14.180  11.055  37.152  0.00  0.00    -0.251 OA
BRANCH  14  16
ATOM     16  O6  UNL     1      12.025  11.022  37.940  0.00  0.00    -0.480 OA
ATOM     17  H11 UNL     1      11.136  11.497  38.038  0.00  0.00    +0.295 HD
ENDBRANCH  14  16
ENDBRANCH  10  14
ENDBRANCH   2   5
BRANCH   1  23
ATOM     18  C3  UNL     1       8.274  10.916  28.519  0.00  0.00    +0.079 A 
ATOM     19  C4  UNL     1       8.604  11.383  27.238  0.00  0.00    +0.127 A 
ATOM     20  N1  UNL     1       9.433  12.449  27.090  0.00  0.00    -0.241 NA
ATOM     21  C5  UNL     1       9.968  13.104  28.154  0.00  0.00    +0.150 A 
ATOM     22 CL1  UNL     1      11.011  14.484  27.850  0.00  0.00    -0.060 Cl
ATOM     23  C6  UNL     1       9.657  12.690  29.461  0.00  0.00    +0.072 A 
ATOM     24  C16 UNL     1       8.816  11.579  29.632  0.00  0.00    +0.042 A 
BRANCH  18  25
ATOM     25  C2  UNL     1       7.384   9.747  28.687  0.00  0.00    +0.340 C 
ATOM     26  O2  UNL     1       7.185   8.958  27.722  0.00  0.00    -0.245 OA
BRANCH  25  28
ATOM     27  C1  UNL     1       7.089   8.409  30.749  0.00  0.00    +0.280 C 
ATOM     28  O1  UNL     1       6.762   9.517  29.920  0.00  0.00    -0.464 OA
ENDBRANCH  25  28
ENDBRANCH  18  25
ENDBRANCH   1  23
TORSDOF 6
ENDMDL
MODEL 8
REMARK VINA RESULT:    -5.861      2.286      3.746
REMARK INTER + INTRA:          -8.425
REMARK INTER:                  -7.664
REMARK INTRA:                  -0.760
REMARK UNBOUND:                -0.679
REMARK  Name = /home/qwerty/github/datacon2025hack/step_04_hit_selection/docking/ligands/lig_138.pdb
REMARK  8 active torsions:
REMARK  status: ('A' for Active; 'I' for Inactive)
REMARK    1  A    between atoms: C1_1  and  O1_2
REMARK    2  A    between atoms: O1_2  and  C2_3
REMARK    3  A    between atoms: C2_3  and  C3_5
REMARK    4  A    between atoms: C6_10  and  N2_11
REMARK    5  A    between atoms: C7_12  and  C8_14
REMARK    6  A    between atoms: C11_19  and  C12_20
REMARK    7  A    between atoms: C12_20  and  O6_22
REMARK    8  A    between atoms: C13_23  and  C14_24
REMARK                            x       y       z     vdW  Elec       q    Type
REMARK                         _______ _______ _______ _____ _____    ______ ____
ROOT
ATOM      1  N2  UNL     1      20.369   3.753  32.552  0.00  0.00    -0.275 N 
ATOM      2  C7  UNL     1      21.015   4.075  33.795  0.00  0.00    +0.303 C 
ATOM      3  O3  UNL     1      21.770   3.235  34.352  0.00  0.00    -0.265 OA
ATOM      4  H5  UNL     1      19.569   4.349  32.243  0.00  0.00    +0.155 HD
ENDROOT
BRANCH   2   5
ATOM      5  C8  UNL     1      20.792   5.389  34.430  0.00  0.00    +0.302 C 
ATOM      6  O4  UNL     1      19.783   5.556  35.167  0.00  0.00    -0.265 OA
ATOM      7  N3  UNL     1      21.685   6.492  34.189  0.00  0.00    -0.293 N 
ATOM      8  C9  UNL     1      21.141   7.856  34.137  0.00  0.00    +0.109 C 
ATOM      9  C10 UNL     1      21.931   8.711  33.140  0.00  0.00    +0.034 C 
ATOM     10  C11 UNL     1      23.447   8.623  33.415  0.00  0.00    +0.103 C 
ATOM     11  C13 UNL     1      23.946   7.153  33.431  0.00  0.00    +0.017 C 
ATOM     12  C14 UNL     1      23.919   6.476  32.049  0.00  0.00    +0.010 C 
ATOM     13  C15 UNL     1      23.123   6.338  34.447  0.00  0.00    +0.112 C 
BRANCH  10  14
ATOM     14  C12 UNL     1      24.243   9.479  32.465  0.00  0.00    +0.308 C 
ATOM     15  O5  UNL     1      25.504   9.495  32.510  0.00  0.00    -0.251 OA
BRANCH  14  16
ATOM     16  O6  UNL     1      23.576  10.299  31.560  0.00  0.00    -0.480 OA
ATOM     17  H11 UNL     1      23.906  10.398  30.607  0.00  0.00    +0.295 HD
ENDBRANCH  14  16
ENDBRANCH  10  14
ENDBRANCH   2   5
BRANCH   1  23
ATOM     18  C3  UNL     1      21.950   1.572  29.931  0.00  0.00    +0.079 A 
ATOM     19  C4  UNL     1      21.291   0.365  30.204  0.00  0.00    +0.127 A 
ATOM     20  N1  UNL     1      20.375   0.296  31.205  0.00  0.00    -0.241 NA
ATOM     21  C5  UNL     1      20.064   1.370  31.977  0.00  0.00    +0.150 A 
ATOM     22 CL1  UNL     1      18.881   1.165  33.259  0.00  0.00    -0.060 Cl
ATOM     23  C6  UNL     1      20.707   2.601  31.760  0.00  0.00    +0.072 A 
ATOM     24  C16 UNL     1      21.643   2.694  30.717  0.00  0.00    +0.042 A 
BRANCH  18  25
ATOM     25  C2  UNL     1      22.938   1.658  28.833  0.00  0.00    +0.340 C 
ATOM     26  O2  UNL     1      24.080   1.137  28.966  0.00  0.00    -0.245 OA
BRANCH  25  28
ATOM     27  C1  UNL     1      21.469   1.961  26.863  0.00  0.00    +0.280 C 
ATOM     28  O1  UNL     1      22.603   2.317  27.644  0.00  0.00    -0.464 OA
ENDBRANCH  25  28
ENDBRANCH  18  25
ENDBRANCH   1  23
TORSDOF 6
ENDMDL
MODEL 9
REMARK VINA RESULT:    -5.728      7.300     11.696
REMARK INTER + INTRA:          -8.248
REMARK INTER:                  -7.428
REMARK INTRA:                  -0.820
REMARK UNBOUND:                -0.679
REMARK  Name = /home/qwerty/github/datacon2025hack/step_04_hit_selection/docking/ligands/lig_138.pdb
REMARK  8 active torsions:
REMARK  status: ('A' for Active; 'I' for Inactive)
REMARK    1  A    between atoms: C1_1  and  O1_2
REMARK    2  A    between atoms: O1_2  and  C2_3
REMARK    3  A    between atoms: C2_3  and  C3_5
REMARK    4  A    between atoms: C6_10  and  N2_11
REMARK    5  A    between atoms: C7_12  and  C8_14
REMARK    6  A    between atoms: C11_19  and  C12_20
REMARK    7  A    between atoms: C12_20  and  O6_22
REMARK    8  A    between atoms: C13_23  and  C14_24
REMARK                            x       y       z     vdW  Elec       q    Type
REMARK                         _______ _______ _______ _____ _____    ______ ____
ROOT
ATOM      1  N2  UNL     1      14.593   9.886  36.949  0.00  0.00    -0.275 N 
ATOM      2  C7  UNL     1      14.842   8.951  35.886  0.00  0.00    +0.303 C 
ATOM      3  O3  UNL     1      14.430   9.192  34.721  0.00  0.00    -0.265 OA
ATOM      4  H5  UNL     1      14.717   9.558  37.933  0.00  0.00    +0.155 HD
ENDROOT
BRANCH   2   5
ATOM      5  C8  UNL     1      15.577   7.698  36.155  0.00  0.00    +0.302 C 
ATOM      6  O4  UNL     1      14.931   6.650  36.427  0.00  0.00    -0.265 OA
ATOM      7  N3  UNL     1      17.015   7.664  36.149  0.00  0.00    -0.293 N 
ATOM      8  C9  UNL     1      17.714   6.773  37.085  0.00  0.00    +0.109 C 
ATOM      9  C10 UNL     1      19.043   7.396  37.528  0.00  0.00    +0.034 C 
ATOM     10  C11 UNL     1      19.876   7.846  36.310  0.00  0.00    +0.103 C 
ATOM     11  C13 UNL     1      19.076   8.801  35.384  0.00  0.00    +0.017 C 
ATOM     12  C14 UNL     1      18.806  10.183  36.007  0.00  0.00    +0.010 C 
ATOM     13  C15 UNL     1      17.753   8.130  34.967  0.00  0.00    +0.112 C 
BRANCH  10  14
ATOM     14  C12 UNL     1      21.201   8.436  36.719  0.00  0.00    +0.308 C 
ATOM     15  O5  UNL     1      22.085   8.700  35.859  0.00  0.00    -0.251 OA
BRANCH  14  16
ATOM     16  O6  UNL     1      21.469   8.645  38.068  0.00  0.00    -0.480 OA
ATOM     17  H11 UNL     1      21.834   7.899  38.648  0.00  0.00    +0.295 HD
ENDBRANCH  14  16
ENDBRANCH  10  14
ENDBRANCH   2   5
BRANCH   1  23
ATOM     18  C3  UNL     1      14.481  13.604  36.415  0.00  0.00    +0.079 A 
ATOM     19  C4  UNL     1      13.092  13.791  36.373  0.00  0.00    +0.127 A 
ATOM     20  N1  UNL     1      12.253  12.733  36.516  0.00  0.00    -0.241 NA
ATOM     21  C5  UNL     1      12.711  11.466  36.698  0.00  0.00    +0.150 A 
ATOM     22 CL1  UNL     1      11.539  10.166  36.850  0.00  0.00    -0.060 Cl
ATOM     23  C6  UNL     1      14.094  11.217  36.731  0.00  0.00    +0.072 A 
ATOM     24  C16 UNL     1      14.975  12.303  36.603  0.00  0.00    +0.042 A 
BRANCH  18  25
ATOM     25  C2  UNL     1      15.400  14.755  36.275  0.00  0.00    +0.340 C 
ATOM     26  O2  UNL     1      16.307  14.738  35.397  0.00  0.00    -0.245 OA
BRANCH  25  28
ATOM     27  C1  UNL     1      14.953  17.165  36.628  0.00  0.00    +0.280 C 
ATOM     28  O1  UNL     1      15.260  15.865  37.116  0.00  0.00    -0.464 OA
ENDBRANCH  25  28
ENDBRANCH  18  25
ENDBRANCH   1  23
TORSDOF 6
ENDMDL
