REMARK  Name = /home/qwerty/github/datacon2025hack/step_04_hit_selection/docking/ligands/lig_18.pdb
REMARK  10 active torsions:
REMARK  status: ('A' for Active; 'I' for Inactive)
REMARK    1  A    between atoms: C1_1  and  C2_2
REMARK    2  A    between atoms: C7_9  and  N1_10
REMARK    3  A    between atoms: N2_13  and  C9_14
REMARK    4  A    between atoms: C9_14  and  C10_15
REMARK    5  A    between atoms: C9_14  and  C16_21
REMARK    6  A    between atoms: C16_21  and  O2_22
REMARK    7  A    between atoms: C18_24  and  C19_25
REMARK    8  A    between atoms: C18_24  and  C20_26
REMARK    9  A    between atoms: C21_28  and  C22_29
REMARK   10  A    between atoms: C21_28  and  C23_30
REMARK                            x       y       z     vdW  Elec       q    Type
REMARK                         _______ _______ _______ _____ _____    ______ ____
ROOT
ATOM      1  C9  UNL     1      -0.267   0.386  -0.520  0.00  0.00    +0.136 C 
ENDROOT
BRANCH   1   2
ATOM      2  C16 UNL     1      -1.727  -0.189  -0.429  0.00  0.00    +0.092 C 
ATOM      3  C17 UNL     1      -2.767   0.969  -0.535  0.00  0.00    +0.058 C 
ATOM      4  C18 UNL     1      -4.096   0.770   0.256  0.00  0.00    +0.017 C 
ATOM      5  C19 UNL     1      -4.884   2.102   0.179  0.00  0.00    +0.027 C 
ATOM      6  C20 UNL     1      -4.982  -0.318  -0.383  0.00  0.00    +0.027 C 
ATOM      7  N3  UNL     1      -3.875   0.407   1.680  0.00  0.00    -0.306 NA
ATOM      8  C21 UNL     1      -2.572  -0.183   2.065  0.00  0.00    +0.017 C 
ATOM      9  C22 UNL     1      -2.845  -1.175   3.213  0.00  0.00    +0.027 C 
ATOM     10  C23 UNL     1      -1.621   0.911   2.611  0.00  0.00    +0.027 C 
ATOM     11  C24 UNL     1      -1.918  -0.981   0.900  0.00  0.00    +0.058 C 
ATOM     12  H23 UNL     1      -4.129   1.184   2.337  0.00  0.00    +0.123 HD
BRANCH   2  13
ATOM     13  O2  UNL     1      -1.885  -1.071  -1.521  0.00  0.00    -0.386 OA
ATOM     14  H14 UNL     1      -2.822  -1.388  -1.553  0.00  0.00    +0.210 HD
ENDBRANCH   2  13
ENDBRANCH   1   2
BRANCH   1  18
ATOM     15  N1  UNL     1       3.038  -1.536  -0.122  0.00  0.00    -0.269 N 
ATOM     16  C8  UNL     1       2.090  -0.459  -0.072  0.00  0.00    +0.304 C 
ATOM     17  O1  UNL     1       2.434   0.675   0.361  0.00  0.00    -0.252 OA
ATOM     18  N2  UNL     1       0.736  -0.688  -0.486  0.00  0.00    -0.290 N 
ATOM     19  H6  UNL     1       2.672  -2.495  -0.317  0.00  0.00    +0.156 HD
ATOM     20  H7  UNL     1       0.486  -1.638  -0.841  0.00  0.00    +0.151 HD
BRANCH  15  29
ATOM     21  C1  UNL     1       4.452  -3.588   1.408  0.00  0.00    +0.046 C 
ATOM     22  C2  UNL     1       5.150  -2.364   0.878  0.00  0.00    -0.026 A 
ATOM     23  C3  UNL     1       6.529  -2.206   1.099  0.00  0.00    +0.044 A 
ATOM     24  C4  UNL     1       7.201  -1.079   0.618  0.00  0.00    +0.138 A 
ATOM     25  F1  UNL     1       8.530  -0.940   0.854  0.00  0.00    -0.204 F 
ATOM     26  C5  UNL     1       6.507  -0.105  -0.101  0.00  0.00    +0.055 A 
ATOM     27 BR1  UNL     1       7.418   1.435  -0.772  0.00  0.00    -0.047 Br
ATOM     28  C6  UNL     1       5.138  -0.257  -0.340  0.00  0.00    +0.041 A 
ATOM     29  C7  UNL     1       4.443  -1.376   0.153  0.00  0.00    +0.039 A 
ENDBRANCH  15  29
ENDBRANCH   1  18
BRANCH   1  30
ATOM     30  C10 UNL     1      -0.052   1.231  -1.766  0.00  0.00    -0.024 A 
ATOM     31  C11 UNL     1      -0.002   2.635  -1.668  0.00  0.00    +0.005 A 
ATOM     32  C12 UNL     1       0.177   3.419  -2.811  0.00  0.00    +0.000 A 
ATOM     33  C13 UNL     1       0.310   2.814  -4.063  0.00  0.00    +0.000 A 
ATOM     34  C14 UNL     1       0.267   1.422  -4.174  0.00  0.00    +0.000 A 
ATOM     35  C15 UNL     1       0.088   0.633  -3.034  0.00  0.00    +0.005 A 
ENDBRANCH   1  30
TORSDOF 5
