MODEL 1
REMARK VINA RESULT:    -6.058      0.000      0.000
REMARK INTER + INTRA:          -9.234
REMARK INTER:                  -8.537
REMARK INTRA:                  -0.697
REMARK UNBOUND:                -0.697
REMARK  Name = /home/qwerty/github/datacon2025hack/step_04_hit_selection/docking/ligands/lig_810.pdb
REMARK  10 active torsions:
REMARK  status: ('A' for Active; 'I' for Inactive)
REMARK    1  A    between atoms: C1_1  and  C2_2
REMARK    2  A    between atoms: C2_2  and  C3_3
REMARK    3  A    between atoms: C2_2  and  C4_4
REMARK    4  A    between atoms: C4_4  and  C5_5
REMARK    5  A    between atoms: C5_5  and  C6_6
REMARK    6  A    between atoms: C5_5  and  N1_7
REMARK    7  A    between atoms: C7_8  and  C8_10
REMARK    8  A    between atoms: N2_12  and  C9_13
REMARK    9  A    between atoms: C12_16  and  N3_17
REMARK   10  A    between atoms: C13_18  and  C14_20
REMARK                            x       y       z     vdW  Elec       q    Type
REMARK                         _______ _______ _______ _____ _____    ______ ____
ROOT
ATOM      1  C9  UNL     1      18.187  10.723  36.912  0.00  0.00    +0.034 A 
ATOM      2  C10 UNL     1      18.896  11.144  35.779  0.00  0.00    +0.025 A 
ATOM      3  C11 UNL     1      20.094  10.520  35.417  0.00  0.00    +0.025 A 
ATOM      4  C12 UNL     1      20.589   9.442  36.172  0.00  0.00    +0.034 A 
ATOM      5  C18 UNL     1      19.880   9.022  37.306  0.00  0.00    +0.025 A 
ATOM      6  C19 UNL     1      18.682   9.646  37.666  0.00  0.00    +0.025 A 
ENDROOT
BRANCH   1   9
ATOM      7  C8  UNL     1      15.654  10.890  36.831  0.00  0.00    +0.303 C 
ATOM      8  O2  UNL     1      15.530   9.726  36.365  0.00  0.00    -0.265 OA
ATOM      9  N2  UNL     1      16.946  11.368  37.248  0.00  0.00    -0.278 N 
ATOM     10  H15 UNL     1      16.982  12.177  37.908  0.00  0.00    +0.155 HD
BRANCH   7  12
ATOM     11  N1  UNL     1      13.142  11.191  36.836  0.00  0.00    -0.305 N 
ATOM     12  C7  UNL     1      14.461  11.746  36.980  0.00  0.00    +0.300 C 
ATOM     13  O1  UNL     1      14.605  12.973  37.233  0.00  0.00    -0.265 OA
ATOM     14  H14 UNL     1      13.043  10.157  36.719  0.00  0.00    +0.149 HD
BRANCH  11  15
ATOM     15  C5  UNL     1      11.927  11.992  37.019  0.00  0.00    +0.071 C 
ATOM     16  C6  UNL     1      10.934  11.198  37.873  0.00  0.00    +0.028 C 
BRANCH  15  17
ATOM     17  C4  UNL     1      11.360  12.371  35.626  0.00  0.00    +0.025 C 
BRANCH  17  19
ATOM     18  C1  UNL     1       9.706  14.321  36.013  0.00  0.00    +0.007 C 
ATOM     19  C2  UNL     1      11.021  13.866  35.366  0.00  0.00    -0.015 C 
ATOM     20  C3  UNL     1      11.073  14.247  33.879  0.00  0.00    +0.007 C 
ENDBRANCH  17  19
ENDBRANCH  15  17
ENDBRANCH  11  15
ENDBRANCH   7  12
ENDBRANCH   1   9
BRANCH   4  21
ATOM     21  N3  UNL     1      21.831   8.798  35.836  0.00  0.00    -0.281 N 
ATOM     22  C13 UNL     1      21.952   7.757  34.852  0.00  0.00    +0.251 C 
ATOM     23  O3  UNL     1      20.928   7.134  34.460  0.00  0.00    -0.270 OA
ATOM     24  H18 UNL     1      22.670   9.034  36.411  0.00  0.00    +0.155 HD
BRANCH  22  25
ATOM     25  C14 UNL     1      23.273   7.375  34.321  0.00  0.00    +0.075 A 
ATOM     26  C15 UNL     1      24.024   6.267  34.658  0.00  0.00    +0.054 A 
ATOM     27  C16 UNL     1      25.179   6.360  33.909  0.00  0.00    +0.195 A 
ATOM     28  O4  UNL     1      25.143   7.445  33.168  0.00  0.00    -0.470 OA
ATOM     29  C17 UNL     1      24.015   8.077  33.392  0.00  0.00    +0.207 A 
ENDBRANCH  22  25
ENDBRANCH   4  21
TORSDOF 7
ENDMDL
MODEL 2
REMARK VINA RESULT:    -5.988     16.500     17.545
REMARK INTER + INTRA:          -9.136
REMARK INTER:                  -8.322
REMARK INTRA:                  -0.814
REMARK UNBOUND:                -0.697
REMARK  Name = /home/qwerty/github/datacon2025hack/step_04_hit_selection/docking/ligands/lig_810.pdb
REMARK  10 active torsions:
REMARK  status: ('A' for Active; 'I' for Inactive)
REMARK    1  A    between atoms: C1_1  and  C2_2
REMARK    2  A    between atoms: C2_2  and  C3_3
REMARK    3  A    between atoms: C2_2  and  C4_4
REMARK    4  A    between atoms: C4_4  and  C5_5
REMARK    5  A    between atoms: C5_5  and  C6_6
REMARK    6  A    between atoms: C5_5  and  N1_7
REMARK    7  A    between atoms: C7_8  and  C8_10
REMARK    8  A    between atoms: N2_12  and  C9_13
REMARK    9  A    between atoms: C12_16  and  N3_17
REMARK   10  A    between atoms: C13_18  and  C14_20
REMARK                            x       y       z     vdW  Elec       q    Type
REMARK                         _______ _______ _______ _____ _____    ______ ____
ROOT
ATOM      1  C9  UNL     1      17.592   9.473  19.166  0.00  0.00    +0.034 A 
ATOM      2  C10 UNL     1      16.860  10.666  19.240  0.00  0.00    +0.025 A 
ATOM      3  C11 UNL     1      17.516  11.901  19.282  0.00  0.00    +0.025 A 
ATOM      4  C12 UNL     1      18.919  11.962  19.222  0.00  0.00    +0.034 A 
ATOM      5  C18 UNL     1      19.650  10.768  19.148  0.00  0.00    +0.025 A 
ATOM      6  C19 UNL     1      18.994   9.534  19.105  0.00  0.00    +0.025 A 
ENDROOT
BRANCH   1   9
ATOM      7  C8  UNL     1      16.830   7.275  20.184  0.00  0.00    +0.303 C 
ATOM      8  O2  UNL     1      17.172   7.622  21.346  0.00  0.00    -0.265 OA
ATOM      9  N2  UNL     1      16.891   8.219  19.100  0.00  0.00    -0.278 N 
ATOM     10  H15 UNL     1      16.319   8.026  18.246  0.00  0.00    +0.155 HD
BRANCH   7  12
ATOM     11  N1  UNL     1      14.926   5.614  20.053  0.00  0.00    -0.305 N 
ATOM     12  C7  UNL     1      16.330   5.906  19.951  0.00  0.00    +0.300 C 
ATOM     13  O1  UNL     1      17.146   4.988  19.664  0.00  0.00    -0.265 OA
ATOM     14  H14 UNL     1      14.258   6.405  20.200  0.00  0.00    +0.149 HD
BRANCH  11  15
ATOM     15  C5  UNL     1      14.377   4.279  19.788  0.00  0.00    +0.071 C 
ATOM     16  C6  UNL     1      13.028   4.430  19.079  0.00  0.00    +0.028 C 
BRANCH  15  17
ATOM     17  C4  UNL     1      14.277   3.501  21.126  0.00  0.00    +0.025 C 
BRANCH  17  19
ATOM     18  C1  UNL     1      15.463   1.573  19.877  0.00  0.00    +0.007 C 
ATOM     19  C2  UNL     1      14.668   1.997  21.118  0.00  0.00    -0.015 C 
ATOM     20  C3  UNL     1      13.474   1.061  21.363  0.00  0.00    +0.007 C 
ENDBRANCH  17  19
ENDBRANCH  15  17
ENDBRANCH  11  15
ENDBRANCH   7  12
ENDBRANCH   1   9
BRANCH   4  21
ATOM     21  N3  UNL     1      19.620  13.216  19.288  0.00  0.00    -0.281 N 
ATOM     22  C13 UNL     1      20.170  13.764  20.498  0.00  0.00    +0.251 C 
ATOM     23  O3  UNL     1      19.790  13.328  21.619  0.00  0.00    -0.270 OA
ATOM     24  H18 UNL     1      19.643  13.805  18.425  0.00  0.00    +0.155 HD
BRANCH  22  25
ATOM     25  C14 UNL     1      21.147  14.866  20.448  0.00  0.00    +0.075 A 
ATOM     26  C15 UNL     1      21.766  15.390  19.330  0.00  0.00    +0.054 A 
ATOM     27  C16 UNL     1      22.598  16.385  19.799  0.00  0.00    +0.195 A 
ATOM     28  O4  UNL     1      22.502  16.467  21.107  0.00  0.00    -0.470 OA
ATOM     29  C17 UNL     1      21.642  15.569  21.529  0.00  0.00    +0.207 A 
ENDBRANCH  22  25
ENDBRANCH   4  21
TORSDOF 7
ENDMDL
MODEL 3
REMARK VINA RESULT:    -5.895      1.986     10.469
REMARK INTER + INTRA:          -9.004
REMARK INTER:                  -8.179
REMARK INTRA:                  -0.825
REMARK UNBOUND:                -0.697
REMARK  Name = /home/qwerty/github/datacon2025hack/step_04_hit_selection/docking/ligands/lig_810.pdb
REMARK  10 active torsions:
REMARK  status: ('A' for Active; 'I' for Inactive)
REMARK    1  A    between atoms: C1_1  and  C2_2
REMARK    2  A    between atoms: C2_2  and  C3_3
REMARK    3  A    between atoms: C2_2  and  C4_4
REMARK    4  A    between atoms: C4_4  and  C5_5
REMARK    5  A    between atoms: C5_5  and  C6_6
REMARK    6  A    between atoms: C5_5  and  N1_7
REMARK    7  A    between atoms: C7_8  and  C8_10
REMARK    8  A    between atoms: N2_12  and  C9_13
REMARK    9  A    between atoms: C12_16  and  N3_17
REMARK   10  A    between atoms: C13_18  and  C14_20
REMARK                            x       y       z     vdW  Elec       q    Type
REMARK                         _______ _______ _______ _____ _____    ______ ____
ROOT
ATOM      1  C9  UNL     1      19.005   8.558  36.465  0.00  0.00    +0.034 A 
ATOM      2  C10 UNL     1      18.630   8.951  37.757  0.00  0.00    +0.025 A 
ATOM      3  C11 UNL     1      17.350   9.458  38.003  0.00  0.00    +0.025 A 
ATOM      4  C12 UNL     1      16.411   9.551  36.961  0.00  0.00    +0.034 A 
ATOM      5  C18 UNL     1      16.786   9.158  35.669  0.00  0.00    +0.025 A 
ATOM      6  C19 UNL     1      18.066   8.652  35.423  0.00  0.00    +0.025 A 
ENDROOT
BRANCH   1   9
ATOM      7  C8  UNL     1      21.449   8.804  35.821  0.00  0.00    +0.303 C 
ATOM      8  O2  UNL     1      21.401  10.063  35.875  0.00  0.00    -0.265 OA
ATOM      9  N2  UNL     1      20.320   8.020  36.245  0.00  0.00    -0.278 N 
ATOM     10  H15 UNL     1      20.483   7.018  36.495  0.00  0.00    +0.155 HD
BRANCH   7  12
ATOM     11  N1  UNL     1      23.196   8.395  34.037  0.00  0.00    -0.305 N 
ATOM     12  C7  UNL     1      22.683   8.142  35.357  0.00  0.00    +0.300 C 
ATOM     13  O1  UNL     1      23.287   7.346  36.125  0.00  0.00    -0.265 OA
ATOM     14  H14 UNL     1      22.732   9.126  33.450  0.00  0.00    +0.149 HD
BRANCH  11  15
ATOM     15  C5  UNL     1      24.441   7.795  33.547  0.00  0.00    +0.071 C 
ATOM     16  C6  UNL     1      25.172   8.817  32.671  0.00  0.00    +0.028 C 
BRANCH  15  17
ATOM     17  C4  UNL     1      24.104   6.481  32.794  0.00  0.00    +0.025 C 
BRANCH  17  19
ATOM     18  C1  UNL     1      22.089   4.888  32.503  0.00  0.00    +0.007 C 
ATOM     19  C2  UNL     1      22.651   6.297  32.276  0.00  0.00    -0.015 C 
ATOM     20  C3  UNL     1      22.469   6.741  30.816  0.00  0.00    +0.007 C 
ENDBRANCH  17  19
ENDBRANCH  15  17
ENDBRANCH  11  15
ENDBRANCH   7  12
ENDBRANCH   1   9
BRANCH   4  21
ATOM     21  N3  UNL     1      15.096  10.090  37.182  0.00  0.00    -0.281 N 
ATOM     22  C13 UNL     1      14.732  11.453  36.908  0.00  0.00    +0.251 C 
ATOM     23  O3  UNL     1      15.627  12.329  36.760  0.00  0.00    -0.270 OA
ATOM     24  H18 UNL     1      14.396   9.479  37.659  0.00  0.00    +0.155 HD
BRANCH  22  25
ATOM     25  C14 UNL     1      13.316  11.855  36.838  0.00  0.00    +0.075 A 
ATOM     26  C15 UNL     1      12.214  11.113  37.215  0.00  0.00    +0.054 A 
ATOM     27  C16 UNL     1      11.120  11.910  36.945  0.00  0.00    +0.195 A 
ATOM     28  O4  UNL     1      11.518  13.055  36.437  0.00  0.00    -0.470 OA
ATOM     29  C17 UNL     1      12.828  13.055  36.358  0.00  0.00    +0.207 A 
ENDBRANCH  22  25
ENDBRANCH   4  21
TORSDOF 7
ENDMDL
MODEL 4
REMARK VINA RESULT:    -5.854      8.661     10.416
REMARK INTER + INTRA:          -8.947
REMARK INTER:                  -8.135
REMARK INTRA:                  -0.812
REMARK UNBOUND:                -0.697
REMARK  Name = /home/qwerty/github/datacon2025hack/step_04_hit_selection/docking/ligands/lig_810.pdb
REMARK  10 active torsions:
REMARK  status: ('A' for Active; 'I' for Inactive)
REMARK    1  A    between atoms: C1_1  and  C2_2
REMARK    2  A    between atoms: C2_2  and  C3_3
REMARK    3  A    between atoms: C2_2  and  C4_4
REMARK    4  A    between atoms: C4_4  and  C5_5
REMARK    5  A    between atoms: C5_5  and  C6_6
REMARK    6  A    between atoms: C5_5  and  N1_7
REMARK    7  A    between atoms: C7_8  and  C8_10
REMARK    8  A    between atoms: N2_12  and  C9_13
REMARK    9  A    between atoms: C12_16  and  N3_17
REMARK   10  A    between atoms: C13_18  and  C14_20
REMARK                            x       y       z     vdW  Elec       q    Type
REMARK                         _______ _______ _______ _____ _____    ______ ____
ROOT
ATOM      1  C9  UNL     1      22.241  14.205  29.414  0.00  0.00    +0.034 A 
ATOM      2  C10 UNL     1      23.344  13.426  29.040  0.00  0.00    +0.025 A 
ATOM      3  C11 UNL     1      23.940  13.593  27.785  0.00  0.00    +0.025 A 
ATOM      4  C12 UNL     1      23.457  14.566  26.894  0.00  0.00    +0.034 A 
ATOM      5  C18 UNL     1      22.353  15.346  27.269  0.00  0.00    +0.025 A 
ATOM      6  C19 UNL     1      21.758  15.179  28.523  0.00  0.00    +0.025 A 
ENDROOT
BRANCH   1   9
ATOM      7  C8  UNL     1      20.359  13.465  30.950  0.00  0.00    +0.303 C 
ATOM      8  O2  UNL     1      19.761  12.852  30.026  0.00  0.00    -0.265 OA
ATOM      9  N2  UNL     1      21.662  14.028  30.719  0.00  0.00    -0.278 N 
ATOM     10  H15 UNL     1      22.262  14.238  31.549  0.00  0.00    +0.155 HD
BRANCH   7  12
ATOM     11  N1  UNL     1      20.105  12.669  33.338  0.00  0.00    -0.305 N 
ATOM     12  C7  UNL     1      19.729  13.568  32.281  0.00  0.00    +0.300 C 
ATOM     13  O1  UNL     1      18.852  14.451  32.486  0.00  0.00    -0.265 OA
ATOM     14  H14 UNL     1      20.897  12.006  33.176  0.00  0.00    +0.149 HD
BRANCH  11  15
ATOM     15  C5  UNL     1      19.539  12.760  34.688  0.00  0.00    +0.071 C 
ATOM     16  C6  UNL     1      20.666  12.584  35.711  0.00  0.00    +0.028 C 
BRANCH  15  17
ATOM     17  C4  UNL     1      18.414  11.703  34.836  0.00  0.00    +0.025 C 
BRANCH  17  19
ATOM     18  C1  UNL     1      16.807  13.693  35.211  0.00  0.00    +0.007 C 
ATOM     19  C2  UNL     1      17.035  12.184  35.366  0.00  0.00    -0.015 C 
ATOM     20  C3  UNL     1      16.743  11.719  36.801  0.00  0.00    +0.007 C 
ENDBRANCH  17  19
ENDBRANCH  15  17
ENDBRANCH  11  15
ENDBRANCH   7  12
ENDBRANCH   1   9
BRANCH   4  21
ATOM     21  N3  UNL     1      24.036  14.743  25.589  0.00  0.00    -0.281 N 
ATOM     22  C13 UNL     1      23.461  14.219  24.380  0.00  0.00    +0.251 C 
ATOM     23  O3  UNL     1      22.590  13.309  24.437  0.00  0.00    -0.270 OA
ATOM     24  H18 UNL     1      24.976  15.193  25.533  0.00  0.00    +0.155 HD
BRANCH  22  25
ATOM     25  C14 UNL     1      23.908  14.705  23.063  0.00  0.00    +0.075 A 
ATOM     26  C15 UNL     1      24.774  15.749  22.802  0.00  0.00    +0.054 A 
ATOM     27  C16 UNL     1      24.864  15.823  21.428  0.00  0.00    +0.195 A 
ATOM     28  O4  UNL     1      24.109  14.896  20.882  0.00  0.00    -0.470 OA
ATOM     29  C17 UNL     1      23.520  14.209  21.833  0.00  0.00    +0.207 A 
ENDBRANCH  22  25
ENDBRANCH   4  21
TORSDOF 7
ENDMDL
MODEL 5
REMARK VINA RESULT:    -5.758     11.334     14.969
REMARK INTER + INTRA:          -8.811
REMARK INTER:                  -8.033
REMARK INTRA:                  -0.779
REMARK UNBOUND:                -0.697
REMARK  Name = /home/qwerty/github/datacon2025hack/step_04_hit_selection/docking/ligands/lig_810.pdb
REMARK  10 active torsions:
REMARK  status: ('A' for Active; 'I' for Inactive)
REMARK    1  A    between atoms: C1_1  and  C2_2
REMARK    2  A    between atoms: C2_2  and  C3_3
REMARK    3  A    between atoms: C2_2  and  C4_4
REMARK    4  A    between atoms: C4_4  and  C5_5
REMARK    5  A    between atoms: C5_5  and  C6_6
REMARK    6  A    between atoms: C5_5  and  N1_7
REMARK    7  A    between atoms: C7_8  and  C8_10
REMARK    8  A    between atoms: N2_12  and  C9_13
REMARK    9  A    between atoms: C12_16  and  N3_17
REMARK   10  A    between atoms: C13_18  and  C14_20
REMARK                            x       y       z     vdW  Elec       q    Type
REMARK                         _______ _______ _______ _____ _____    ______ ____
ROOT
ATOM      1  C9  UNL     1      21.964   4.282  24.923  0.00  0.00    +0.034 A 
ATOM      2  C10 UNL     1      22.082   4.934  26.159  0.00  0.00    +0.025 A 
ATOM      3  C11 UNL     1      21.667   4.304  27.337  0.00  0.00    +0.025 A 
ATOM      4  C12 UNL     1      21.152   2.997  27.300  0.00  0.00    +0.034 A 
ATOM      5  C18 UNL     1      21.034   2.346  26.064  0.00  0.00    +0.025 A 
ATOM      6  C19 UNL     1      21.449   2.975  24.887  0.00  0.00    +0.025 A 
ENDROOT
BRANCH   1   9
ATOM      7  C8  UNL     1      21.544   5.495  22.733  0.00  0.00    +0.303 C 
ATOM      8  O2  UNL     1      20.320   5.659  22.985  0.00  0.00    -0.265 OA
ATOM      9  N2  UNL     1      22.420   4.943  23.730  0.00  0.00    -0.278 N 
ATOM     10  H15 UNL     1      23.447   5.111  23.630  0.00  0.00    +0.155 HD
BRANCH   7  12
ATOM     11  N1  UNL     1      23.284   6.685  21.334  0.00  0.00    -0.305 N 
ATOM     12  C7  UNL     1      22.077   5.909  21.420  0.00  0.00    +0.300 C 
ATOM     13  O1  UNL     1      21.463   5.580  20.369  0.00  0.00    -0.265 OA
ATOM     14  H14 UNL     1      23.826   6.869  22.209  0.00  0.00    +0.149 HD
BRANCH  11  15
ATOM     15  C5  UNL     1      23.876   7.082  20.052  0.00  0.00    +0.071 C 
ATOM     16  C6  UNL     1      25.399   7.137  20.205  0.00  0.00    +0.028 C 
BRANCH  15  17
ATOM     17  C4  UNL     1      23.261   8.436  19.611  0.00  0.00    +0.025 C 
BRANCH  17  19
ATOM     18  C1  UNL     1      21.779  10.135  20.877  0.00  0.00    +0.007 C 
ATOM     19  C2  UNL     1      23.192   9.576  20.666  0.00  0.00    -0.015 C 
ATOM     20  C3  UNL     1      24.204  10.702  20.405  0.00  0.00    +0.007 C 
ENDBRANCH  17  19
ENDBRANCH  15  17
ENDBRANCH  11  15
ENDBRANCH   7  12
ENDBRANCH   1   9
BRANCH   4  21
ATOM     21  N3  UNL     1      20.696   2.336  28.493  0.00  0.00    -0.281 N 
ATOM     22  C13 UNL     1      21.573   1.753  29.471  0.00  0.00    +0.251 C 
ATOM     23  O3  UNL     1      22.776   1.510  29.177  0.00  0.00    -0.270 OA
ATOM     24  H18 UNL     1      19.668   2.187  28.602  0.00  0.00    +0.155 HD
BRANCH  22  25
ATOM     25  C14 UNL     1      21.074   1.392  30.809  0.00  0.00    +0.075 A 
ATOM     26  C15 UNL     1      20.325   0.284  31.156  0.00  0.00    +0.054 A 
ATOM     27  C16 UNL     1      20.095   0.401  32.511  0.00  0.00    +0.195 A 
ATOM     28  O4  UNL     1      20.658   1.497  32.966  0.00  0.00    -0.470 OA
ATOM     29  C17 UNL     1      21.252   2.116  31.972  0.00  0.00    +0.207 A 
ENDBRANCH  22  25
ENDBRANCH   4  21
TORSDOF 7
ENDMDL
MODEL 6
REMARK VINA RESULT:    -5.618     10.109     11.430
REMARK INTER + INTRA:          -8.613
REMARK INTER:                  -7.841
REMARK INTRA:                  -0.773
REMARK UNBOUND:                -0.697
REMARK  Name = /home/qwerty/github/datacon2025hack/step_04_hit_selection/docking/ligands/lig_810.pdb
REMARK  10 active torsions:
REMARK  status: ('A' for Active; 'I' for Inactive)
REMARK    1  A    between atoms: C1_1  and  C2_2
REMARK    2  A    between atoms: C2_2  and  C3_3
REMARK    3  A    between atoms: C2_2  and  C4_4
REMARK    4  A    between atoms: C4_4  and  C5_5
REMARK    5  A    between atoms: C5_5  and  C6_6
REMARK    6  A    between atoms: C5_5  and  N1_7
REMARK    7  A    between atoms: C7_8  and  C8_10
REMARK    8  A    between atoms: N2_12  and  C9_13
REMARK    9  A    between atoms: C12_16  and  N3_17
REMARK   10  A    between atoms: C13_18  and  C14_20
REMARK                            x       y       z     vdW  Elec       q    Type
REMARK                         _______ _______ _______ _____ _____    ______ ____
ROOT
ATOM      1  C9  UNL     1      19.001   0.818  32.774  0.00  0.00    +0.034 A 
ATOM      2  C10 UNL     1      18.278   0.880  31.575  0.00  0.00    +0.025 A 
ATOM      3  C11 UNL     1      18.863   1.408  30.419  0.00  0.00    +0.025 A 
ATOM      4  C12 UNL     1      20.194   1.858  30.439  0.00  0.00    +0.034 A 
ATOM      5  C18 UNL     1      20.917   1.795  31.639  0.00  0.00    +0.025 A 
ATOM      6  C19 UNL     1      20.333   1.267  32.793  0.00  0.00    +0.025 A 
ENDROOT
BRANCH   1   9
ATOM      7  C8  UNL     1      17.646   1.011  34.913  0.00  0.00    +0.303 C 
ATOM      8  O2  UNL     1      17.280   2.188  34.650  0.00  0.00    -0.265 OA
ATOM      9  N2  UNL     1      18.383   0.249  33.942  0.00  0.00    -0.278 N 
ATOM     10  H15 UNL     1      18.395  -0.792  34.039  0.00  0.00    +0.155 HD
BRANCH   7  12
ATOM     11  N1  UNL     1      16.505  -0.800  36.262  0.00  0.00    -0.305 N 
ATOM     12  C7  UNL     1      17.281   0.410  36.210  0.00  0.00    +0.300 C 
ATOM     13  O1  UNL     1      17.652   0.966  37.279  0.00  0.00    -0.265 OA
ATOM     14  H14 UNL     1      16.286  -1.294  35.367  0.00  0.00    +0.149 HD
BRANCH  11  15
ATOM     15  C5  UNL     1      16.155  -1.458  37.525  0.00  0.00    +0.071 C 
ATOM     16  C6  UNL     1      16.052  -2.968  37.285  0.00  0.00    +0.028 C 
BRANCH  15  17
ATOM     17  C4  UNL     1      14.841  -0.840  38.069  0.00  0.00    +0.025 C 
BRANCH  17  19
ATOM     18  C1  UNL     1      13.078   0.584  36.822  0.00  0.00    +0.007 C 
ATOM     19  C2  UNL     1      13.605  -0.825  37.126  0.00  0.00    -0.015 C 
ATOM     20  C3  UNL     1      12.475  -1.753  37.597  0.00  0.00    +0.007 C 
ENDBRANCH  17  19
ENDBRANCH  15  17
ENDBRANCH  11  15
ENDBRANCH   7  12
ENDBRANCH   1   9
BRANCH   4  21
ATOM     21  N3  UNL     1      20.812   2.427  29.271  0.00  0.00    -0.281 N 
ATOM     22  C13 UNL     1      21.369   1.647  28.200  0.00  0.00    +0.251 C 
ATOM     23  O3  UNL     1      21.630   0.426  28.375  0.00  0.00    -0.270 OA
ATOM     24  H18 UNL     1      20.949   3.462  29.251  0.00  0.00    +0.155 HD
BRANCH  22  25
ATOM     25  C14 UNL     1      21.681   2.269  26.901  0.00  0.00    +0.075 A 
ATOM     26  C15 UNL     1      22.699   3.159  26.619  0.00  0.00    +0.054 A 
ATOM     27  C16 UNL     1      22.568   3.461  25.279  0.00  0.00    +0.195 A 
ATOM     28  O4  UNL     1      21.546   2.808  24.774  0.00  0.00    -0.470 OA
ATOM     29  C17 UNL     1      20.990   2.086  25.718  0.00  0.00    +0.207 A 
ENDBRANCH  22  25
ENDBRANCH   4  21
TORSDOF 7
ENDMDL
MODEL 7
REMARK VINA RESULT:    -5.574      7.457     12.077
REMARK INTER + INTRA:          -8.553
REMARK INTER:                  -7.810
REMARK INTRA:                  -0.742
REMARK UNBOUND:                -0.697
REMARK  Name = /home/qwerty/github/datacon2025hack/step_04_hit_selection/docking/ligands/lig_810.pdb
REMARK  10 active torsions:
REMARK  status: ('A' for Active; 'I' for Inactive)
REMARK    1  A    between atoms: C1_1  and  C2_2
REMARK    2  A    between atoms: C2_2  and  C3_3
REMARK    3  A    between atoms: C2_2  and  C4_4
REMARK    4  A    between atoms: C4_4  and  C5_5
REMARK    5  A    between atoms: C5_5  and  C6_6
REMARK    6  A    between atoms: C5_5  and  N1_7
REMARK    7  A    between atoms: C7_8  and  C8_10
REMARK    8  A    between atoms: N2_12  and  C9_13
REMARK    9  A    between atoms: C12_16  and  N3_17
REMARK   10  A    between atoms: C13_18  and  C14_20
REMARK                            x       y       z     vdW  Elec       q    Type
REMARK                         _______ _______ _______ _____ _____    ______ ____
ROOT
ATOM      1  C9  UNL     1      12.956   4.978  38.578  0.00  0.00    +0.034 A 
ATOM      2  C10 UNL     1      13.020   3.581  38.658  0.00  0.00    +0.025 A 
ATOM      3  C11 UNL     1      11.857   2.809  38.575  0.00  0.00    +0.025 A 
ATOM      4  C12 UNL     1      10.609   3.426  38.381  0.00  0.00    +0.034 A 
ATOM      5  C18 UNL     1      10.545   4.824  38.301  0.00  0.00    +0.025 A 
ATOM      6  C19 UNL     1      11.708   5.595  38.384  0.00  0.00    +0.025 A 
ENDROOT
BRANCH   1   9
ATOM      7  C8  UNL     1      15.072   5.920  37.537  0.00  0.00    +0.303 C 
ATOM      8  O2  UNL     1      14.706   5.621  36.369  0.00  0.00    -0.265 OA
ATOM      9  N2  UNL     1      14.171   5.746  38.644  0.00  0.00    -0.278 N 
ATOM     10  H15 UNL     1      14.360   6.281  39.522  0.00  0.00    +0.155 HD
BRANCH   7  12
ATOM     11  N1  UNL     1      16.668   7.884  37.537  0.00  0.00    -0.305 N 
ATOM     12  C7  UNL     1      16.418   6.484  37.755  0.00  0.00    +0.300 C 
ATOM     13  O1  UNL     1      17.354   5.729  38.133  0.00  0.00    -0.265 OA
ATOM     14  H14 UNL     1      15.860   8.509  37.313  0.00  0.00    +0.149 HD
BRANCH  11  15
ATOM     15  C5  UNL     1      17.977   8.498  37.781  0.00  0.00    +0.071 C 
ATOM     16  C6  UNL     1      17.766   9.925  38.297  0.00  0.00    +0.028 C 
BRANCH  15  17
ATOM     17  C4  UNL     1      18.812   8.443  36.476  0.00  0.00    +0.025 C 
BRANCH  17  19
ATOM     18  C1  UNL     1      21.243   8.901  35.724  0.00  0.00    +0.007 C 
ATOM     19  C2  UNL     1      20.310   8.046  36.592  0.00  0.00    -0.015 C 
ATOM     20  C3  UNL     1      20.557   6.546  36.367  0.00  0.00    +0.007 C 
ENDBRANCH  17  19
ENDBRANCH  15  17
ENDBRANCH  11  15
ENDBRANCH   7  12
ENDBRANCH   1   9
BRANCH   4  21
ATOM     21  N3  UNL     1       9.394   2.659  38.315  0.00  0.00    -0.281 N 
ATOM     22  C13 UNL     1       8.915   2.019  37.120  0.00  0.00    +0.251 C 
ATOM     23  O3  UNL     1       9.368   2.361  35.994  0.00  0.00    -0.270 OA
ATOM     24  H18 UNL     1       8.779   2.651  39.159  0.00  0.00    +0.155 HD
BRANCH  22  25
ATOM     25  C14 UNL     1       7.863   0.989  37.189  0.00  0.00    +0.075 A 
ATOM     26  C15 UNL     1       7.359   0.377  38.319  0.00  0.00    +0.054 A 
ATOM     27  C16 UNL     1       6.411  -0.517  37.867  0.00  0.00    +0.195 A 
ATOM     28  O4  UNL     1       6.337  -0.462  36.556  0.00  0.00    -0.470 OA
ATOM     29  C17 UNL     1       7.195   0.429  36.117  0.00  0.00    +0.207 A 
ENDBRANCH  22  25
ENDBRANCH   4  21
TORSDOF 7
ENDMDL
MODEL 8
REMARK VINA RESULT:    -5.277     15.604     17.046
REMARK INTER + INTRA:          -8.133
REMARK INTER:                  -7.287
REMARK INTRA:                  -0.846
REMARK UNBOUND:                -0.697
REMARK  Name = /home/qwerty/github/datacon2025hack/step_04_hit_selection/docking/ligands/lig_810.pdb
REMARK  10 active torsions:
REMARK  status: ('A' for Active; 'I' for Inactive)
REMARK    1  A    between atoms: C1_1  and  C2_2
REMARK    2  A    between atoms: C2_2  and  C3_3
REMARK    3  A    between atoms: C2_2  and  C4_4
REMARK    4  A    between atoms: C4_4  and  C5_5
REMARK    5  A    between atoms: C5_5  and  C6_6
REMARK    6  A    between atoms: C5_5  and  N1_7
REMARK    7  A    between atoms: C7_8  and  C8_10
REMARK    8  A    between atoms: N2_12  and  C9_13
REMARK    9  A    between atoms: C12_16  and  N3_17
REMARK   10  A    between atoms: C13_18  and  C14_20
REMARK                            x       y       z     vdW  Elec       q    Type
REMARK                         _______ _______ _______ _____ _____    ______ ____
ROOT
ATOM      1  C9  UNL     1       8.511  -0.839  29.006  0.00  0.00    +0.034 A 
ATOM      2  C10 UNL     1       7.372  -0.544  29.767  0.00  0.00    +0.025 A 
ATOM      3  C11 UNL     1       7.272  -0.976  31.094  0.00  0.00    +0.025 A 
ATOM      4  C12 UNL     1       8.327  -1.688  31.690  0.00  0.00    +0.034 A 
ATOM      5  C18 UNL     1       9.466  -1.983  30.928  0.00  0.00    +0.025 A 
ATOM      6  C19 UNL     1       9.566  -1.551  29.603  0.00  0.00    +0.025 A 
ENDROOT
BRANCH   1   9
ATOM      7  C8  UNL     1       9.002   0.971  27.293  0.00  0.00    +0.303 C 
ATOM      8  O2  UNL     1       9.556   1.715  28.145  0.00  0.00    -0.265 OA
ATOM      9  N2  UNL     1       8.598  -0.362  27.652  0.00  0.00    -0.278 N 
ATOM     10  H15 UNL     1       8.446  -1.054  26.883  0.00  0.00    +0.155 HD
BRANCH   7  12
ATOM     11  N1  UNL     1       9.686   1.049  24.858  0.00  0.00    -0.305 N 
ATOM     12  C7  UNL     1       8.804   1.463  25.916  0.00  0.00    +0.300 C 
ATOM     13  O1  UNL     1       7.855   2.256  25.670  0.00  0.00    -0.265 OA
ATOM     14  H14 UNL     1      10.409   0.321  25.064  0.00  0.00    +0.149 HD
BRANCH  11  15
ATOM     15  C5  UNL     1       9.504   1.476  23.467  0.00  0.00    +0.071 C 
ATOM     16  C6  UNL     1       9.830   0.301  22.541  0.00  0.00    +0.028 C 
BRANCH  15  17
ATOM     17  C4  UNL     1      10.391   2.721  23.203  0.00  0.00    +0.025 C 
BRANCH  17  19
ATOM     18  C1  UNL     1       8.205   3.960  22.592  0.00  0.00    +0.007 C 
ATOM     19  C2  UNL     1       9.677   4.087  23.003  0.00  0.00    -0.015 C 
ATOM     20  C3  UNL     1      10.439   5.034  22.062  0.00  0.00    +0.007 C 
ENDBRANCH  17  19
ENDBRANCH  15  17
ENDBRANCH  11  15
ENDBRANCH   7  12
ENDBRANCH   1   9
BRANCH   4  21
ATOM     21  N3  UNL     1       8.240  -2.164  33.044  0.00  0.00    -0.281 N 
ATOM     22  C13 UNL     1       8.489  -1.345  34.199  0.00  0.00    +0.251 C 
ATOM     23  O3  UNL     1       9.106  -0.251  34.078  0.00  0.00    -0.270 OA
ATOM     24  H18 UNL     1       8.084  -3.187  33.190  0.00  0.00    +0.155 HD
BRANCH  22  25
ATOM     25  C14 UNL     1       8.068  -1.787  35.540  0.00  0.00    +0.075 A 
ATOM     26  C15 UNL     1       7.926  -3.085  35.990  0.00  0.00    +0.054 A 
ATOM     27  C16 UNL     1       7.499  -2.980  37.298  0.00  0.00    +0.195 A 
ATOM     28  O4  UNL     1       7.384  -1.713  37.628  0.00  0.00    -0.470 OA
ATOM     29  C17 UNL     1       7.715  -0.971  36.598  0.00  0.00    +0.207 A 
ENDBRANCH  22  25
ENDBRANCH   4  21
TORSDOF 7
ENDMDL
MODEL 9
REMARK VINA RESULT:    -5.271      9.797     13.762
REMARK INTER + INTRA:          -8.125
REMARK INTER:                  -7.321
REMARK INTRA:                  -0.804
REMARK UNBOUND:                -0.697
REMARK  Name = /home/qwerty/github/datacon2025hack/step_04_hit_selection/docking/ligands/lig_810.pdb
REMARK  10 active torsions:
REMARK  status: ('A' for Active; 'I' for Inactive)
REMARK    1  A    between atoms: C1_1  and  C2_2
REMARK    2  A    between atoms: C2_2  and  C3_3
REMARK    3  A    between atoms: C2_2  and  C4_4
REMARK    4  A    between atoms: C4_4  and  C5_5
REMARK    5  A    between atoms: C5_5  and  C6_6
REMARK    6  A    between atoms: C5_5  and  N1_7
REMARK    7  A    between atoms: C7_8  and  C8_10
REMARK    8  A    between atoms: N2_12  and  C9_13
REMARK    9  A    between atoms: C12_16  and  N3_17
REMARK   10  A    between atoms: C13_18  and  C14_20
REMARK                            x       y       z     vdW  Elec       q    Type
REMARK                         _______ _______ _______ _____ _____    ______ ____
ROOT
ATOM      1  C9  UNL     1       9.390  10.529  27.670  0.00  0.00    +0.034 A 
ATOM      2  C10 UNL     1      10.478   9.742  28.071  0.00  0.00    +0.025 A 
ATOM      3  C11 UNL     1      10.861   9.688  29.415  0.00  0.00    +0.025 A 
ATOM      4  C12 UNL     1      10.140  10.403  30.387  0.00  0.00    +0.034 A 
ATOM      5  C18 UNL     1       9.051  11.191  29.986  0.00  0.00    +0.025 A 
ATOM      6  C19 UNL     1       8.669  11.244  28.643  0.00  0.00    +0.025 A 
ENDROOT
BRANCH   1   9
ATOM      7  C8  UNL     1       8.051   9.641  25.704  0.00  0.00    +0.303 C 
ATOM      8  O2  UNL     1       7.304   8.948  26.445  0.00  0.00    -0.265 OA
ATOM      9  N2  UNL     1       9.005  10.548  26.285  0.00  0.00    -0.278 N 
ATOM     10  H15 UNL     1       9.373  11.324  25.689  0.00  0.00    +0.155 HD
BRANCH   7  12
ATOM     11  N1  UNL     1       8.589   8.506  23.508  0.00  0.00    -0.305 N 
ATOM     12  C7  UNL     1       7.913   9.544  24.238  0.00  0.00    +0.300 C 
ATOM     13  O1  UNL     1       7.199  10.384  23.625  0.00  0.00    -0.265 OA
ATOM     14  H14 UNL     1       9.101   7.768  24.043  0.00  0.00    +0.149 HD
BRANCH  11  15
ATOM     15  C5  UNL     1       8.449   8.343  22.057  0.00  0.00    +0.071 C 
ATOM     16  C6  UNL     1       7.860   6.959  21.769  0.00  0.00    +0.028 C 
BRANCH  15  17
ATOM     17  C4  UNL     1       9.830   8.566  21.389  0.00  0.00    +0.025 C 
BRANCH  17  19
ATOM     18  C1  UNL     1       8.899  10.870  20.673  0.00  0.00    +0.007 C 
ATOM     19  C2  UNL     1      10.140   9.980  20.824  0.00  0.00    -0.015 C 
ATOM     20  C3  UNL     1      10.963   9.946  19.527  0.00  0.00    +0.007 C 
ENDBRANCH  17  19
ENDBRANCH  15  17
ENDBRANCH  11  15
ENDBRANCH   7  12
ENDBRANCH   1   9
BRANCH   4  21
ATOM     21  N3  UNL     1      10.525  10.384  31.773  0.00  0.00    -0.281 N 
ATOM     22  C13 UNL     1      11.261  11.440  32.413  0.00  0.00    +0.251 C 
ATOM     23  O3  UNL     1      11.881  12.291  31.719  0.00  0.00    -0.270 OA
ATOM     24  H18 UNL     1      10.345   9.510  32.315  0.00  0.00    +0.155 HD
BRANCH  22  25
ATOM     25  C14 UNL     1      11.336  11.520  33.883  0.00  0.00    +0.075 A 
ATOM     26  C15 UNL     1      11.394  10.471  34.779  0.00  0.00    +0.054 A 
ATOM     27  C16 UNL     1      11.437  11.052  36.029  0.00  0.00    +0.195 A 
ATOM     28  O4  UNL     1      11.405  12.361  35.913  0.00  0.00    -0.470 OA
ATOM     29  C17 UNL     1      11.343  12.675  34.640  0.00  0.00    +0.207 A 
ENDBRANCH  22  25
ENDBRANCH   4  21
TORSDOF 7
ENDMDL
