REMARK  Name = /home/qwerty/github/datacon2025hack/step_04_hit_selection/docking/ligands/lig_321.pdb
REMARK  8 active torsions:
REMARK  status: ('A' for Active; 'I' for Inactive)
REMARK    1  A    between atoms: C1_1  and  C2_2
REMARK    2  A    between atoms: C2_2  and  C3_3
REMARK    3  A    between atoms: C2_2  and  C4_4
REMARK    4  A    between atoms: C7_7  and  C8_8
REMARK    5  A    between atoms: N1_10  and  C9_11
REMARK    6  A    between atoms: C9_11  and  C10_12
REMARK    7  A    between atoms: C10_12  and  O2_13
REMARK    8  A    between atoms: C10_12  and  C11_14
REMARK                            x       y       z     vdW  Elec       q    Type
REMARK                         _______ _______ _______ _____ _____    ______ ____
ROOT
ATOM      1  C8  UNL     1       0.513   1.196  -1.920  0.00  0.00    +0.244 C 
ATOM      2  O1  UNL     1       0.548   2.424  -2.208  0.00  0.00    -0.270 OA
ATOM      3  N1  UNL     1      -0.563   0.380  -2.415  0.00  0.00    -0.308 N 
ATOM      4  H10 UNL     1      -0.634  -0.621  -2.130  0.00  0.00    +0.149 HD
ENDROOT
BRANCH   1   8
ATOM      5  C4  UNL     1       3.609  -0.432   0.598  0.00  0.00    -0.045 A 
ATOM      6  C5  UNL     1       2.932  -1.256  -0.316  0.00  0.00    +0.004 A 
ATOM      7  C6  UNL     1       1.928  -0.734  -1.136  0.00  0.00    +0.013 A 
ATOM      8  C7  UNL     1       1.575   0.624  -1.057  0.00  0.00    +0.037 A 
ATOM      9  C19 UNL     1       2.263   1.452  -0.153  0.00  0.00    +0.013 A 
ATOM     10  C20 UNL     1       3.266   0.930   0.668  0.00  0.00    +0.004 A 
BRANCH   5  12
ATOM     11  C1  UNL     1       6.053  -0.362   1.193  0.00  0.00    +0.012 C 
ATOM     12  C2  UNL     1       4.696  -1.013   1.484  0.00  0.00    +0.013 C 
ATOM     13  C3  UNL     1       4.328  -0.884   2.967  0.00  0.00    +0.012 C 
ENDBRANCH   5  12
ENDBRANCH   1   8
BRANCH   3  14
ATOM     14  C9  UNL     1      -1.624   0.914  -3.268  0.00  0.00    +0.143 C 
BRANCH  14  15
ATOM     15  C10 UNL     1      -2.620   1.758  -2.451  0.00  0.00    +0.197 C 
BRANCH  15  16
ATOM     16  C11 UNL     1      -3.226   0.963  -1.326  0.00  0.00    +0.136 A 
ATOM     17  C12 UNL     1      -4.057  -0.149  -1.463  0.00  0.00    +0.056 A 
ATOM     18  C13 UNL     1      -4.324  -0.534  -0.171  0.00  0.00    +0.020 A 
ATOM     19  C14 UNL     1      -5.093  -1.583   0.329  0.00  0.00    +0.011 A 
ATOM     20  C15 UNL     1      -5.173  -1.726   1.727  0.00  0.00    +0.001 A 
ATOM     21  C16 UNL     1      -4.491  -0.828   2.579  0.00  0.00    +0.004 A 
ATOM     22  C17 UNL     1      -3.722   0.221   2.041  0.00  0.00    +0.047 A 
ATOM     23  C18 UNL     1      -3.662   0.336   0.654  0.00  0.00    +0.135 A 
ATOM     24  O3  UNL     1      -3.008   1.227  -0.049  0.00  0.00    -0.457 OA
ENDBRANCH  15  16
BRANCH  15  25
ATOM     25  O2  UNL     1      -3.625   2.289  -3.278  0.00  0.00    -0.383 OA
ATOM     26  H14 UNL     1      -4.083   1.532  -3.728  0.00  0.00    +0.210 HD
ENDBRANCH  15  25
ENDBRANCH  14  15
ENDBRANCH   3  14
TORSDOF 6
