MODEL 1
REMARK VINA RESULT:    -6.267      0.000      0.000
REMARK INTER + INTRA:          -7.950
REMARK INTER:                  -7.550
REMARK INTRA:                  -0.400
REMARK UNBOUND:                -0.400
REMARK  Name = /home/qwerty/github/datacon2025hack/step_04_hit_selection/docking/ligands/lig_21.pdb
REMARK  4 active torsions:
REMARK  status: ('A' for Active; 'I' for Inactive)
REMARK    1  A    between atoms: C1_2  and  C12_19
REMARK    2  A    between atoms: N1_3  and  C2_4
REMARK    3  A    between atoms: C6_9  and  C7_11
REMARK    4  A    between atoms: C10_14  and  O3_15
REMARK                            x       y       z     vdW  Elec       q    Type
REMARK                         _______ _______ _______ _____ _____    ______ ____
ROOT
ATOM      1  C2  UNL     1      21.856   4.388  31.704  0.00  0.00    +0.091 C 
ATOM      2  C3  UNL     1      21.798   5.517  30.654  0.00  0.00    +0.025 C 
ATOM      3  C4  UNL     1      21.387   6.889  31.238  0.00  0.00    +0.021 C 
ATOM      4  C5  UNL     1      20.955   6.821  32.707  0.00  0.00    +0.108 C 
ATOM      5  N2  UNL     1      21.962   6.100  33.500  0.00  0.00    -0.294 N 
ATOM      6  C6  UNL     1      22.394   6.600  34.781  0.00  0.00    +0.267 C 
ATOM      7  O2  UNL     1      23.605   6.472  35.114  0.00  0.00    -0.268 OA
ATOM      8  C11 UNL     1      22.570   4.868  32.978  0.00  0.00    +0.130 C 
ENDROOT
BRANCH   6   9
ATOM      9  C7  UNL     1      21.444   7.231  35.724  0.00  0.00    +0.148 A 
ATOM     10  C8  UNL     1      20.548   6.457  36.474  0.00  0.00    +0.040 A 
ATOM     11  C9  UNL     1      19.654   7.090  37.335  0.00  0.00    +0.071 A 
ATOM     12  C10 UNL     1      19.664   8.483  37.424  0.00  0.00    +0.232 A 
ATOM     13  N3  UNL     1      20.545   9.192  36.671  0.00  0.00    -0.111 NA
ATOM     14  N4  UNL     1      21.403   8.586  35.849  0.00  0.00    -0.141 NA
BRANCH  12  15
ATOM     15  O3  UNL     1      18.783   9.153  38.269  0.00  0.00    -0.491 OA
ATOM     16  H11 UNL     1      18.692  10.162  38.247  0.00  0.00    +0.294 HD
ENDBRANCH  12  15
ENDBRANCH   6   9
BRANCH   1  19
ATOM     17  O1  UNL     1      20.704   2.527  29.880  0.00  0.00    -0.269 OA
ATOM     18  C1  UNL     1      21.886   2.297  30.258  0.00  0.00    +0.263 C 
ATOM     19  N1  UNL     1      22.538   3.209  31.159  0.00  0.00    -0.306 N 
ATOM     20  H1  UNL     1      23.504   2.988  31.492  0.00  0.00    +0.149 HD
BRANCH  18  21
ATOM     21  C12 UNL     1      22.589   1.090  29.772  0.00  0.00    +0.126 A 
ATOM     22  C13 UNL     1      21.875  -0.051  29.365  0.00  0.00    +0.036 A 
ATOM     23  C14 UNL     1      22.572  -1.173  28.912  0.00  0.00    +0.042 A 
ATOM     24  C15 UNL     1      23.966  -1.155  28.868  0.00  0.00    +0.141 A 
ATOM     25  F1  UNL     1      24.653  -2.239  28.430  0.00  0.00    -0.204 F 
ATOM     26  C16 UNL     1      24.647  -0.007  29.279  0.00  0.00    +0.149 A 
ATOM     27  N5  UNL     1      23.951   1.076  29.715  0.00  0.00    -0.248 NA
ENDBRANCH  18  21
ENDBRANCH   1  19
TORSDOF 4
ENDMDL
MODEL 2
REMARK VINA RESULT:    -6.228      7.555     11.692
REMARK INTER + INTRA:          -7.902
REMARK INTER:                  -7.395
REMARK INTRA:                  -0.507
REMARK UNBOUND:                -0.400
REMARK  Name = /home/qwerty/github/datacon2025hack/step_04_hit_selection/docking/ligands/lig_21.pdb
REMARK  4 active torsions:
REMARK  status: ('A' for Active; 'I' for Inactive)
REMARK    1  A    between atoms: C1_2  and  C12_19
REMARK    2  A    between atoms: N1_3  and  C2_4
REMARK    3  A    between atoms: C6_9  and  C7_11
REMARK    4  A    between atoms: C10_14  and  O3_15
REMARK                            x       y       z     vdW  Elec       q    Type
REMARK                         _______ _______ _______ _____ _____    ______ ____
ROOT
ATOM      1  C2  UNL     1      18.553   0.844  26.047  0.00  0.00    +0.091 C 
ATOM      2  C3  UNL     1      17.333   0.553  26.946  0.00  0.00    +0.025 C 
ATOM      3  C4  UNL     1      15.975   0.744  26.230  0.00  0.00    +0.021 C 
ATOM      4  C5  UNL     1      16.105   1.345  24.826  0.00  0.00    +0.108 C 
ATOM      5  N2  UNL     1      17.104   0.601  24.045  0.00  0.00    -0.294 N 
ATOM      6  C6  UNL     1      16.846   0.225  22.677  0.00  0.00    +0.267 C 
ATOM      7  O2  UNL     1      17.265  -0.889  22.256  0.00  0.00    -0.268 OA
ATOM      8  C11 UNL     1      18.376   0.198  24.663  0.00  0.00    +0.130 C 
ENDROOT
BRANCH   6   9
ATOM      9  C7  UNL     1      16.132   1.130  21.750  0.00  0.00    +0.148 A 
ATOM     10  C8  UNL     1      16.751   2.277  21.236  0.00  0.00    +0.040 A 
ATOM     11  C9  UNL     1      16.037   3.115  20.383  0.00  0.00    +0.071 A 
ATOM     12  C10 UNL     1      14.715   2.798  20.067  0.00  0.00    +0.232 A 
ATOM     13  N3  UNL     1      14.153   1.680  20.595  0.00  0.00    -0.111 NA
ATOM     14  N4  UNL     1      14.838   0.876  21.410  0.00  0.00    -0.141 NA
BRANCH  12  15
ATOM     15  O3  UNL     1      13.966   3.614  19.221  0.00  0.00    -0.491 OA
ATOM     16  H11 UNL     1      13.501   4.447  19.564  0.00  0.00    +0.294 HD
ENDBRANCH  12  15
ENDBRANCH   6   9
BRANCH   1  19
ATOM     17  O1  UNL     1      20.277   2.400  27.698  0.00  0.00    -0.269 OA
ATOM     18  C1  UNL     1      20.622   1.206  27.480  0.00  0.00    +0.263 C 
ATOM     19  N1  UNL     1      19.786   0.356  26.675  0.00  0.00    -0.306 N 
ATOM     20  H1  UNL     1      20.102  -0.620  26.473  0.00  0.00    +0.149 HD
BRANCH  18  21
ATOM     21  C12 UNL     1      21.886   0.691  28.052  0.00  0.00    +0.126 A 
ATOM     22  C13 UNL     1      22.921   1.566  28.427  0.00  0.00    +0.036 A 
ATOM     23  C14 UNL     1      24.100   1.046  28.964  0.00  0.00    +0.042 A 
ATOM     24  C15 UNL     1      24.244  -0.333  29.123  0.00  0.00    +0.141 A 
ATOM     25  F1  UNL     1      25.384  -0.849  29.643  0.00  0.00    -0.204 F 
ATOM     26  C16 UNL     1      23.198  -1.176  28.741  0.00  0.00    +0.149 A 
ATOM     27  N5  UNL     1      22.056  -0.651  28.222  0.00  0.00    -0.248 NA
ENDBRANCH  18  21
ENDBRANCH   1  19
TORSDOF 4
ENDMDL
MODEL 3
REMARK VINA RESULT:    -6.114     13.265     15.181
REMARK INTER + INTRA:          -7.765
REMARK INTER:                  -7.368
REMARK INTRA:                  -0.397
REMARK UNBOUND:                -0.400
REMARK  Name = /home/qwerty/github/datacon2025hack/step_04_hit_selection/docking/ligands/lig_21.pdb
REMARK  4 active torsions:
REMARK  status: ('A' for Active; 'I' for Inactive)
REMARK    1  A    between atoms: C1_2  and  C12_19
REMARK    2  A    between atoms: N1_3  and  C2_4
REMARK    3  A    between atoms: C6_9  and  C7_11
REMARK    4  A    between atoms: C10_14  and  O3_15
REMARK                            x       y       z     vdW  Elec       q    Type
REMARK                         _______ _______ _______ _____ _____    ______ ____
ROOT
ATOM      1  C2  UNL     1      13.343   2.666  20.918  0.00  0.00    +0.091 C 
ATOM      2  C3  UNL     1      14.115   3.569  19.933  0.00  0.00    +0.025 C 
ATOM      3  C4  UNL     1      13.320   4.816  19.479  0.00  0.00    +0.021 C 
ATOM      4  C5  UNL     1      11.865   4.820  19.962  0.00  0.00    +0.108 C 
ATOM      5  N2  UNL     1      11.809   4.556  21.408  0.00  0.00    -0.294 N 
ATOM      6  C6  UNL     1      10.956   5.334  22.271  0.00  0.00    +0.267 C 
ATOM      7  O2  UNL     1      11.359   5.629  23.430  0.00  0.00    -0.268 OA
ATOM      8  C11 UNL     1      12.654   3.509  22.002  0.00  0.00    +0.130 C 
ENDROOT
BRANCH   6   9
ATOM      9  C7  UNL     1       9.609   5.766  21.838  0.00  0.00    +0.148 A 
ATOM     10  C8  UNL     1       9.248   7.120  21.837  0.00  0.00    +0.040 A 
ATOM     11  C9  UNL     1       7.963   7.484  21.443  0.00  0.00    +0.071 A 
ATOM     12  C10 UNL     1       7.058   6.490  21.067  0.00  0.00    +0.232 A 
ATOM     13  N3  UNL     1       7.450   5.190  21.092  0.00  0.00    -0.111 NA
ATOM     14  N4  UNL     1       8.682   4.841  21.466  0.00  0.00    -0.141 NA
BRANCH  12  15
ATOM     15  O3  UNL     1       5.762   6.813  20.672  0.00  0.00    -0.491 OA
ATOM     16  H11 UNL     1       5.475   6.758  19.701  0.00  0.00    +0.294 HD
ENDBRANCH  12  15
ENDBRANCH   6   9
BRANCH   1  19
ATOM     17  O1  UNL     1      12.523   0.229  22.145  0.00  0.00    -0.269 OA
ATOM     18  C1  UNL     1      13.757   0.487  22.161  0.00  0.00    +0.263 C 
ATOM     19  N1  UNL     1      14.244   1.689  21.538  0.00  0.00    -0.306 N 
ATOM     20  H1  UNL     1      15.266   1.908  21.590  0.00  0.00    +0.149 HD
BRANCH  18  21
ATOM     21  C12 UNL     1      14.693  -0.448  22.824  0.00  0.00    +0.126 A 
ATOM     22  C13 UNL     1      15.890  -0.842  22.197  0.00  0.00    +0.036 A 
ATOM     23  C14 UNL     1      16.749  -1.726  22.852  0.00  0.00    +0.042 A 
ATOM     24  C15 UNL     1      16.417  -2.211  24.117  0.00  0.00    +0.141 A 
ATOM     25  F1  UNL     1      17.245  -3.070  24.762  0.00  0.00    -0.204 F 
ATOM     26  C16 UNL     1      15.223  -1.801  24.713  0.00  0.00    +0.149 A 
ATOM     27  N5  UNL     1      14.398  -0.938  24.061  0.00  0.00    -0.248 NA
ENDBRANCH  18  21
ENDBRANCH   1  19
TORSDOF 4
ENDMDL
MODEL 4
REMARK VINA RESULT:    -6.079      6.521      8.729
REMARK INTER + INTRA:          -7.723
REMARK INTER:                  -7.317
REMARK INTRA:                  -0.406
REMARK UNBOUND:                -0.400
REMARK  Name = /home/qwerty/github/datacon2025hack/step_04_hit_selection/docking/ligands/lig_21.pdb
REMARK  4 active torsions:
REMARK  status: ('A' for Active; 'I' for Inactive)
REMARK    1  A    between atoms: C1_2  and  C12_19
REMARK    2  A    between atoms: N1_3  and  C2_4
REMARK    3  A    between atoms: C6_9  and  C7_11
REMARK    4  A    between atoms: C10_14  and  O3_15
REMARK                            x       y       z     vdW  Elec       q    Type
REMARK                         _______ _______ _______ _____ _____    ______ ____
ROOT
ATOM      1  C2  UNL     1      19.165   2.104  25.670  0.00  0.00    +0.091 C 
ATOM      2  C3  UNL     1      19.859   3.464  25.446  0.00  0.00    +0.025 C 
ATOM      3  C4  UNL     1      20.577   4.009  26.703  0.00  0.00    +0.021 C 
ATOM      4  C5  UNL     1      20.316   3.178  27.963  0.00  0.00    +0.108 C 
ATOM      5  N2  UNL     1      20.564   1.753  27.692  0.00  0.00    -0.294 N 
ATOM      6  C6  UNL     1      21.301   0.939  28.625  0.00  0.00    +0.267 C 
ATOM      7  O2  UNL     1      22.083   0.052  28.182  0.00  0.00    -0.268 OA
ATOM      8  C11 UNL     1      20.086   1.145  26.442  0.00  0.00    +0.130 C 
ENDROOT
BRANCH   6   9
ATOM      9  C7  UNL     1      21.138   1.098  30.086  0.00  0.00    +0.148 A 
ATOM     10  C8  UNL     1      20.205   0.332  30.799  0.00  0.00    +0.040 A 
ATOM     11  C9  UNL     1      20.066   0.527  32.171  0.00  0.00    +0.071 A 
ATOM     12  C10 UNL     1      20.853   1.491  32.805  0.00  0.00    +0.232 A 
ATOM     13  N3  UNL     1      21.738   2.215  32.073  0.00  0.00    -0.111 NA
ATOM     14  N4  UNL     1      21.873   2.025  30.759  0.00  0.00    -0.141 NA
BRANCH  12  15
ATOM     15  O3  UNL     1      20.740   1.719  34.174  0.00  0.00    -0.491 OA
ATOM     16  H11 UNL     1      20.843   0.968  34.847  0.00  0.00    +0.294 HD
ENDBRANCH  12  15
ENDBRANCH   6   9
BRANCH   1  19
ATOM     17  O1  UNL     1      16.512   2.028  24.636  0.00  0.00    -0.269 OA
ATOM     18  C1  UNL     1      17.410   1.482  23.939  0.00  0.00    +0.263 C 
ATOM     19  N1  UNL     1      18.776   1.504  24.389  0.00  0.00    -0.306 N 
ATOM     20  H1  UNL     1      19.505   1.017  23.819  0.00  0.00    +0.149 HD
BRANCH  18  21
ATOM     21  C12 UNL     1      17.050   0.820  22.665  0.00  0.00    +0.126 A 
ATOM     22  C13 UNL     1      17.229  -0.564  22.491  0.00  0.00    +0.036 A 
ATOM     23  C14 UNL     1      16.878  -1.155  21.276  0.00  0.00    +0.042 A 
ATOM     24  C15 UNL     1      16.357  -0.371  20.246  0.00  0.00    +0.141 A 
ATOM     25  F1  UNL     1      16.013  -0.935  19.061  0.00  0.00    -0.204 F 
ATOM     26  C16 UNL     1      16.191   1.000  20.449  0.00  0.00    +0.149 A 
ATOM     27  N5  UNL     1      16.536   1.558  21.640  0.00  0.00    -0.248 NA
ENDBRANCH  18  21
ENDBRANCH   1  19
TORSDOF 4
ENDMDL
MODEL 5
REMARK VINA RESULT:    -5.944      7.693     11.736
REMARK INTER + INTRA:          -7.560
REMARK INTER:                  -7.035
REMARK INTRA:                  -0.525
REMARK UNBOUND:                -0.400
REMARK  Name = /home/qwerty/github/datacon2025hack/step_04_hit_selection/docking/ligands/lig_21.pdb
REMARK  4 active torsions:
REMARK  status: ('A' for Active; 'I' for Inactive)
REMARK    1  A    between atoms: C1_2  and  C12_19
REMARK    2  A    between atoms: N1_3  and  C2_4
REMARK    3  A    between atoms: C6_9  and  C7_11
REMARK    4  A    between atoms: C10_14  and  O3_15
REMARK                            x       y       z     vdW  Elec       q    Type
REMARK                         _______ _______ _______ _____ _____    ______ ____
ROOT
ATOM      1  C2  UNL     1      17.809  12.011  35.605  0.00  0.00    +0.091 C 
ATOM      2  C3  UNL     1      18.772  12.974  34.878  0.00  0.00    +0.025 C 
ATOM      3  C4  UNL     1      20.231  12.465  34.818  0.00  0.00    +0.021 C 
ATOM      4  C5  UNL     1      20.467  11.192  35.637  0.00  0.00    +0.108 C 
ATOM      5  N2  UNL     1      19.457  10.178  35.302  0.00  0.00    -0.294 N 
ATOM      6  C6  UNL     1      19.830   8.803  35.084  0.00  0.00    +0.267 C 
ATOM      7  O2  UNL     1      19.234   8.138  34.192  0.00  0.00    -0.268 OA
ATOM      8  C11 UNL     1      18.046  10.561  35.151  0.00  0.00    +0.130 C 
ENDROOT
BRANCH   6   9
ATOM      9  C7  UNL     1      20.873   8.147  35.904  0.00  0.00    +0.148 A 
ATOM     10  C8  UNL     1      22.124   7.823  35.361  0.00  0.00    +0.040 A 
ATOM     11  C9  UNL     1      23.071   7.187  36.160  0.00  0.00    +0.071 A 
ATOM     12  C10 UNL     1      22.749   6.877  37.483  0.00  0.00    +0.232 A 
ATOM     13  N3  UNL     1      21.522   7.204  37.963  0.00  0.00    -0.111 NA
ATOM     14  N4  UNL     1      20.616   7.815  37.199  0.00  0.00    -0.141 NA
BRANCH  12  15
ATOM     15  O3  UNL     1      23.667   6.237  38.312  0.00  0.00    -0.491 OA
ATOM     16  H11 UNL     1      23.569   5.258  38.555  0.00  0.00    +0.294 HD
ENDBRANCH  12  15
ENDBRANCH   6   9
BRANCH   1  19
ATOM     17  O1  UNL     1      15.783  12.173  37.602  0.00  0.00    -0.269 OA
ATOM     18  C1  UNL     1      15.437  12.431  36.416  0.00  0.00    +0.263 C 
ATOM     19  N1  UNL     1      16.414  12.393  35.362  0.00  0.00    -0.306 N 
ATOM     20  H1  UNL     1      16.106  12.575  34.379  0.00  0.00    +0.149 HD
BRANCH  18  21
ATOM     21  C12 UNL     1      14.027  12.770  36.122  0.00  0.00    +0.126 A 
ATOM     22  C13 UNL     1      13.701  13.776  35.195  0.00  0.00    +0.036 A 
ATOM     23  C14 UNL     1      12.359  14.069  34.941  0.00  0.00    +0.042 A 
ATOM     24  C15 UNL     1      11.356  13.365  35.608  0.00  0.00    +0.141 A 
ATOM     25  F1  UNL     1      10.050  13.642  35.369  0.00  0.00    -0.204 F 
ATOM     26  C16 UNL     1      11.711  12.372  36.523  0.00  0.00    +0.149 A 
ATOM     27  N5  UNL     1      13.023  12.099  36.755  0.00  0.00    -0.248 NA
ENDBRANCH  18  21
ENDBRANCH   1  19
TORSDOF 4
ENDMDL
MODEL 6
REMARK VINA RESULT:    -5.879     14.616     15.659
REMARK INTER + INTRA:          -7.481
REMARK INTER:                  -7.118
REMARK INTRA:                  -0.363
REMARK UNBOUND:                -0.400
REMARK  Name = /home/qwerty/github/datacon2025hack/step_04_hit_selection/docking/ligands/lig_21.pdb
REMARK  4 active torsions:
REMARK  status: ('A' for Active; 'I' for Inactive)
REMARK    1  A    between atoms: C1_2  and  C12_19
REMARK    2  A    between atoms: N1_3  and  C2_4
REMARK    3  A    between atoms: C6_9  and  C7_11
REMARK    4  A    between atoms: C10_14  and  O3_15
REMARK                            x       y       z     vdW  Elec       q    Type
REMARK                         _______ _______ _______ _____ _____    ______ ____
ROOT
ATOM      1  C2  UNL     1       9.206   8.773  26.523  0.00  0.00    +0.091 C 
ATOM      2  C3  UNL     1       8.946   8.052  27.862  0.00  0.00    +0.025 C 
ATOM      3  C4  UNL     1       9.345   8.884  29.103  0.00  0.00    +0.021 C 
ATOM      4  C5  UNL     1      10.075  10.186  28.755  0.00  0.00    +0.108 C 
ATOM      5  N2  UNL     1       9.321  10.935  27.739  0.00  0.00    -0.294 N 
ATOM      6  C6  UNL     1       9.120  12.357  27.864  0.00  0.00    +0.267 C 
ATOM      7  O2  UNL     1       8.020  12.857  27.498  0.00  0.00    -0.268 OA
ATOM      8  C11 UNL     1       8.730  10.233  26.590  0.00  0.00    +0.130 C 
ENDROOT
BRANCH   6   9
ATOM      9  C7  UNL     1      10.184  13.244  28.382  0.00  0.00    +0.148 A 
ATOM     10  C8  UNL     1      11.029  13.947  27.511  0.00  0.00    +0.040 A 
ATOM     11  C9  UNL     1      12.032  14.756  28.038  0.00  0.00    +0.071 A 
ATOM     12  C10 UNL     1      12.182  14.841  29.424  0.00  0.00    +0.232 A 
ATOM     13  N3  UNL     1      11.346  14.136  30.228  0.00  0.00    -0.111 NA
ATOM     14  N4  UNL     1      10.382  13.363  29.723  0.00  0.00    -0.141 NA
BRANCH  12  15
ATOM     15  O3  UNL     1      13.177  15.635  29.989  0.00  0.00    -0.491 OA
ATOM     16  H11 UNL     1      13.813  16.176  29.415  0.00  0.00    +0.294 HD
ENDBRANCH  12  15
ENDBRANCH   6   9
BRANCH   1  19
ATOM     17  O1  UNL     1      10.511   7.673  24.242  0.00  0.00    -0.269 OA
ATOM     18  C1  UNL     1       9.255   7.565  24.286  0.00  0.00    +0.263 C 
ATOM     19  N1  UNL     1       8.534   8.076  25.421  0.00  0.00    -0.306 N 
ATOM     20  H1  UNL     1       7.490   8.011  25.428  0.00  0.00    +0.149 HD
BRANCH  18  21
ATOM     21  C12 UNL     1       8.535   6.915  23.169  0.00  0.00    +0.126 A 
ATOM     22  C13 UNL     1       8.251   5.538  23.193  0.00  0.00    +0.036 A 
ATOM     23  C14 UNL     1       7.569   4.958  22.121  0.00  0.00    +0.042 A 
ATOM     24  C15 UNL     1       7.178   5.744  21.038  0.00  0.00    +0.141 A 
ATOM     25  F1  UNL     1       6.516   5.191  19.992  0.00  0.00    -0.204 F 
ATOM     26  C16 UNL     1       7.474   7.109  21.043  0.00  0.00    +0.149 A 
ATOM     27  N5  UNL     1       8.137   7.657  22.096  0.00  0.00    -0.248 NA
ENDBRANCH  18  21
ENDBRANCH   1  19
TORSDOF 4
ENDMDL
MODEL 7
REMARK VINA RESULT:    -5.856      9.572     12.009
REMARK INTER + INTRA:          -7.454
REMARK INTER:                  -7.058
REMARK INTRA:                  -0.396
REMARK UNBOUND:                -0.400
REMARK  Name = /home/qwerty/github/datacon2025hack/step_04_hit_selection/docking/ligands/lig_21.pdb
REMARK  4 active torsions:
REMARK  status: ('A' for Active; 'I' for Inactive)
REMARK    1  A    between atoms: C1_2  and  C12_19
REMARK    2  A    between atoms: N1_3  and  C2_4
REMARK    3  A    between atoms: C6_9  and  C7_11
REMARK    4  A    between atoms: C10_14  and  O3_15
REMARK                            x       y       z     vdW  Elec       q    Type
REMARK                         _______ _______ _______ _____ _____    ______ ____
ROOT
ATOM      1  C2  UNL     1      21.617   5.715  22.390  0.00  0.00    +0.091 C 
ATOM      2  C3  UNL     1      21.264   4.983  21.078  0.00  0.00    +0.025 C 
ATOM      3  C4  UNL     1      21.253   5.905  19.836  0.00  0.00    +0.021 C 
ATOM      4  C5  UNL     1      21.427   7.389  20.177  0.00  0.00    +0.108 C 
ATOM      5  N2  UNL     1      22.587   7.575  21.061  0.00  0.00    -0.294 N 
ATOM      6  C6  UNL     1      23.534   8.636  20.828  0.00  0.00    +0.267 C 
ATOM      7  O2  UNL     1      24.759   8.426  21.046  0.00  0.00    -0.268 OA
ATOM      8  C11 UNL     1      22.817   6.653  22.183  0.00  0.00    +0.130 C 
ENDROOT
BRANCH   6   9
ATOM      9  C7  UNL     1      23.096   9.973  20.370  0.00  0.00    +0.148 A 
ATOM     10  C8  UNL     1      23.701  10.596  19.270  0.00  0.00    +0.040 A 
ATOM     11  C9  UNL     1      23.275  11.864  18.883  0.00  0.00    +0.071 A 
ATOM     12  C10 UNL     1      22.260  12.493  19.608  0.00  0.00    +0.232 A 
ATOM     13  N3  UNL     1      21.709  11.854  20.672  0.00  0.00    -0.111 NA
ATOM     14  N4  UNL     1      22.115  10.638  21.040  0.00  0.00    -0.141 NA
BRANCH  12  15
ATOM     15  O3  UNL     1      21.810  13.763  19.256  0.00  0.00    -0.491 OA
ATOM     16  H11 UNL     1      21.246  14.319  19.888  0.00  0.00    +0.294 HD
ENDBRANCH  12  15
ENDBRANCH   6   9
BRANCH   1  19
ATOM     17  O1  UNL     1      19.667   4.467  24.051  0.00  0.00    -0.269 OA
ATOM     18  C1  UNL     1      20.875   4.177  24.274  0.00  0.00    +0.263 C 
ATOM     19  N1  UNL     1      21.910   4.752  23.457  0.00  0.00    -0.306 N 
ATOM     20  H1  UNL     1      22.909   4.530  23.675  0.00  0.00    +0.149 HD
BRANCH  18  21
ATOM     21  C12 UNL     1      21.216   3.250  25.375  0.00  0.00    +0.126 A 
ATOM     22  C13 UNL     1      22.289   3.519  26.244  0.00  0.00    +0.036 A 
ATOM     23  C14 UNL     1      22.582   2.622  27.273  0.00  0.00    +0.042 A 
ATOM     24  C15 UNL     1      21.813   1.469  27.431  0.00  0.00    +0.141 A 
ATOM     25  F1  UNL     1      22.089   0.591  28.427  0.00  0.00    -0.204 F 
ATOM     26  C16 UNL     1      20.754   1.230  26.553  0.00  0.00    +0.149 A 
ATOM     27  N5  UNL     1      20.482   2.115  25.558  0.00  0.00    -0.248 NA
ENDBRANCH  18  21
ENDBRANCH   1  19
TORSDOF 4
ENDMDL
MODEL 8
REMARK VINA RESULT:    -5.843      2.478      3.282
REMARK INTER + INTRA:          -7.438
REMARK INTER:                  -7.060
REMARK INTRA:                  -0.379
REMARK UNBOUND:                -0.400
REMARK  Name = /home/qwerty/github/datacon2025hack/step_04_hit_selection/docking/ligands/lig_21.pdb
REMARK  4 active torsions:
REMARK  status: ('A' for Active; 'I' for Inactive)
REMARK    1  A    between atoms: C1_2  and  C12_19
REMARK    2  A    between atoms: N1_3  and  C2_4
REMARK    3  A    between atoms: C6_9  and  C7_11
REMARK    4  A    between atoms: C10_14  and  O3_15
REMARK                            x       y       z     vdW  Elec       q    Type
REMARK                         _______ _______ _______ _____ _____    ______ ____
ROOT
ATOM      1  C2  UNL     1      21.663   7.077  31.844  0.00  0.00    +0.091 C 
ATOM      2  C3  UNL     1      22.716   7.992  31.185  0.00  0.00    +0.025 C 
ATOM      3  C4  UNL     1      22.730   9.431  31.752  0.00  0.00    +0.021 C 
ATOM      4  C5  UNL     1      21.587   9.711  32.733  0.00  0.00    +0.108 C 
ATOM      5  N2  UNL     1      21.525   8.656  33.756  0.00  0.00    -0.294 N 
ATOM      6  C6  UNL     1      21.349   8.983  35.148  0.00  0.00    +0.267 C 
ATOM      7  O2  UNL     1      21.953   8.300  36.022  0.00  0.00    -0.268 OA
ATOM      8  C11 UNL     1      21.677   7.245  33.372  0.00  0.00    +0.130 C 
ENDROOT
BRANCH   6   9
ATOM      9  C7  UNL     1      20.451  10.079  35.576  0.00  0.00    +0.148 A 
ATOM     10  C8  UNL     1      20.907  11.402  35.648  0.00  0.00    +0.040 A 
ATOM     11  C9  UNL     1      20.037  12.402  36.076  0.00  0.00    +0.071 A 
ATOM     12  C10 UNL     1      18.731  12.062  36.433  0.00  0.00    +0.232 A 
ATOM     13  N3  UNL     1      18.336  10.765  36.355  0.00  0.00    -0.111 NA
ATOM     14  N4  UNL     1      19.168   9.808  35.942  0.00  0.00    -0.141 NA
BRANCH  12  15
ATOM     15  O3  UNL     1      17.833  13.032  36.871  0.00  0.00    -0.491 OA
ATOM     16  H11 UNL     1      16.843  12.969  36.663  0.00  0.00    +0.294 HD
ENDBRANCH  12  15
ENDBRANCH   6   9
BRANCH   1  19
ATOM     17  O1  UNL     1      20.265   5.634  29.824  0.00  0.00    -0.269 OA
ATOM     18  C1  UNL     1      21.142   5.000  30.473  0.00  0.00    +0.263 C 
ATOM     19  N1  UNL     1      21.903   5.674  31.491  0.00  0.00    -0.306 N 
ATOM     20  H1  UNL     1      22.602   5.128  32.045  0.00  0.00    +0.149 HD
BRANCH  18  21
ATOM     21  C12 UNL     1      21.378   3.569  30.182  0.00  0.00    +0.126 A 
ATOM     22  C13 UNL     1      21.766   3.144  28.899  0.00  0.00    +0.036 A 
ATOM     23  C14 UNL     1      21.980   1.785  28.660  0.00  0.00    +0.042 A 
ATOM     24  C15 UNL     1      21.806   0.862  29.691  0.00  0.00    +0.141 A 
ATOM     25  F1  UNL     1      22.011  -0.461  29.471  0.00  0.00    -0.204 F 
ATOM     26  C16 UNL     1      21.420   1.314  30.955  0.00  0.00    +0.149 A 
ATOM     27  N5  UNL     1      21.218   2.642  31.169  0.00  0.00    -0.248 NA
ENDBRANCH  18  21
ENDBRANCH   1  19
TORSDOF 4
ENDMDL
MODEL 9
REMARK VINA RESULT:    -5.787     13.125     16.147
REMARK INTER + INTRA:          -7.371
REMARK INTER:                  -6.843
REMARK INTRA:                  -0.528
REMARK UNBOUND:                -0.400
REMARK  Name = /home/qwerty/github/datacon2025hack/step_04_hit_selection/docking/ligands/lig_21.pdb
REMARK  4 active torsions:
REMARK  status: ('A' for Active; 'I' for Inactive)
REMARK    1  A    between atoms: C1_2  and  C12_19
REMARK    2  A    between atoms: N1_3  and  C2_4
REMARK    3  A    between atoms: C6_9  and  C7_11
REMARK    4  A    between atoms: C10_14  and  O3_15
REMARK                            x       y       z     vdW  Elec       q    Type
REMARK                         _______ _______ _______ _____ _____    ______ ____
ROOT
ATOM      1  C2  UNL     1      14.670   5.343  20.805  0.00  0.00    +0.091 C 
ATOM      2  C3  UNL     1      15.741   5.595  19.722  0.00  0.00    +0.025 C 
ATOM      3  C4  UNL     1      16.780   4.456  19.600  0.00  0.00    +0.021 C 
ATOM      4  C5  UNL     1      16.643   3.386  20.688  0.00  0.00    +0.108 C 
ATOM      5  N2  UNL     1      15.249   2.928  20.778  0.00  0.00    -0.294 N 
ATOM      6  C6  UNL     1      14.935   1.525  20.885  0.00  0.00    +0.267 C 
ATOM      7  O2  UNL     1      13.914   1.077  20.294  0.00  0.00    -0.268 OA
ATOM      8  C11 UNL     1      14.147   3.900  20.726  0.00  0.00    +0.130 C 
ENDROOT
BRANCH   6   9
ATOM      9  C7  UNL     1      15.764   0.609  21.699  0.00  0.00    +0.148 A 
ATOM     10  C8  UNL     1      16.533  -0.397  21.099  0.00  0.00    +0.040 A 
ATOM     11  C9  UNL     1      17.284  -1.253  21.901  0.00  0.00    +0.071 A 
ATOM     12  C10 UNL     1      17.246  -1.096  23.288  0.00  0.00    +0.232 A 
ATOM     13  N3  UNL     1      16.480  -0.112  23.825  0.00  0.00    -0.111 NA
ATOM     14  N4  UNL     1      15.763   0.710  23.056  0.00  0.00    -0.141 NA
BRANCH  12  15
ATOM     15  O3  UNL     1      17.979  -1.935  24.124  0.00  0.00    -0.491 OA
ATOM     16  H11 UNL     1      18.698  -2.548  23.760  0.00  0.00    +0.294 HD
ENDBRANCH  12  15
ENDBRANCH   6   9
BRANCH   1  19
ATOM     17  O1  UNL     1      14.034   7.412  22.657  0.00  0.00    -0.269 OA
ATOM     18  C1  UNL     1      13.281   7.297  21.651  0.00  0.00    +0.263 C 
ATOM     19  N1  UNL     1      13.558   6.289  20.663  0.00  0.00    -0.306 N 
ATOM     20  H1  UNL     1      12.906   6.182  19.853  0.00  0.00    +0.149 HD
BRANCH  18  21
ATOM     21  C12 UNL     1      12.118   8.198  21.499  0.00  0.00    +0.126 A 
ATOM     22  C13 UNL     1      11.252   8.085  20.396  0.00  0.00    +0.036 A 
ATOM     23  C14 UNL     1      10.164   8.953  20.284  0.00  0.00    +0.042 A 
ATOM     24  C15 UNL     1       9.945   9.923  21.262  0.00  0.00    +0.141 A 
ATOM     25  F1  UNL     1       8.891  10.771  21.163  0.00  0.00    -0.204 F 
ATOM     26  C16 UNL     1      10.822  10.011  22.345  0.00  0.00    +0.149 A 
ATOM     27  N5  UNL     1      11.875   9.156  22.438  0.00  0.00    -0.248 NA
ENDBRANCH  18  21
ENDBRANCH   1  19
TORSDOF 4
ENDMDL
