MODEL 1
REMARK VINA RESULT:    -6.742      0.000      0.000
REMARK INTER + INTRA:         -10.192
REMARK INTER:                  -9.107
REMARK INTRA:                  -1.084
REMARK UNBOUND:                -1.084
REMARK  Name = /home/qwerty/github/datacon2025hack/step_04_hit_selection/docking/ligands/lig_614.pdb
REMARK  7 active torsions:
REMARK  status: ('A' for Active; 'I' for Inactive)
REMARK    1  A    between atoms: C1_1  and  C2_2
REMARK    2  A    between atoms: N1_4  and  C3_5
REMARK    3  A    between atoms: C6_8  and  N2_9
REMARK    4  A    between atoms: C8_11  and  C9_12
REMARK    5  A    between atoms: N3_14  and  C10_15
REMARK    6  A    between atoms: C13_18  and  O3_19
REMARK    7  A    between atoms: O3_19  and  C14_20
REMARK                            x       y       z     vdW  Elec       q    Type
REMARK                         _______ _______ _______ _____ _____    ______ ____
ROOT
ATOM      1  N2  UNL     1      14.311   2.296  21.014  0.00  0.00    -0.271 N 
ATOM      2  C7  UNL     1      12.939   2.539  21.432  0.00  0.00    +0.127 C 
ATOM      3  C8  UNL     1      12.303   3.382  20.305  0.00  0.00    +0.102 C 
ATOM      4  C17 UNL     1      13.470   3.970  19.484  0.00  0.00    +0.110 C 
ATOM      5  C18 UNL     1      14.622   3.158  19.929  0.00  0.00    +0.221 C 
ATOM      6  O4  UNL     1      15.780   3.278  19.447  0.00  0.00    -0.275 OA
ENDROOT
BRANCH   1  10
ATOM      7  C3  UNL     1      16.967  -0.509  22.822  0.00  0.00    +0.033 A 
ATOM      8  C4  UNL     1      16.635   0.684  23.485  0.00  0.00    +0.025 A 
ATOM      9  C5  UNL     1      15.760   1.601  22.897  0.00  0.00    +0.025 A 
ATOM     10  C6  UNL     1      15.202   1.346  21.632  0.00  0.00    +0.036 A 
ATOM     11  C19 UNL     1      15.564   0.169  20.956  0.00  0.00    +0.025 A 
ATOM     12  C20 UNL     1      16.440  -0.748  21.546  0.00  0.00    +0.025 A 
BRANCH   7  16
ATOM     13  C1  UNL     1      18.679  -3.083  25.167  0.00  0.00    +0.109 C 
ATOM     14  C2  UNL     1      17.588  -2.299  24.514  0.00  0.00    +0.214 C 
ATOM     15  O1  UNL     1      16.399  -2.448  24.905  0.00  0.00    -0.276 OA
ATOM     16  N1  UNL     1      17.889  -1.455  23.391  0.00  0.00    -0.286 N 
ATOM     17  H4  UNL     1      18.811  -1.590  22.918  0.00  0.00    +0.155 HD
ENDBRANCH   7  16
ENDBRANCH   1  10
BRANCH   3  18
ATOM     18  C9  UNL     1      11.372   4.440  20.842  0.00  0.00    +0.222 C 
ATOM     19  O2  UNL     1      11.176   4.528  22.085  0.00  0.00    -0.275 OA
ATOM     20  N3  UNL     1      10.650   5.286  19.932  0.00  0.00    -0.285 N 
ATOM     21  H10 UNL     1      10.580   4.984  18.934  0.00  0.00    +0.155 HD
BRANCH  20  22
ATOM     22  C10 UNL     1       9.921   6.458  20.333  0.00  0.00    +0.034 A 
ATOM     23  C11 UNL     1       8.611   6.372  20.836  0.00  0.00    +0.027 A 
ATOM     24  C12 UNL     1       7.933   7.526  21.241  0.00  0.00    +0.048 A 
ATOM     25  C13 UNL     1       8.551   8.779  21.169  0.00  0.00    +0.130 A 
ATOM     26  C15 UNL     1       9.871   8.864  20.684  0.00  0.00    +0.048 A 
ATOM     27  C16 UNL     1      10.549   7.711  20.278  0.00  0.00    +0.027 A 
BRANCH  25  28
ATOM     28  O3  UNL     1       7.822   9.903  21.591  0.00  0.00    -0.406 OA
BRANCH  28  29
ATOM     29  C14 UNL     1       7.786  10.408  22.924  0.00  0.00    +0.575 C 
ATOM     30  F1  UNL     1       9.069  10.490  23.438  0.00  0.00    -0.133 F 
ATOM     31  F2  UNL     1       7.231  11.673  22.910  0.00  0.00    -0.133 F 
ATOM     32  F3  UNL     1       7.010   9.589  23.724  0.00  0.00    -0.133 F 
ENDBRANCH  28  29
ENDBRANCH  25  28
ENDBRANCH  20  22
ENDBRANCH   3  18
TORSDOF 6
ENDMDL
MODEL 2
REMARK VINA RESULT:    -6.741     13.259     14.785
REMARK INTER + INTRA:         -10.190
REMARK INTER:                  -9.556
REMARK INTRA:                  -0.634
REMARK UNBOUND:                -1.084
REMARK  Name = /home/qwerty/github/datacon2025hack/step_04_hit_selection/docking/ligands/lig_614.pdb
REMARK  7 active torsions:
REMARK  status: ('A' for Active; 'I' for Inactive)
REMARK    1  A    between atoms: C1_1  and  C2_2
REMARK    2  A    between atoms: N1_4  and  C3_5
REMARK    3  A    between atoms: C6_8  and  N2_9
REMARK    4  A    between atoms: C8_11  and  C9_12
REMARK    5  A    between atoms: N3_14  and  C10_15
REMARK    6  A    between atoms: C13_18  and  O3_19
REMARK    7  A    between atoms: O3_19  and  C14_20
REMARK                            x       y       z     vdW  Elec       q    Type
REMARK                         _______ _______ _______ _____ _____    ______ ____
ROOT
ATOM      1  N2  UNL     1      15.852  12.008  35.385  0.00  0.00    -0.271 N 
ATOM      2  C7  UNL     1      15.877  12.436  33.994  0.00  0.00    +0.127 C 
ATOM      3  C8  UNL     1      14.734  13.464  33.854  0.00  0.00    +0.102 C 
ATOM      4  C17 UNL     1      13.805  13.258  35.068  0.00  0.00    +0.110 C 
ATOM      5  C18 UNL     1      14.635  12.440  35.978  0.00  0.00    +0.221 C 
ATOM      6  O4  UNL     1      14.264  12.096  37.131  0.00  0.00    -0.275 OA
ENDROOT
BRANCH   1  10
ATOM      7  C3  UNL     1      18.931   9.735  37.267  0.00  0.00    +0.033 A 
ATOM      8  C4  UNL     1      19.126  11.097  36.982  0.00  0.00    +0.025 A 
ATOM      9  C5  UNL     1      18.116  11.844  36.372  0.00  0.00    +0.025 A 
ATOM     10  C6  UNL     1      16.892  11.245  36.029  0.00  0.00    +0.036 A 
ATOM     11  C19 UNL     1      16.713   9.874  36.282  0.00  0.00    +0.025 A 
ATOM     12  C20 UNL     1      17.724   9.128  36.893  0.00  0.00    +0.025 A 
BRANCH   7  16
ATOM     13  C1  UNL     1      21.791   7.177  37.842  0.00  0.00    +0.109 C 
ATOM     14  C2  UNL     1      20.902   8.139  37.124  0.00  0.00    +0.214 C 
ATOM     15  O1  UNL     1      21.040   8.301  35.882  0.00  0.00    -0.276 OA
ATOM     16  N1  UNL     1      19.965   8.936  37.867  0.00  0.00    -0.286 N 
ATOM     17  H4  UNL     1      20.091   8.992  38.903  0.00  0.00    +0.155 HD
ENDBRANCH   7  16
ENDBRANCH   1  10
BRANCH   3  18
ATOM     18  C9  UNL     1      14.013  13.337  32.535  0.00  0.00    +0.222 C 
ATOM     19  O2  UNL     1      14.237  12.341  31.794  0.00  0.00    -0.275 OA
ATOM     20  N3  UNL     1      13.141  14.390  32.092  0.00  0.00    -0.285 N 
ATOM     21  H10 UNL     1      13.227  15.323  32.555  0.00  0.00    +0.155 HD
BRANCH  20  22
ATOM     22  C10 UNL     1      12.243  14.272  30.975  0.00  0.00    +0.034 A 
ATOM     23  C11 UNL     1      12.586  14.759  29.703  0.00  0.00    +0.027 A 
ATOM     24  C12 UNL     1      11.704  14.610  28.628  0.00  0.00    +0.048 A 
ATOM     25  C13 UNL     1      10.476  13.961  28.798  0.00  0.00    +0.130 A 
ATOM     26  C15 UNL     1      10.140  13.454  30.069  0.00  0.00    +0.048 A 
ATOM     27  C16 UNL     1      11.021  13.604  31.143  0.00  0.00    +0.027 A 
BRANCH  25  28
ATOM     28  O3  UNL     1       9.631  13.838  27.683  0.00  0.00    -0.406 OA
BRANCH  28  29
ATOM     29  C14 UNL     1       8.213  13.699  27.736  0.00  0.00    +0.575 C 
ATOM     30  F1  UNL     1       7.755  13.964  29.016  0.00  0.00    -0.133 F 
ATOM     31  F2  UNL     1       7.640  14.604  26.863  0.00  0.00    -0.133 F 
ATOM     32  F3  UNL     1       7.844  12.420  27.359  0.00  0.00    -0.133 F 
ENDBRANCH  28  29
ENDBRANCH  25  28
ENDBRANCH  20  22
ENDBRANCH   3  18
TORSDOF 6
ENDMDL
MODEL 3
REMARK VINA RESULT:    -6.612     14.141     17.917
REMARK INTER + INTRA:         -10.015
REMARK INTER:                  -9.145
REMARK INTRA:                  -0.870
REMARK UNBOUND:                -1.084
REMARK  Name = /home/qwerty/github/datacon2025hack/step_04_hit_selection/docking/ligands/lig_614.pdb
REMARK  7 active torsions:
REMARK  status: ('A' for Active; 'I' for Inactive)
REMARK    1  A    between atoms: C1_1  and  C2_2
REMARK    2  A    between atoms: N1_4  and  C3_5
REMARK    3  A    between atoms: C6_8  and  N2_9
REMARK    4  A    between atoms: C8_11  and  C9_12
REMARK    5  A    between atoms: N3_14  and  C10_15
REMARK    6  A    between atoms: C13_18  and  O3_19
REMARK    7  A    between atoms: O3_19  and  C14_20
REMARK                            x       y       z     vdW  Elec       q    Type
REMARK                         _______ _______ _______ _____ _____    ______ ____
ROOT
ATOM      1  N2  UNL     1      19.933   8.103  35.529  0.00  0.00    -0.271 N 
ATOM      2  C7  UNL     1      19.261   6.868  35.155  0.00  0.00    +0.127 C 
ATOM      3  C8  UNL     1      20.337   5.764  35.244  0.00  0.00    +0.102 C 
ATOM      4  C17 UNL     1      21.703   6.481  35.237  0.00  0.00    +0.110 C 
ATOM      5  C18 UNL     1      21.337   7.884  35.523  0.00  0.00    +0.221 C 
ATOM      6  O4  UNL     1      22.184   8.804  35.666  0.00  0.00    -0.275 OA
ENDROOT
BRANCH   1  10
ATOM      7  C3  UNL     1      17.973  11.782  36.432  0.00  0.00    +0.033 A 
ATOM      8  C4  UNL     1      18.600  11.598  35.188  0.00  0.00    +0.025 A 
ATOM      9  C5  UNL     1      19.237  10.391  34.888  0.00  0.00    +0.025 A 
ATOM     10  C6  UNL     1      19.264   9.345  35.827  0.00  0.00    +0.036 A 
ATOM     11  C19 UNL     1      18.667   9.545  37.084  0.00  0.00    +0.025 A 
ATOM     12  C20 UNL     1      18.030  10.753  37.382  0.00  0.00    +0.025 A 
BRANCH   7  16
ATOM     13  C1  UNL     1      15.501  14.766  36.627  0.00  0.00    +0.109 C 
ATOM     14  C2  UNL     1      15.992  13.371  36.414  0.00  0.00    +0.214 C 
ATOM     15  O1  UNL     1      15.193  12.490  35.993  0.00  0.00    -0.276 OA
ATOM     16  N1  UNL     1      17.338  13.024  36.777  0.00  0.00    -0.286 N 
ATOM     17  H4  UNL     1      17.860  13.690  37.391  0.00  0.00    +0.155 HD
ENDBRANCH   7  16
ENDBRANCH   1  10
BRANCH   3  18
ATOM     18  C9  UNL     1      20.203   4.747  34.139  0.00  0.00    +0.222 C 
ATOM     19  O2  UNL     1      19.323   4.905  33.248  0.00  0.00    -0.275 OA
ATOM     20  N3  UNL     1      21.017   3.564  34.152  0.00  0.00    -0.285 N 
ATOM     21  H10 UNL     1      21.488   3.305  35.048  0.00  0.00    +0.155 HD
BRANCH  20  22
ATOM     22  C10 UNL     1      21.129   2.653  33.045  0.00  0.00    +0.034 A 
ATOM     23  C11 UNL     1      20.370   1.472  32.986  0.00  0.00    +0.027 A 
ATOM     24  C12 UNL     1      20.480   0.616  31.886  0.00  0.00    +0.048 A 
ATOM     25  C13 UNL     1      21.333   0.928  30.821  0.00  0.00    +0.130 A 
ATOM     26  C15 UNL     1      22.080   2.122  30.871  0.00  0.00    +0.048 A 
ATOM     27  C16 UNL     1      21.970   2.978  31.970  0.00  0.00    +0.027 A 
BRANCH  25  28
ATOM     28  O3  UNL     1      21.403   0.033  29.742  0.00  0.00    -0.406 OA
BRANCH  28  29
ATOM     29  C14 UNL     1      22.449  -0.011  28.774  0.00  0.00    +0.575 C 
ATOM     30  F1  UNL     1      22.257   0.973  27.819  0.00  0.00    -0.133 F 
ATOM     31  F2  UNL     1      23.656   0.213  29.407  0.00  0.00    -0.133 F 
ATOM     32  F3  UNL     1      22.488  -1.254  28.169  0.00  0.00    -0.133 F 
ENDBRANCH  28  29
ENDBRANCH  25  28
ENDBRANCH  20  22
ENDBRANCH   3  18
TORSDOF 6
ENDMDL
MODEL 4
REMARK VINA RESULT:    -6.586      9.034     13.284
REMARK INTER + INTRA:          -9.981
REMARK INTER:                  -8.842
REMARK INTRA:                  -1.138
REMARK UNBOUND:                -1.084
REMARK  Name = /home/qwerty/github/datacon2025hack/step_04_hit_selection/docking/ligands/lig_614.pdb
REMARK  7 active torsions:
REMARK  status: ('A' for Active; 'I' for Inactive)
REMARK    1  A    between atoms: C1_1  and  C2_2
REMARK    2  A    between atoms: N1_4  and  C3_5
REMARK    3  A    between atoms: C6_8  and  N2_9
REMARK    4  A    between atoms: C8_11  and  C9_12
REMARK    5  A    between atoms: N3_14  and  C10_15
REMARK    6  A    between atoms: C13_18  and  O3_19
REMARK    7  A    between atoms: O3_19  and  C14_20
REMARK                            x       y       z     vdW  Elec       q    Type
REMARK                         _______ _______ _______ _____ _____    ______ ____
ROOT
ATOM      1  N2  UNL     1      19.814   6.930  21.129  0.00  0.00    -0.271 N 
ATOM      2  C7  UNL     1      20.721   6.427  22.149  0.00  0.00    +0.127 C 
ATOM      3  C8  UNL     1      20.456   4.908  22.230  0.00  0.00    +0.102 C 
ATOM      4  C17 UNL     1      19.087   4.664  21.562  0.00  0.00    +0.110 C 
ATOM      5  C18 UNL     1      18.849   5.929  20.836  0.00  0.00    +0.221 C 
ATOM      6  O4  UNL     1      17.848   6.125  20.097  0.00  0.00    -0.275 OA
ENDROOT
BRANCH   1  10
ATOM      7  C3  UNL     1      20.007  10.811  19.372  0.00  0.00    +0.033 A 
ATOM      8  C4  UNL     1      19.349  10.619  20.599  0.00  0.00    +0.025 A 
ATOM      9  C5  UNL     1      19.290   9.349  21.178  0.00  0.00    +0.025 A 
ATOM     10  C6  UNL     1      19.885   8.245  20.543  0.00  0.00    +0.036 A 
ATOM     11  C19 UNL     1      20.511   8.434  19.299  0.00  0.00    +0.025 A 
ATOM     12  C20 UNL     1      20.569   9.705  18.720  0.00  0.00    +0.025 A 
BRANCH   7  16
ATOM     13  C1  UNL     1      20.955  14.450  18.413  0.00  0.00    +0.109 C 
ATOM     14  C2  UNL     1      21.107  13.060  18.939  0.00  0.00    +0.214 C 
ATOM     15  O1  UNL     1      22.192  12.719  19.482  0.00  0.00    -0.276 OA
ATOM     16  N1  UNL     1      20.056  12.102  18.739  0.00  0.00    -0.286 N 
ATOM     17  H4  UNL     1      19.318  12.332  18.035  0.00  0.00    +0.155 HD
ENDBRANCH   7  16
ENDBRANCH   1  10
BRANCH   3  18
ATOM     18  C9  UNL     1      20.518   4.393  23.646  0.00  0.00    +0.222 C 
ATOM     19  O2  UNL     1      19.703   4.829  24.505  0.00  0.00    -0.275 OA
ATOM     20  N3  UNL     1      21.555   3.476  24.029  0.00  0.00    -0.285 N 
ATOM     21  H10 UNL     1      22.388   3.390  23.403  0.00  0.00    +0.155 HD
BRANCH  20  22
ATOM     22  C10 UNL     1      21.572   2.758  25.275  0.00  0.00    +0.034 A 
ATOM     23  C11 UNL     1      20.667   1.715  25.534  0.00  0.00    +0.027 A 
ATOM     24  C12 UNL     1      20.721   1.017  26.745  0.00  0.00    +0.048 A 
ATOM     25  C13 UNL     1      21.686   1.334  27.708  0.00  0.00    +0.130 A 
ATOM     26  C15 UNL     1      22.607   2.366  27.441  0.00  0.00    +0.048 A 
ATOM     27  C16 UNL     1      22.552   3.064  26.231  0.00  0.00    +0.027 A 
BRANCH  25  28
ATOM     28  O3  UNL     1      21.695   0.599  28.904  0.00  0.00    -0.406 OA
BRANCH  28  29
ATOM     29  C14 UNL     1      21.167   1.047  30.150  0.00  0.00    +0.575 C 
ATOM     30  F1  UNL     1      20.824  -0.036  30.941  0.00  0.00    -0.133 F 
ATOM     31  F2  UNL     1      22.131   1.788  30.806  0.00  0.00    -0.133 F 
ATOM     32  F3  UNL     1      20.058   1.847  29.940  0.00  0.00    -0.133 F 
ENDBRANCH  28  29
ENDBRANCH  25  28
ENDBRANCH  20  22
ENDBRANCH   3  18
TORSDOF 6
ENDMDL
MODEL 5
REMARK VINA RESULT:    -6.447      9.202     11.142
REMARK INTER + INTRA:          -9.793
REMARK INTER:                  -8.836
REMARK INTRA:                  -0.957
REMARK UNBOUND:                -1.084
REMARK  Name = /home/qwerty/github/datacon2025hack/step_04_hit_selection/docking/ligands/lig_614.pdb
REMARK  7 active torsions:
REMARK  status: ('A' for Active; 'I' for Inactive)
REMARK    1  A    between atoms: C1_1  and  C2_2
REMARK    2  A    between atoms: N1_4  and  C3_5
REMARK    3  A    between atoms: C6_8  and  N2_9
REMARK    4  A    between atoms: C8_11  and  C9_12
REMARK    5  A    between atoms: N3_14  and  C10_15
REMARK    6  A    between atoms: C13_18  and  O3_19
REMARK    7  A    between atoms: O3_19  and  C14_20
REMARK                            x       y       z     vdW  Elec       q    Type
REMARK                         _______ _______ _______ _____ _____    ______ ____
ROOT
ATOM      1  N2  UNL     1       8.658   0.176  28.143  0.00  0.00    -0.271 N 
ATOM      2  C7  UNL     1       9.849   0.949  27.823  0.00  0.00    +0.127 C 
ATOM      3  C8  UNL     1       9.510   1.722  26.530  0.00  0.00    +0.102 C 
ATOM      4  C17 UNL     1       8.285   1.020  25.907  0.00  0.00    +0.110 C 
ATOM      5  C18 UNL     1       7.790   0.181  27.018  0.00  0.00    +0.221 C 
ATOM      6  O4  UNL     1       6.747  -0.521  26.944  0.00  0.00    -0.275 OA
ENDROOT
BRANCH   1  10
ATOM      7  C3  UNL     1       7.956  -1.835  31.838  0.00  0.00    +0.033 A 
ATOM      8  C4  UNL     1       9.144  -2.059  31.122  0.00  0.00    +0.025 A 
ATOM      9  C5  UNL     1       9.378  -1.396  29.914  0.00  0.00    +0.025 A 
ATOM     10  C6  UNL     1       8.429  -0.499  29.396  0.00  0.00    +0.036 A 
ATOM     11  C19 UNL     1       7.226  -0.304  30.096  0.00  0.00    +0.025 A 
ATOM     12  C20 UNL     1       6.993  -0.967  31.305  0.00  0.00    +0.025 A 
BRANCH   7  16
ATOM     13  C1  UNL     1       8.050  -3.066  35.517  0.00  0.00    +0.109 C 
ATOM     14  C2  UNL     1       8.222  -2.157  34.344  0.00  0.00    +0.214 C 
ATOM     15  O1  UNL     1       8.774  -1.035  34.506  0.00  0.00    -0.276 OA
ATOM     16  N1  UNL     1       7.677  -2.527  33.067  0.00  0.00    -0.286 N 
ATOM     17  H4  UNL     1       6.979  -3.305  33.046  0.00  0.00    +0.155 HD
ENDBRANCH   7  16
ENDBRANCH   1  10
BRANCH   3  18
ATOM     18  C9  UNL     1      10.684   1.799  25.588  0.00  0.00    +0.222 C 
ATOM     19  O2  UNL     1      11.349   2.868  25.504  0.00  0.00    -0.275 OA
ATOM     20  N3  UNL     1      10.988   0.687  24.731  0.00  0.00    -0.285 N 
ATOM     21  H10 UNL     1      10.248  -0.037  24.587  0.00  0.00    +0.155 HD
BRANCH  20  22
ATOM     22  C10 UNL     1      12.202   0.568  23.969  0.00  0.00    +0.034 A 
ATOM     23  C11 UNL     1      12.224   0.798  22.583  0.00  0.00    +0.027 A 
ATOM     24  C12 UNL     1      13.423   0.700  21.869  0.00  0.00    +0.048 A 
ATOM     25  C13 UNL     1      14.619   0.388  22.525  0.00  0.00    +0.130 A 
ATOM     26  C15 UNL     1      14.602   0.177  23.918  0.00  0.00    +0.048 A 
ATOM     27  C16 UNL     1      13.404   0.274  24.631  0.00  0.00    +0.027 A 
BRANCH  25  28
ATOM     28  O3  UNL     1      15.793   0.304  21.758  0.00  0.00    -0.406 OA
BRANCH  28  29
ATOM     29  C14 UNL     1      16.682  -0.810  21.733  0.00  0.00    +0.575 C 
ATOM     30  F1  UNL     1      17.212  -0.969  20.464  0.00  0.00    -0.133 F 
ATOM     31  F2  UNL     1      17.716  -0.580  22.621  0.00  0.00    -0.133 F 
ATOM     32  F3  UNL     1      16.016  -1.961  22.113  0.00  0.00    -0.133 F 
ENDBRANCH  28  29
ENDBRANCH  25  28
ENDBRANCH  20  22
ENDBRANCH   3  18
TORSDOF 6
ENDMDL
MODEL 6
REMARK VINA RESULT:    -6.439     14.990     18.775
REMARK INTER + INTRA:          -9.781
REMARK INTER:                  -8.677
REMARK INTRA:                  -1.104
REMARK UNBOUND:                -1.084
REMARK  Name = /home/qwerty/github/datacon2025hack/step_04_hit_selection/docking/ligands/lig_614.pdb
REMARK  7 active torsions:
REMARK  status: ('A' for Active; 'I' for Inactive)
REMARK    1  A    between atoms: C1_1  and  C2_2
REMARK    2  A    between atoms: N1_4  and  C3_5
REMARK    3  A    between atoms: C6_8  and  N2_9
REMARK    4  A    between atoms: C8_11  and  C9_12
REMARK    5  A    between atoms: N3_14  and  C10_15
REMARK    6  A    between atoms: C13_18  and  O3_19
REMARK    7  A    between atoms: O3_19  and  C14_20
REMARK                            x       y       z     vdW  Elec       q    Type
REMARK                         _______ _______ _______ _____ _____    ______ ____
ROOT
ATOM      1  N2  UNL     1      14.693  13.283  34.829  0.00  0.00    -0.271 N 
ATOM      2  C7  UNL     1      15.513  12.084  34.916  0.00  0.00    +0.127 C 
ATOM      3  C8  UNL     1      16.222  12.163  36.286  0.00  0.00    +0.102 C 
ATOM      4  C17 UNL     1      16.124  13.632  36.748  0.00  0.00    +0.110 C 
ATOM      5  C18 UNL     1      15.087  14.186  35.853  0.00  0.00    +0.221 C 
ATOM      6  O4  UNL     1      14.656  15.366  35.941  0.00  0.00    -0.275 OA
ENDROOT
BRANCH   1  10
ATOM      7  C3  UNL     1      11.672  13.923  31.888  0.00  0.00    +0.033 A 
ATOM      8  C4  UNL     1      11.329  13.815  33.246  0.00  0.00    +0.025 A 
ATOM      9  C5  UNL     1      12.319  13.612  34.211  0.00  0.00    +0.025 A 
ATOM     10  C6  UNL     1      13.670  13.508  33.839  0.00  0.00    +0.036 A 
ATOM     11  C19 UNL     1      14.006  13.580  32.476  0.00  0.00    +0.025 A 
ATOM     12  C20 UNL     1      13.015  13.784  31.512  0.00  0.00    +0.025 A 
BRANCH   7  16
ATOM     13  C1  UNL     1       9.292  13.367  28.874  0.00  0.00    +0.109 C 
ATOM     14  C2  UNL     1      10.163  13.043  30.043  0.00  0.00    +0.214 C 
ATOM     15  O1  UNL     1      10.378  11.836  30.340  0.00  0.00    -0.276 OA
ATOM     16  N1  UNL     1      10.670  14.101  30.871  0.00  0.00    -0.286 N 
ATOM     17  H4  UNL     1      10.231  15.045  30.774  0.00  0.00    +0.155 HD
ENDBRANCH   7  16
ENDBRANCH   1  10
BRANCH   3  18
ATOM     18  C9  UNL     1      17.643  11.662  36.221  0.00  0.00    +0.222 C 
ATOM     19  O2  UNL     1      18.584  12.394  36.636  0.00  0.00    -0.275 OA
ATOM     20  N3  UNL     1      17.927  10.393  35.611  0.00  0.00    -0.285 N 
ATOM     21  H10 UNL     1      17.194   9.970  34.998  0.00  0.00    +0.155 HD
BRANCH  20  22
ATOM     22  C10 UNL     1      19.199   9.727  35.696  0.00  0.00    +0.034 A 
ATOM     23  C11 UNL     1      20.106   9.737  34.623  0.00  0.00    +0.027 A 
ATOM     24  C12 UNL     1      21.346   9.102  34.741  0.00  0.00    +0.048 A 
ATOM     25  C13 UNL     1      21.710   8.463  35.932  0.00  0.00    +0.130 A 
ATOM     26  C15 UNL     1      20.809   8.470  37.015  0.00  0.00    +0.048 A 
ATOM     27  C16 UNL     1      19.569   9.104  36.897  0.00  0.00    +0.027 A 
BRANCH  25  28
ATOM     28  O3  UNL     1      22.968   7.843  35.995  0.00  0.00    -0.406 OA
BRANCH  28  29
ATOM     29  C14 UNL     1      23.191   6.437  36.069  0.00  0.00    +0.575 C 
ATOM     30  F1  UNL     1      24.355   6.102  35.399  0.00  0.00    -0.133 F 
ATOM     31  F2  UNL     1      23.321   6.072  37.395  0.00  0.00    -0.133 F 
ATOM     32  F3  UNL     1      22.120   5.754  35.522  0.00  0.00    -0.133 F 
ENDBRANCH  28  29
ENDBRANCH  25  28
ENDBRANCH  20  22
ENDBRANCH   3  18
TORSDOF 6
ENDMDL
MODEL 7
REMARK VINA RESULT:    -6.352     12.611     14.199
REMARK INTER + INTRA:          -9.665
REMARK INTER:                  -8.482
REMARK INTRA:                  -1.183
REMARK UNBOUND:                -1.084
REMARK  Name = /home/qwerty/github/datacon2025hack/step_04_hit_selection/docking/ligands/lig_614.pdb
REMARK  7 active torsions:
REMARK  status: ('A' for Active; 'I' for Inactive)
REMARK    1  A    between atoms: C1_1  and  C2_2
REMARK    2  A    between atoms: N1_4  and  C3_5
REMARK    3  A    between atoms: C6_8  and  N2_9
REMARK    4  A    between atoms: C8_11  and  C9_12
REMARK    5  A    between atoms: N3_14  and  C10_15
REMARK    6  A    between atoms: C13_18  and  O3_19
REMARK    7  A    between atoms: O3_19  and  C14_20
REMARK                            x       y       z     vdW  Elec       q    Type
REMARK                         _______ _______ _______ _____ _____    ______ ____
ROOT
ATOM      1  N2  UNL     1      18.891  14.771  28.726  0.00  0.00    -0.271 N 
ATOM      2  C7  UNL     1      17.549  15.066  28.247  0.00  0.00    +0.127 C 
ATOM      3  C8  UNL     1      16.660  15.125  29.509  0.00  0.00    +0.102 C 
ATOM      4  C17 UNL     1      17.446  14.421  30.634  0.00  0.00    +0.110 C 
ATOM      5  C18 UNL     1      18.815  14.352  30.082  0.00  0.00    +0.221 C 
ATOM      6  O4  UNL     1      19.797  13.894  30.723  0.00  0.00    -0.275 OA
ENDROOT
BRANCH   1  10
ATOM      7  C3  UNL     1      22.448  15.060  26.391  0.00  0.00    +0.033 A 
ATOM      8  C4  UNL     1      21.598  13.949  26.256  0.00  0.00    +0.025 A 
ATOM      9  C5  UNL     1      20.429  13.856  27.016  0.00  0.00    +0.025 A 
ATOM     10  C6  UNL     1      20.088  14.869  27.928  0.00  0.00    +0.036 A 
ATOM     11  C19 UNL     1      20.958  15.961  28.087  0.00  0.00    +0.025 A 
ATOM     12  C20 UNL     1      22.127  16.053  27.326  0.00  0.00    +0.025 A 
BRANCH   7  16
ATOM     13  C1  UNL     1      25.037  15.608  23.553  0.00  0.00    +0.109 C 
ATOM     14  C2  UNL     1      23.770  15.745  24.333  0.00  0.00    +0.214 C 
ATOM     15  O1  UNL     1      22.827  16.440  23.866  0.00  0.00    -0.276 OA
ATOM     16  N1  UNL     1      23.672  15.165  25.643  0.00  0.00    -0.286 N 
ATOM     17  H4  UNL     1      24.559  14.866  26.108  0.00  0.00    +0.155 HD
ENDBRANCH   7  16
ENDBRANCH   1  10
BRANCH   3  18
ATOM     18  C9  UNL     1      15.299  14.520  29.276  0.00  0.00    +0.222 C 
ATOM     19  O2  UNL     1      15.205  13.317  28.905  0.00  0.00    -0.275 OA
ATOM     20  N3  UNL     1      14.123  15.336  29.394  0.00  0.00    -0.285 N 
ATOM     21  H10 UNL     1      14.244  16.374  29.378  0.00  0.00    +0.155 HD
BRANCH  20  22
ATOM     22  C10 UNL     1      12.782  14.816  29.414  0.00  0.00    +0.034 A 
ATOM     23  C11 UNL     1      12.009  14.731  28.244  0.00  0.00    +0.027 A 
ATOM     24  C12 UNL     1      10.717  14.199  28.287  0.00  0.00    +0.048 A 
ATOM     25  C13 UNL     1      10.181  13.727  29.491  0.00  0.00    +0.130 A 
ATOM     26  C15 UNL     1      10.962  13.792  30.661  0.00  0.00    +0.048 A 
ATOM     27  C16 UNL     1      12.254  14.325  30.618  0.00  0.00    +0.027 A 
BRANCH  25  28
ATOM     28  O3  UNL     1       8.879  13.201  29.475  0.00  0.00    -0.406 OA
BRANCH  28  29
ATOM     29  C14 UNL     1       8.508  11.936  28.931  0.00  0.00    +0.575 C 
ATOM     30  F1  UNL     1       7.512  11.359  29.701  0.00  0.00    -0.133 F 
ATOM     31  F2  UNL     1       8.028  12.122  27.649  0.00  0.00    -0.133 F 
ATOM     32  F3  UNL     1       9.607  11.098  28.878  0.00  0.00    -0.133 F 
ENDBRANCH  28  29
ENDBRANCH  25  28
ENDBRANCH  20  22
ENDBRANCH   3  18
TORSDOF 6
ENDMDL
MODEL 8
REMARK VINA RESULT:    -6.288      6.486     11.409
REMARK INTER + INTRA:          -9.578
REMARK INTER:                  -8.440
REMARK INTRA:                  -1.137
REMARK UNBOUND:                -1.084
REMARK  Name = /home/qwerty/github/datacon2025hack/step_04_hit_selection/docking/ligands/lig_614.pdb
REMARK  7 active torsions:
REMARK  status: ('A' for Active; 'I' for Inactive)
REMARK    1  A    between atoms: C1_1  and  C2_2
REMARK    2  A    between atoms: N1_4  and  C3_5
REMARK    3  A    between atoms: C6_8  and  N2_9
REMARK    4  A    between atoms: C8_11  and  C9_12
REMARK    5  A    between atoms: N3_14  and  C10_15
REMARK    6  A    between atoms: C13_18  and  O3_19
REMARK    7  A    between atoms: O3_19  and  C14_20
REMARK                            x       y       z     vdW  Elec       q    Type
REMARK                         _______ _______ _______ _____ _____    ______ ____
ROOT
ATOM      1  N2  UNL     1      14.597   2.536  21.392  0.00  0.00    -0.271 N 
ATOM      2  C7  UNL     1      15.504   3.007  22.427  0.00  0.00    +0.127 C 
ATOM      3  C8  UNL     1      16.860   2.328  22.133  0.00  0.00    +0.102 C 
ATOM      4  C17 UNL     1      16.563   1.140  21.195  0.00  0.00    +0.110 C 
ATOM      5  C18 UNL     1      15.193   1.431  20.725  0.00  0.00    +0.221 C 
ATOM      6  O4  UNL     1      14.587   0.723  19.878  0.00  0.00    -0.275 OA
ENDROOT
BRANCH   1  10
ATOM      7  C3  UNL     1      10.754   4.189  20.562  0.00  0.00    +0.033 A 
ATOM      8  C4  UNL     1      10.875   3.035  21.356  0.00  0.00    +0.025 A 
ATOM      9  C5  UNL     1      12.134   2.497  21.633  0.00  0.00    +0.025 A 
ATOM     10  C6  UNL     1      13.297   3.096  21.121  0.00  0.00    +0.036 A 
ATOM     11  C19 UNL     1      13.171   4.229  20.298  0.00  0.00    +0.025 A 
ATOM     12  C20 UNL     1      11.911   4.767  20.021  0.00  0.00    +0.025 A 
BRANCH   7  16
ATOM     13  C1  UNL     1       7.321   5.986  20.762  0.00  0.00    +0.109 C 
ATOM     14  C2  UNL     1       8.737   5.640  21.089  0.00  0.00    +0.214 C 
ATOM     15  O1  UNL     1       9.301   6.201  22.067  0.00  0.00    -0.276 OA
ATOM     16  N1  UNL     1       9.469   4.746  20.236  0.00  0.00    -0.286 N 
ATOM     17  H4  UNL     1       9.073   4.546  19.290  0.00  0.00    +0.155 HD
ENDBRANCH   7  16
ENDBRANCH   1  10
BRANCH   3  18
ATOM     18  C9  UNL     1      17.575   1.915  23.396  0.00  0.00    +0.222 C 
ATOM     19  O2  UNL     1      17.525   0.713  23.777  0.00  0.00    -0.275 OA
ATOM     20  N3  UNL     1      18.236   2.904  24.200  0.00  0.00    -0.285 N 
ATOM     21  H10 UNL     1      17.990   3.908  24.042  0.00  0.00    +0.155 HD
BRANCH  20  22
ATOM     22  C10 UNL     1      19.126   2.593  25.286  0.00  0.00    +0.034 A 
ATOM     23  C11 UNL     1      18.643   2.334  26.580  0.00  0.00    +0.027 A 
ATOM     24  C12 UNL     1      19.528   2.010  27.613  0.00  0.00    +0.048 A 
ATOM     25  C13 UNL     1      20.903   1.921  27.372  0.00  0.00    +0.130 A 
ATOM     26  C15 UNL     1      21.387   2.160  26.070  0.00  0.00    +0.048 A 
ATOM     27  C16 UNL     1      20.502   2.485  25.038  0.00  0.00    +0.027 A 
BRANCH  25  28
ATOM     28  O3  UNL     1      21.745   1.591  28.446  0.00  0.00    -0.406 OA
BRANCH  28  29
ATOM     29  C14 UNL     1      22.109   0.267  28.830  0.00  0.00    +0.575 C 
ATOM     30  F1  UNL     1      21.882  -0.613  27.785  0.00  0.00    -0.133 F 
ATOM     31  F2  UNL     1      23.453   0.244  29.146  0.00  0.00    -0.133 F 
ATOM     32  F3  UNL     1      21.383  -0.125  29.941  0.00  0.00    -0.133 F 
ENDBRANCH  28  29
ENDBRANCH  25  28
ENDBRANCH  20  22
ENDBRANCH   3  18
TORSDOF 6
ENDMDL
MODEL 9
REMARK VINA RESULT:    -6.250     15.998     17.359
REMARK INTER + INTRA:          -9.526
REMARK INTER:                  -8.385
REMARK INTRA:                  -1.141
REMARK UNBOUND:                -1.084
REMARK  Name = /home/qwerty/github/datacon2025hack/step_04_hit_selection/docking/ligands/lig_614.pdb
REMARK  7 active torsions:
REMARK  status: ('A' for Active; 'I' for Inactive)
REMARK    1  A    between atoms: C1_1  and  C2_2
REMARK    2  A    between atoms: N1_4  and  C3_5
REMARK    3  A    between atoms: C6_8  and  N2_9
REMARK    4  A    between atoms: C8_11  and  C9_12
REMARK    5  A    between atoms: N3_14  and  C10_15
REMARK    6  A    between atoms: C13_18  and  O3_19
REMARK    7  A    between atoms: O3_19  and  C14_20
REMARK                            x       y       z     vdW  Elec       q    Type
REMARK                         _______ _______ _______ _____ _____    ______ ____
ROOT
ATOM      1  N2  UNL     1      18.852  14.642  31.907  0.00  0.00    -0.271 N 
ATOM      2  C7  UNL     1      20.016  15.451  31.581  0.00  0.00    +0.127 C 
ATOM      3  C8  UNL     1      19.605  16.300  30.358  0.00  0.00    +0.102 C 
ATOM      4  C17 UNL     1      18.361  15.620  29.750  0.00  0.00    +0.110 C 
ATOM      5  C18 UNL     1      17.931  14.704  30.827  0.00  0.00    +0.221 C 
ATOM      6  O4  UNL     1      16.894  13.992  30.757  0.00  0.00    -0.275 OA
ENDROOT
BRANCH   1  10
ATOM      7  C3  UNL     1      18.405  12.414  35.516  0.00  0.00    +0.033 A 
ATOM      8  C4  UNL     1      17.520  13.463  35.215  0.00  0.00    +0.025 A 
ATOM      9  C5  UNL     1      17.662  14.189  34.030  0.00  0.00    +0.025 A 
ATOM     10  C6  UNL     1      18.692  13.885  33.124  0.00  0.00    +0.036 A 
ATOM     11  C19 UNL     1      19.598  12.859  33.445  0.00  0.00    +0.025 A 
ATOM     12  C20 UNL     1      19.455  12.133  34.630  0.00  0.00    +0.025 A 
BRANCH   7  16
ATOM     13  C1  UNL     1      17.200  10.020  38.322  0.00  0.00    +0.109 C 
ATOM     14  C2  UNL     1      17.388  10.580  36.950  0.00  0.00    +0.214 C 
ATOM     15  O1  UNL     1      16.804  10.037  35.974  0.00  0.00    -0.276 OA
ATOM     16  N1  UNL     1      18.300  11.670  36.742  0.00  0.00    -0.286 N 
ATOM     17  H4  UNL     1      18.978  11.887  37.508  0.00  0.00    +0.155 HD
ENDBRANCH   7  16
ENDBRANCH   1  10
BRANCH   3  18
ATOM     18  C9  UNL     1      20.731  16.455  29.367  0.00  0.00    +0.222 C 
ATOM     19  O2  UNL     1      21.767  17.096  29.694  0.00  0.00    -0.275 OA
ATOM     20  N3  UNL     1      20.585  15.946  28.032  0.00  0.00    -0.285 N 
ATOM     21  H10 UNL     1      19.621  15.718  27.698  0.00  0.00    +0.155 HD
BRANCH  20  22
ATOM     22  C10 UNL     1      21.666  15.840  27.090  0.00  0.00    +0.034 A 
ATOM     23  C11 UNL     1      22.537  14.737  27.092  0.00  0.00    +0.027 A 
ATOM     24  C12 UNL     1      23.566  14.647  26.149  0.00  0.00    +0.048 A 
ATOM     25  C13 UNL     1      23.734  15.643  25.180  0.00  0.00    +0.130 A 
ATOM     26  C15 UNL     1      22.849  16.739  25.165  0.00  0.00    +0.048 A 
ATOM     27  C16 UNL     1      21.822  16.829  26.107  0.00  0.00    +0.027 A 
BRANCH  25  28
ATOM     28  O3  UNL     1      24.783  15.500  24.258  0.00  0.00    -0.406 OA
BRANCH  28  29
ATOM     29  C14 UNL     1      24.677  14.877  22.980  0.00  0.00    +0.575 C 
ATOM     30  F1  UNL     1      25.318  13.650  22.992  0.00  0.00    -0.133 F 
ATOM     31  F2  UNL     1      23.341  14.677  22.687  0.00  0.00    -0.133 F 
ATOM     32  F3  UNL     1      25.229  15.688  22.005  0.00  0.00    -0.133 F 
ENDBRANCH  28  29
ENDBRANCH  25  28
ENDBRANCH  20  22
ENDBRANCH   3  18
TORSDOF 6
ENDMDL
