MODEL 1
REMARK VINA RESULT:    -9.207      0.000      0.000
REMARK INTER + INTRA:         -13.130
REMARK INTER:                 -11.898
REMARK INTRA:                  -1.232
REMARK UNBOUND:                -1.232
REMARK  Name = /home/qwerty/github/datacon2025hack/step_04_hit_selection/docking/ligands/lig_765.pdb
REMARK  5 active torsions:
REMARK  status: ('A' for Active; 'I' for Inactive)
REMARK    1  A    between atoms: C1_2  and  C2_3
REMARK    2  A    between atoms: C11_13  and  N2_14
REMARK    3  A    between atoms: N2_14  and  C12_15
REMARK    4  A    between atoms: C16_21  and  C17_22
REMARK    5  A    between atoms: C19_25  and  C20_26
REMARK                            x       y       z     vdW  Elec       q    Type
REMARK                         _______ _______ _______ _____ _____    ______ ____
ROOT
ATOM      1  C12 UNL     1      15.837  13.680  30.431  0.00  0.00    +0.028 A 
ATOM      2  C13 UNL     1      16.696  14.746  30.044  0.00  0.00    +0.025 A 
ATOM      3  C14 UNL     1      16.428  15.502  28.888  0.00  0.00    +0.029 A 
ATOM      4  C15 UNL     1      15.311  15.160  28.134  0.00  0.00    +0.067 A 
ATOM      5  N3  UNL     1      14.864  15.742  27.010  0.00  0.00    -0.276 N 
ATOM      6  N4  UNL     1      13.769  15.104  26.614  0.00  0.00    -0.170 NA
ATOM      7  C16 UNL     1      13.517  14.100  27.490  0.00  0.00    +0.135 A 
ATOM      8  C29 UNL     1      14.488  14.126  28.481  0.00  0.00    +0.032 A 
ATOM      9  C30 UNL     1      14.702  13.382  29.643  0.00  0.00    +0.035 A 
ATOM     10  H16 UNL     1      15.290  16.555  26.513  0.00  0.00    +0.189 HD
ENDROOT
BRANCH   7  11
ATOM     11  C17 UNL     1      12.391  13.163  27.328  0.00  0.00    +0.160 A 
ATOM     12  N5  UNL     1      11.125  13.481  27.708  0.00  0.00    -0.225 NA
ATOM     13  C18 UNL     1      10.413  12.401  27.336  0.00  0.00    +0.100 A 
ATOM     14  C19 UNL     1       9.031  12.192  27.438  0.00  0.00    +0.028 A 
ATOM     15  C26 UNL     1       8.539  10.981  26.896  0.00  0.00    +0.121 A 
ATOM     16  N6  UNL     1       9.388  10.084  26.301  0.00  0.00    -0.260 NA
ATOM     17  C27 UNL     1      10.730  10.313  26.201  0.00  0.00    +0.138 A 
ATOM     18  C28 UNL     1      11.229  11.492  26.738  0.00  0.00    +0.085 A 
ATOM     19  N7  UNL     1      12.483  11.954  26.716  0.00  0.00    -0.335 N 
ATOM     20  H23 UNL     1      13.306  11.513  26.254  0.00  0.00    +0.167 HD
BRANCH  14  21
ATOM     21  C20 UNL     1       8.119  13.191  28.049  0.00  0.00    -0.014 A 
ATOM     22  C21 UNL     1       7.479  14.159  27.255  0.00  0.00    +0.011 A 
ATOM     23  C22 UNL     1       6.617  15.095  27.836  0.00  0.00    +0.039 A 
ATOM     24  C23 UNL     1       6.388  15.075  29.215  0.00  0.00    +0.123 A 
ATOM     25  F1  UNL     1       5.549  15.980  29.777  0.00  0.00    -0.205 F 
ATOM     26  C24 UNL     1       7.022  14.119  30.014  0.00  0.00    +0.039 A 
ATOM     27  C25 UNL     1       7.885  13.182  29.437  0.00  0.00    +0.011 A 
ENDBRANCH  14  21
ENDBRANCH   7  11
BRANCH   1  28
ATOM     28  N2  UNL     1      16.092  12.896  31.612  0.00  0.00    -0.339 N 
ATOM     29  H13 UNL     1      16.180  11.859  31.493  0.00  0.00    +0.146 HD
BRANCH  28  36
ATOM     30  O1  UNL     1      14.792  14.942  36.835  0.00  0.00    -0.270 OA
ATOM     31  C1  UNL     1      14.649  13.873  36.182  0.00  0.00    +0.247 C 
ATOM     32  N1  UNL     1      15.709  13.432  35.314  0.00  0.00    -0.296 N 
ATOM     33  C8  UNL     1      17.103  13.655  35.723  0.00  0.00    +0.108 C 
ATOM     34  C9  UNL     1      18.073  12.904  34.806  0.00  0.00    +0.021 C 
ATOM     35  C10 UNL     1      17.853  13.262  33.326  0.00  0.00    +0.025 C 
ATOM     36  C11 UNL     1      16.363  13.468  32.939  0.00  0.00    +0.088 C 
ATOM     37  C31 UNL     1      15.411  12.867  33.988  0.00  0.00    +0.130 C 
BRANCH  31  38
ATOM     38  C2  UNL     1      13.395  13.099  36.330  0.00  0.00    +0.037 A 
ATOM     39  C3  UNL     1      12.173  13.646  35.899  0.00  0.00    +0.013 A 
ATOM     40  C4  UNL     1      10.985  12.920  36.036  0.00  0.00    +0.001 A 
ATOM     41  C5  UNL     1      11.003  11.648  36.612  0.00  0.00    +0.000 A 
ATOM     42  C6  UNL     1      12.209  11.104  37.059  0.00  0.00    +0.001 A 
ATOM     43  C7  UNL     1      13.399  11.826  36.928  0.00  0.00    +0.013 A 
ENDBRANCH  31  38
ENDBRANCH  28  36
ENDBRANCH   1  28
TORSDOF 5
ENDMDL
MODEL 2
REMARK VINA RESULT:    -9.200     12.395     14.409
REMARK INTER + INTRA:         -13.121
REMARK INTER:                 -12.051
REMARK INTRA:                  -1.070
REMARK UNBOUND:                -1.232
REMARK  Name = /home/qwerty/github/datacon2025hack/step_04_hit_selection/docking/ligands/lig_765.pdb
REMARK  5 active torsions:
REMARK  status: ('A' for Active; 'I' for Inactive)
REMARK    1  A    between atoms: C1_2  and  C2_3
REMARK    2  A    between atoms: C11_13  and  N2_14
REMARK    3  A    between atoms: N2_14  and  C12_15
REMARK    4  A    between atoms: C16_21  and  C17_22
REMARK    5  A    between atoms: C19_25  and  C20_26
REMARK                            x       y       z     vdW  Elec       q    Type
REMARK                         _______ _______ _______ _____ _____    ______ ____
ROOT
ATOM      1  C12 UNL     1      22.022   1.412  28.058  0.00  0.00    +0.028 A 
ATOM      2  C13 UNL     1      22.923   2.450  27.694  0.00  0.00    +0.025 A 
ATOM      3  C14 UNL     1      22.805   3.102  26.452  0.00  0.00    +0.029 A 
ATOM      4  C15 UNL     1      21.794   2.684  25.594  0.00  0.00    +0.067 A 
ATOM      5  N3  UNL     1      21.494   3.163  24.377  0.00  0.00    -0.276 N 
ATOM      6  N4  UNL     1      20.459   2.481  23.901  0.00  0.00    -0.170 NA
ATOM      7  C16 UNL     1      20.097   1.553  24.821  0.00  0.00    +0.135 A 
ATOM      8  C29 UNL     1      20.934   1.674  25.921  0.00  0.00    +0.032 A 
ATOM      9  C30 UNL     1      20.997   1.035  27.161  0.00  0.00    +0.035 A 
ATOM     10  H16 UNL     1      21.980   3.935  23.869  0.00  0.00    +0.189 HD
ENDROOT
BRANCH   7  11
ATOM     11  C17 UNL     1      19.001   0.594  24.598  0.00  0.00    +0.160 A 
ATOM     12  N5  UNL     1      17.960   0.865  23.767  0.00  0.00    -0.225 NA
ATOM     13  C18 UNL     1      17.238  -0.271  23.800  0.00  0.00    +0.100 A 
ATOM     14  C19 UNL     1      16.071  -0.581  23.089  0.00  0.00    +0.028 A 
ATOM     15  C26 UNL     1      15.560  -1.889  23.264  0.00  0.00    +0.121 A 
ATOM     16  N6  UNL     1      16.196  -2.786  24.082  0.00  0.00    -0.260 NA
ATOM     17  C27 UNL     1      17.339  -2.467  24.757  0.00  0.00    +0.138 A 
ATOM     18  C28 UNL     1      17.847  -1.184  24.603  0.00  0.00    +0.085 A 
ATOM     19  N7  UNL     1      18.966  -0.662  25.114  0.00  0.00    -0.335 N 
ATOM     20  H23 UNL     1      19.676  -1.152  25.698  0.00  0.00    +0.167 HD
BRANCH  14  21
ATOM     21  C20 UNL     1      15.415   0.387  22.175  0.00  0.00    -0.014 A 
ATOM     22  C21 UNL     1      14.412   1.254  22.644  0.00  0.00    +0.011 A 
ATOM     23  C22 UNL     1      13.802   2.166  21.777  0.00  0.00    +0.039 A 
ATOM     24  C23 UNL     1      14.185   2.220  20.434  0.00  0.00    +0.123 A 
ATOM     25  F1  UNL     1      13.595   3.108  19.595  0.00  0.00    -0.205 F 
ATOM     26  C24 UNL     1      15.179   1.362  19.956  0.00  0.00    +0.039 A 
ATOM     27  C25 UNL     1      15.791   0.448  20.819  0.00  0.00    +0.011 A 
ENDBRANCH  14  21
ENDBRANCH   7  11
BRANCH   1  28
ATOM     28  N2  UNL     1      22.124   0.734  29.326  0.00  0.00    -0.339 N 
ATOM     29  H13 UNL     1      22.808  -0.055  29.397  0.00  0.00    +0.146 HD
BRANCH  28  36
ATOM     30  O1  UNL     1      21.311   3.821  34.118  0.00  0.00    -0.270 OA
ATOM     31  C1  UNL     1      21.441   4.024  32.880  0.00  0.00    +0.247 C 
ATOM     32  N1  UNL     1      20.843   3.103  31.949  0.00  0.00    -0.296 N 
ATOM     33  C8  UNL     1      19.546   2.496  32.283  0.00  0.00    +0.108 C 
ATOM     34  C9  UNL     1      18.960   1.752  31.079  0.00  0.00    +0.021 C 
ATOM     35  C10 UNL     1      19.943   0.713  30.516  0.00  0.00    +0.025 C 
ATOM     36  C11 UNL     1      21.429   1.163  30.548  0.00  0.00    +0.088 C 
ATOM     37  C31 UNL     1      21.561   2.685  30.736  0.00  0.00    +0.130 C 
BRANCH  31  38
ATOM     38  C2  UNL     1      22.204   5.206  32.419  0.00  0.00    +0.037 A 
ATOM     39  C3  UNL     1      23.495   5.452  32.918  0.00  0.00    +0.013 A 
ATOM     40  C4  UNL     1      24.220   6.568  32.486  0.00  0.00    +0.001 A 
ATOM     41  C5  UNL     1      23.662   7.452  31.560  0.00  0.00    +0.000 A 
ATOM     42  C6  UNL     1      22.373   7.226  31.072  0.00  0.00    +0.001 A 
ATOM     43  C7  UNL     1      21.642   6.114  31.503  0.00  0.00    +0.013 A 
ENDBRANCH  31  38
ENDBRANCH  28  36
ENDBRANCH   1  28
TORSDOF 5
ENDMDL
MODEL 3
REMARK VINA RESULT:    -8.995      8.391     11.774
REMARK INTER + INTRA:         -12.857
REMARK INTER:                  -9.914
REMARK INTRA:                  -2.943
REMARK UNBOUND:                -1.232
REMARK  Name = /home/qwerty/github/datacon2025hack/step_04_hit_selection/docking/ligands/lig_765.pdb
REMARK  5 active torsions:
REMARK  status: ('A' for Active; 'I' for Inactive)
REMARK    1  A    between atoms: C1_2  and  C2_3
REMARK    2  A    between atoms: C11_13  and  N2_14
REMARK    3  A    between atoms: N2_14  and  C12_15
REMARK    4  A    between atoms: C16_21  and  C17_22
REMARK    5  A    between atoms: C19_25  and  C20_26
REMARK                            x       y       z     vdW  Elec       q    Type
REMARK                         _______ _______ _______ _____ _____    ______ ____
ROOT
ATOM      1  C12 UNL     1      22.810   9.421  30.897  0.00  0.00    +0.028 A 
ATOM      2  C13 UNL     1      24.047  10.094  31.096  0.00  0.00    +0.025 A 
ATOM      3  C14 UNL     1      25.035   9.549  31.938  0.00  0.00    +0.029 A 
ATOM      4  C15 UNL     1      24.752   8.346  32.575  0.00  0.00    +0.067 A 
ATOM      5  N3  UNL     1      25.539   7.647  33.407  0.00  0.00    -0.276 N 
ATOM      6  N4  UNL     1      24.883   6.560  33.792  0.00  0.00    -0.170 NA
ATOM      7  C16 UNL     1      23.660   6.566  33.206  0.00  0.00    +0.135 A 
ATOM      8  C29 UNL     1      23.559   7.699  32.411  0.00  0.00    +0.032 A 
ATOM      9  C30 UNL     1      22.574   8.191  31.551  0.00  0.00    +0.035 A 
ATOM     10  H16 UNL     1      26.505   7.899  33.716  0.00  0.00    +0.189 HD
ENDROOT
BRANCH   7  11
ATOM     11  C17 UNL     1      22.653   5.519  33.449  0.00  0.00    +0.160 A 
ATOM     12  N5  UNL     1      21.488   5.774  34.103  0.00  0.00    -0.225 NA
ATOM     13  C18 UNL     1      20.845   4.592  34.054  0.00  0.00    +0.100 A 
ATOM     14  C19 UNL     1      19.566   4.278  34.532  0.00  0.00    +0.028 A 
ATOM     15  C26 UNL     1      19.108   2.962  34.279  0.00  0.00    +0.121 A 
ATOM     16  N6  UNL     1      19.890   2.069  33.594  0.00  0.00    -0.260 NA
ATOM     17  C27 UNL     1      21.129   2.399  33.126  0.00  0.00    +0.138 A 
ATOM     18  C28 UNL     1      21.596   3.683  33.376  0.00  0.00    +0.085 A 
ATOM     19  N7  UNL     1      22.740   4.248  32.979  0.00  0.00    -0.335 N 
ATOM     20  H23 UNL     1      23.474   3.820  32.375  0.00  0.00    +0.167 HD
BRANCH  14  21
ATOM     21  C20 UNL     1      18.714   5.268  35.236  0.00  0.00    -0.014 A 
ATOM     22  C21 UNL     1      18.700   5.335  36.641  0.00  0.00    +0.011 A 
ATOM     23  C22 UNL     1      17.898   6.273  37.297  0.00  0.00    +0.039 A 
ATOM     24  C23 UNL     1      17.100   7.152  36.559  0.00  0.00    +0.123 A 
ATOM     25  F1  UNL     1      16.325   8.065  37.197  0.00  0.00    -0.205 F 
ATOM     26  C24 UNL     1      17.103   7.092  35.163  0.00  0.00    +0.039 A 
ATOM     27  C25 UNL     1      17.903   6.155  34.503  0.00  0.00    +0.011 A 
ENDBRANCH  14  21
ENDBRANCH   7  11
BRANCH   1  28
ATOM     28  N2  UNL     1      21.787   9.961  30.037  0.00  0.00    -0.339 N 
ATOM     29  H13 UNL     1      21.863   9.759  29.012  0.00  0.00    +0.146 HD
BRANCH  28  36
ATOM     30  O1  UNL     1      17.269  10.899  33.480  0.00  0.00    -0.270 OA
ATOM     31  C1  UNL     1      18.523  10.819  33.577  0.00  0.00    +0.247 C 
ATOM     32  N1  UNL     1      19.346  11.363  32.529  0.00  0.00    -0.296 N 
ATOM     33  C8  UNL     1      18.915  12.596  31.854  0.00  0.00    +0.108 C 
ATOM     34  C9  UNL     1      20.026  13.150  30.957  0.00  0.00    +0.021 C 
ATOM     35  C10 UNL     1      20.526  12.100  29.952  0.00  0.00    +0.025 C 
ATOM     36  C11 UNL     1      20.586  10.656  30.521  0.00  0.00    +0.088 C 
ATOM     37  C31 UNL     1      20.541  10.645  32.059  0.00  0.00    +0.130 C 
BRANCH  31  38
ATOM     38  C2  UNL     1      19.115  10.169  34.769  0.00  0.00    +0.037 A 
ATOM     39  C3  UNL     1      18.703  10.549  36.058  0.00  0.00    +0.013 A 
ATOM     40  C4  UNL     1      19.258   9.940  37.188  0.00  0.00    +0.001 A 
ATOM     41  C5  UNL     1      20.236   8.953  37.043  0.00  0.00    +0.000 A 
ATOM     42  C6  UNL     1      20.665   8.581  35.766  0.00  0.00    +0.001 A 
ATOM     43  C7  UNL     1      20.115   9.190  34.634  0.00  0.00    +0.013 A 
ENDBRANCH  31  38
ENDBRANCH  28  36
ENDBRANCH   1  28
TORSDOF 5
ENDMDL
MODEL 4
REMARK VINA RESULT:    -8.901      4.821      8.389
REMARK INTER + INTRA:         -12.735
REMARK INTER:                 -11.680
REMARK INTRA:                  -1.055
REMARK UNBOUND:                -1.232
REMARK  Name = /home/qwerty/github/datacon2025hack/step_04_hit_selection/docking/ligands/lig_765.pdb
REMARK  5 active torsions:
REMARK  status: ('A' for Active; 'I' for Inactive)
REMARK    1  A    between atoms: C1_2  and  C2_3
REMARK    2  A    between atoms: C11_13  and  N2_14
REMARK    3  A    between atoms: N2_14  and  C12_15
REMARK    4  A    between atoms: C16_21  and  C17_22
REMARK    5  A    between atoms: C19_25  and  C20_26
REMARK                            x       y       z     vdW  Elec       q    Type
REMARK                         _______ _______ _______ _____ _____    ______ ____
ROOT
ATOM      1  C12 UNL     1       8.111  11.941  28.504  0.00  0.00    +0.028 A 
ATOM      2  C13 UNL     1       7.545  11.313  29.648  0.00  0.00    +0.025 A 
ATOM      3  C14 UNL     1       7.164   9.959  29.610  0.00  0.00    +0.029 A 
ATOM      4  C15 UNL     1       7.343   9.268  28.417  0.00  0.00    +0.067 A 
ATOM      5  N3  UNL     1       7.060   7.982  28.157  0.00  0.00    -0.276 N 
ATOM      6  N4  UNL     1       7.383   7.729  26.894  0.00  0.00    -0.170 NA
ATOM      7  C16 UNL     1       7.870   8.865  26.339  0.00  0.00    +0.135 A 
ATOM      8  C29 UNL     1       7.865   9.864  27.303  0.00  0.00    +0.032 A 
ATOM      9  C30 UNL     1       8.291  11.193  27.319  0.00  0.00    +0.035 A 
ATOM     10  H16 UNL     1       6.653   7.284  28.817  0.00  0.00    +0.189 HD
ENDROOT
BRANCH   7  11
ATOM     11  C17 UNL     1       8.289   8.949  24.929  0.00  0.00    +0.160 A 
ATOM     12  N5  UNL     1       8.654   7.850  24.216  0.00  0.00    -0.225 NA
ATOM     13  C18 UNL     1       8.894   8.347  22.988  0.00  0.00    +0.100 A 
ATOM     14  C19 UNL     1       9.260   7.656  21.826  0.00  0.00    +0.028 A 
ATOM     15  C26 UNL     1       9.378   8.431  20.647  0.00  0.00    +0.121 A 
ATOM     16  N6  UNL     1       9.133   9.779  20.668  0.00  0.00    -0.260 NA
ATOM     17  C27 UNL     1       8.766  10.431  21.809  0.00  0.00    +0.138 A 
ATOM     18  C28 UNL     1       8.656   9.686  22.976  0.00  0.00    +0.085 A 
ATOM     19  N7  UNL     1       8.267  10.088  24.190  0.00  0.00    -0.335 N 
ATOM     20  H23 UNL     1       7.942  11.041  24.460  0.00  0.00    +0.167 HD
BRANCH  14  21
ATOM     21  C20 UNL     1       9.482   6.189  21.810  0.00  0.00    -0.014 A 
ATOM     22  C21 UNL     1      10.783   5.658  21.859  0.00  0.00    +0.011 A 
ATOM     23  C22 UNL     1      10.984   4.274  21.847  0.00  0.00    +0.039 A 
ATOM     24  C23 UNL     1       9.890   3.407  21.784  0.00  0.00    +0.123 A 
ATOM     25  F1  UNL     1      10.086   2.065  21.777  0.00  0.00    -0.205 F 
ATOM     26  C24 UNL     1       8.592   3.924  21.732  0.00  0.00    +0.039 A 
ATOM     27  C25 UNL     1       8.387   5.307  21.742  0.00  0.00    +0.011 A 
ENDBRANCH  14  21
ENDBRANCH   7  11
BRANCH   1  28
ATOM     28  N2  UNL     1       8.511  13.325  28.523  0.00  0.00    -0.339 N 
ATOM     29  H13 UNL     1       7.753  14.047  28.465  0.00  0.00    +0.146 HD
BRANCH  28  36
ATOM     30  O1  UNL     1      12.963  15.327  31.576  0.00  0.00    -0.270 OA
ATOM     31  C1  UNL     1      12.194  14.329  31.581  0.00  0.00    +0.247 C 
ATOM     32  N1  UNL     1      11.781  13.752  30.328  0.00  0.00    -0.296 N 
ATOM     33  C8  UNL     1      12.737  13.715  29.212  0.00  0.00    +0.108 C 
ATOM     34  C9  UNL     1      12.210  12.851  28.063  0.00  0.00    +0.021 C 
ATOM     35  C10 UNL     1      10.817  13.308  27.599  0.00  0.00    +0.025 C 
ATOM     36  C11 UNL     1       9.889  13.782  28.750  0.00  0.00    +0.088 C 
ATOM     37  C31 UNL     1      10.394  13.307  30.124  0.00  0.00    +0.130 C 
BRANCH  31  38
ATOM     38  C2  UNL     1      11.739  13.774  32.876  0.00  0.00    +0.037 A 
ATOM     39  C3  UNL     1      12.089  12.464  33.246  0.00  0.00    +0.013 A 
ATOM     40  C4  UNL     1      11.662  11.934  34.468  0.00  0.00    +0.001 A 
ATOM     41  C5  UNL     1      10.875  12.703  35.328  0.00  0.00    +0.000 A 
ATOM     42  C6  UNL     1      10.507  14.001  34.963  0.00  0.00    +0.001 A 
ATOM     43  C7  UNL     1      10.928  14.533  33.740  0.00  0.00    +0.013 A 
ENDBRANCH  31  38
ENDBRANCH  28  36
ENDBRANCH   1  28
TORSDOF 5
ENDMDL
MODEL 5
REMARK VINA RESULT:    -8.894     11.623     15.795
REMARK INTER + INTRA:         -12.725
REMARK INTER:                 -11.527
REMARK INTRA:                  -1.199
REMARK UNBOUND:                -1.232
REMARK  Name = /home/qwerty/github/datacon2025hack/step_04_hit_selection/docking/ligands/lig_765.pdb
REMARK  5 active torsions:
REMARK  status: ('A' for Active; 'I' for Inactive)
REMARK    1  A    between atoms: C1_2  and  C2_3
REMARK    2  A    between atoms: C11_13  and  N2_14
REMARK    3  A    between atoms: N2_14  and  C12_15
REMARK    4  A    between atoms: C16_21  and  C17_22
REMARK    5  A    between atoms: C19_25  and  C20_26
REMARK                            x       y       z     vdW  Elec       q    Type
REMARK                         _______ _______ _______ _____ _____    ______ ____
ROOT
ATOM      1  C12 UNL     1      18.578   1.678  34.600  0.00  0.00    +0.028 A 
ATOM      2  C13 UNL     1      17.655   0.638  34.900  0.00  0.00    +0.025 A 
ATOM      3  C14 UNL     1      16.626   0.839  35.838  0.00  0.00    +0.029 A 
ATOM      4  C15 UNL     1      16.556   2.076  36.469  0.00  0.00    +0.067 A 
ATOM      5  N3  UNL     1      15.664   2.488  37.383  0.00  0.00    -0.276 N 
ATOM      6  N4  UNL     1      15.960   3.736  37.726  0.00  0.00    -0.170 NA
ATOM      7  C16 UNL     1      17.056   4.125  37.030  0.00  0.00    +0.135 A 
ATOM      8  C29 UNL     1      17.449   3.078  36.208  0.00  0.00    +0.032 A 
ATOM      9  C30 UNL     1      18.456   2.926  35.252  0.00  0.00    +0.035 A 
ATOM     10  H16 UNL     1      14.868   1.938  37.775  0.00  0.00    +0.189 HD
ENDROOT
BRANCH   7  11
ATOM     11  C17 UNL     1      17.681   5.448  37.198  0.00  0.00    +0.160 A 
ATOM     12  N5  UNL     1      18.934   5.718  36.744  0.00  0.00    -0.225 NA
ATOM     13  C18 UNL     1      19.091   7.023  37.037  0.00  0.00    +0.100 A 
ATOM     14  C19 UNL     1      20.183   7.853  36.752  0.00  0.00    +0.028 A 
ATOM     15  C26 UNL     1      20.046   9.214  37.115  0.00  0.00    +0.121 A 
ATOM     16  N6  UNL     1      18.896   9.670  37.704  0.00  0.00    -0.260 NA
ATOM     17  C27 UNL     1      17.839   8.846  37.963  0.00  0.00    +0.138 A 
ATOM     18  C28 UNL     1      17.962   7.505  37.621  0.00  0.00    +0.085 A 
ATOM     19  N7  UNL     1      17.055   6.529  37.728  0.00  0.00    -0.335 N 
ATOM     20  H23 UNL     1      16.072   6.621  38.062  0.00  0.00    +0.167 HD
BRANCH  14  21
ATOM     21  C20 UNL     1      21.407   7.355  36.076  0.00  0.00    -0.014 A 
ATOM     22  C21 UNL     1      22.468   6.811  36.821  0.00  0.00    +0.011 A 
ATOM     23  C22 UNL     1      23.617   6.340  36.177  0.00  0.00    +0.039 A 
ATOM     24  C23 UNL     1      23.718   6.409  34.785  0.00  0.00    +0.123 A 
ATOM     25  F1  UNL     1      24.831   5.947  34.161  0.00  0.00    -0.205 F 
ATOM     26  C24 UNL     1      22.670   6.950  34.035  0.00  0.00    +0.039 A 
ATOM     27  C25 UNL     1      21.521   7.423  34.675  0.00  0.00    +0.011 A 
ENDBRANCH  14  21
ENDBRANCH   7  11
BRANCH   1  28
ATOM     28  N2  UNL     1      19.637   1.493  33.640  0.00  0.00    -0.339 N 
ATOM     29  H13 UNL     1      20.372   0.782  33.864  0.00  0.00    +0.146 HD
BRANCH  28  36
ATOM     30  O1  UNL     1      21.947   3.058  28.604  0.00  0.00    -0.270 OA
ATOM     31  C1  UNL     1      21.677   1.994  29.223  0.00  0.00    +0.247 C 
ATOM     32  N1  UNL     1      20.466   1.919  29.998  0.00  0.00    -0.296 N 
ATOM     33  C8  UNL     1      19.261   2.598  29.501  0.00  0.00    +0.108 C 
ATOM     34  C9  UNL     1      18.028   2.201  30.318  0.00  0.00    +0.021 C 
ATOM     35  C10 UNL     1      18.236   2.446  31.822  0.00  0.00    +0.025 C 
ATOM     36  C11 UNL     1      19.675   2.140  32.320  0.00  0.00    +0.088 C 
ATOM     37  C31 UNL     1      20.455   1.270  31.318  0.00  0.00    +0.130 C 
BRANCH  31  38
ATOM     38  C2  UNL     1      22.612   0.849  29.134  0.00  0.00    +0.037 A 
ATOM     39  C3  UNL     1      23.988   1.043  29.355  0.00  0.00    +0.013 A 
ATOM     40  C4  UNL     1      24.876  -0.034  29.273  0.00  0.00    +0.001 A 
ATOM     41  C5  UNL     1      24.404  -1.311  28.960  0.00  0.00    +0.000 A 
ATOM     42  C6  UNL     1      23.042  -1.510  28.720  0.00  0.00    +0.001 A 
ATOM     43  C7  UNL     1      22.149  -0.436  28.799  0.00  0.00    +0.013 A 
ENDBRANCH  31  38
ENDBRANCH  28  36
ENDBRANCH   1  28
TORSDOF 5
ENDMDL
MODEL 6
REMARK VINA RESULT:    -8.872      9.353     12.952
REMARK INTER + INTRA:         -12.697
REMARK INTER:                 -11.392
REMARK INTRA:                  -1.305
REMARK UNBOUND:                -1.232
REMARK  Name = /home/qwerty/github/datacon2025hack/step_04_hit_selection/docking/ligands/lig_765.pdb
REMARK  5 active torsions:
REMARK  status: ('A' for Active; 'I' for Inactive)
REMARK    1  A    between atoms: C1_2  and  C2_3
REMARK    2  A    between atoms: C11_13  and  N2_14
REMARK    3  A    between atoms: N2_14  and  C12_15
REMARK    4  A    between atoms: C16_21  and  C17_22
REMARK    5  A    between atoms: C19_25  and  C20_26
REMARK                            x       y       z     vdW  Elec       q    Type
REMARK                         _______ _______ _______ _____ _____    ______ ____
ROOT
ATOM      1  C12 UNL     1      23.008   9.233  30.944  0.00  0.00    +0.028 A 
ATOM      2  C13 UNL     1      24.138   9.954  31.420  0.00  0.00    +0.025 A 
ATOM      3  C14 UNL     1      25.049   9.358  32.311  0.00  0.00    +0.029 A 
ATOM      4  C15 UNL     1      24.797   8.053  32.719  0.00  0.00    +0.067 A 
ATOM      5  N3  UNL     1      25.527   7.292  33.549  0.00  0.00    -0.276 N 
ATOM      6  N4  UNL     1      24.930   6.112  33.671  0.00  0.00    -0.170 NA
ATOM      7  C16 UNL     1      23.803   6.121  32.917  0.00  0.00    +0.135 A 
ATOM      8  C29 UNL     1      23.705   7.354  32.288  0.00  0.00    +0.032 A 
ATOM      9  C30 UNL     1      22.803   7.901  31.372  0.00  0.00    +0.035 A 
ATOM     10  H16 UNL     1      26.414   7.561  34.030  0.00  0.00    +0.189 HD
ENDROOT
BRANCH   7  11
ATOM     11  C17 UNL     1      22.875   4.978  32.855  0.00  0.00    +0.160 A 
ATOM     12  N5  UNL     1      22.575   4.354  31.684  0.00  0.00    -0.225 NA
ATOM     13  C18 UNL     1      21.764   3.352  32.072  0.00  0.00    +0.100 A 
ATOM     14  C19 UNL     1      21.183   2.349  31.284  0.00  0.00    +0.028 A 
ATOM     15  C26 UNL     1      20.426   1.372  31.972  0.00  0.00    +0.121 A 
ATOM     16  N6  UNL     1      20.291   1.422  33.335  0.00  0.00    -0.260 NA
ATOM     17  C27 UNL     1      20.875   2.402  34.086  0.00  0.00    +0.138 A 
ATOM     18  C28 UNL     1      21.613   3.374  33.423  0.00  0.00    +0.085 A 
ATOM     19  N7  UNL     1      22.311   4.390  33.940  0.00  0.00    -0.335 N 
ATOM     20  H23 UNL     1      22.447   4.606  34.950  0.00  0.00    +0.167 HD
BRANCH  14  21
ATOM     21  C20 UNL     1      21.372   2.283  29.813  0.00  0.00    -0.014 A 
ATOM     22  C21 UNL     1      21.227   3.434  29.018  0.00  0.00    +0.011 A 
ATOM     23  C22 UNL     1      21.410   3.365  27.633  0.00  0.00    +0.039 A 
ATOM     24  C23 UNL     1      21.737   2.148  27.029  0.00  0.00    +0.123 A 
ATOM     25  F1  UNL     1      21.918   2.083  25.686  0.00  0.00    -0.205 F 
ATOM     26  C24 UNL     1      21.881   0.997  27.809  0.00  0.00    +0.039 A 
ATOM     27  C25 UNL     1      21.698   1.062  29.194  0.00  0.00    +0.011 A 
ENDBRANCH  14  21
ENDBRANCH   7  11
BRANCH   1  28
ATOM     28  N2  UNL     1      22.065   9.824  30.030  0.00  0.00    -0.339 N 
ATOM     29  H13 UNL     1      22.449  10.267  29.162  0.00  0.00    +0.146 HD
BRANCH  28  36
ATOM     30  O1  UNL     1      17.060   9.477  32.854  0.00  0.00    -0.270 OA
ATOM     31  C1  UNL     1      18.038  10.268  32.769  0.00  0.00    +0.247 C 
ATOM     32  N1  UNL     1      18.663  10.479  31.490  0.00  0.00    -0.296 N 
ATOM     33  C8  UNL     1      17.825  10.496  30.283  0.00  0.00    +0.108 C 
ATOM     34  C9  UNL     1      18.621  10.977  29.066  0.00  0.00    +0.021 C 
ATOM     35  C10 UNL     1      19.899  10.149  28.856  0.00  0.00    +0.025 C 
ATOM     36  C11 UNL     1      20.605   9.728  30.173  0.00  0.00    +0.088 C 
ATOM     37  C31 UNL     1      20.127  10.567  31.372  0.00  0.00    +0.130 C 
BRANCH  31  38
ATOM     38  C2  UNL     1      18.515  10.960  33.989  0.00  0.00    +0.037 A 
ATOM     39  C3  UNL     1      19.106  10.226  35.032  0.00  0.00    +0.013 A 
ATOM     40  C4  UNL     1      19.558  10.874  36.186  0.00  0.00    +0.001 A 
ATOM     41  C5  UNL     1      19.417  12.258  36.315  0.00  0.00    +0.000 A 
ATOM     42  C6  UNL     1      18.814  12.994  35.291  0.00  0.00    +0.001 A 
ATOM     43  C7  UNL     1      18.357  12.350  34.137  0.00  0.00    +0.013 A 
ENDBRANCH  31  38
ENDBRANCH  28  36
ENDBRANCH   1  28
TORSDOF 5
ENDMDL
MODEL 7
REMARK VINA RESULT:    -8.811      8.715     11.530
REMARK INTER + INTRA:         -12.619
REMARK INTER:                  -9.397
REMARK INTRA:                  -3.222
REMARK UNBOUND:                -1.232
REMARK  Name = /home/qwerty/github/datacon2025hack/step_04_hit_selection/docking/ligands/lig_765.pdb
REMARK  5 active torsions:
REMARK  status: ('A' for Active; 'I' for Inactive)
REMARK    1  A    between atoms: C1_2  and  C2_3
REMARK    2  A    between atoms: C11_13  and  N2_14
REMARK    3  A    between atoms: N2_14  and  C12_15
REMARK    4  A    between atoms: C16_21  and  C17_22
REMARK    5  A    between atoms: C19_25  and  C20_26
REMARK                            x       y       z     vdW  Elec       q    Type
REMARK                         _______ _______ _______ _____ _____    ______ ____
ROOT
ATOM      1  C12 UNL     1      11.784  10.215  21.474  0.00  0.00    +0.028 A 
ATOM      2  C13 UNL     1      11.326  10.620  20.190  0.00  0.00    +0.025 A 
ATOM      3  C14 UNL     1       9.956  10.835  19.949  0.00  0.00    +0.029 A 
ATOM      4  C15 UNL     1       9.072  10.623  21.001  0.00  0.00    +0.067 A 
ATOM      5  N3  UNL     1       7.739  10.772  21.001  0.00  0.00    -0.276 N 
ATOM      6  N4  UNL     1       7.282  10.463  22.209  0.00  0.00    -0.170 NA
ATOM      7  C16 UNL     1       8.333  10.106  22.987  0.00  0.00    +0.135 A 
ATOM      8  C29 UNL     1       9.494  10.213  22.234  0.00  0.00    +0.032 A 
ATOM      9  C30 UNL     1      10.849  10.029  22.518  0.00  0.00    +0.035 A 
ATOM     10  H16 UNL     1       7.141  11.075  20.200  0.00  0.00    +0.189 HD
ENDROOT
BRANCH   7  11
ATOM     11  C17 UNL     1       8.178   9.663  24.384  0.00  0.00    +0.160 A 
ATOM     12  N5  UNL     1       8.408   8.378  24.764  0.00  0.00    -0.225 NA
ATOM     13  C18 UNL     1       8.220   8.415  26.096  0.00  0.00    +0.100 A 
ATOM     14  C19 UNL     1       8.370   7.377  27.026  0.00  0.00    +0.028 A 
ATOM     15  C26 UNL     1       8.176   7.719  28.385  0.00  0.00    +0.121 A 
ATOM     16  N6  UNL     1       7.866   9.005  28.746  0.00  0.00    -0.260 NA
ATOM     17  C27 UNL     1       7.736  10.004  27.825  0.00  0.00    +0.138 A 
ATOM     18  C28 UNL     1       7.914   9.681  26.486  0.00  0.00    +0.085 A 
ATOM     19  N7  UNL     1       7.887  10.489  25.422  0.00  0.00    -0.335 N 
ATOM     20  H23 UNL     1       7.759  11.523  25.423  0.00  0.00    +0.167 HD
BRANCH  14  21
ATOM     21  C20 UNL     1       8.746   5.998  26.624  0.00  0.00    -0.014 A 
ATOM     22  C21 UNL     1       7.790   5.121  26.082  0.00  0.00    +0.011 A 
ATOM     23  C22 UNL     1       8.152   3.825  25.703  0.00  0.00    +0.039 A 
ATOM     24  C23 UNL     1       9.472   3.391  25.862  0.00  0.00    +0.123 A 
ATOM     25  F1  UNL     1       9.823   2.135  25.490  0.00  0.00    -0.205 F 
ATOM     26  C24 UNL     1      10.429   4.253  26.403  0.00  0.00    +0.039 A 
ATOM     27  C25 UNL     1      10.071   5.549  26.785  0.00  0.00    +0.011 A 
ENDBRANCH  14  21
ENDBRANCH   7  11
BRANCH   1  28
ATOM     28  N2  UNL     1      13.182   9.992  21.742  0.00  0.00    -0.339 N 
ATOM     29  H13 UNL     1      13.831  10.804  21.619  0.00  0.00    +0.146 HD
BRANCH  28  36
ATOM     30  O1  UNL     1      12.992   4.845  24.316  0.00  0.00    -0.270 OA
ATOM     31  C1  UNL     1      12.526   5.396  23.282  0.00  0.00    +0.247 C 
ATOM     32  N1  UNL     1      13.348   6.324  22.548  0.00  0.00    -0.296 N 
ATOM     33  C8  UNL     1      14.791   6.066  22.442  0.00  0.00    +0.108 C 
ATOM     34  C9  UNL     1      15.446   7.009  21.429  0.00  0.00    +0.021 C 
ATOM     35  C10 UNL     1      15.157   8.484  21.752  0.00  0.00    +0.025 C 
ATOM     36  C11 UNL     1      13.726   8.745  22.298  0.00  0.00    +0.088 C 
ATOM     37  C31 UNL     1      12.779   7.567  22.006  0.00  0.00    +0.130 C 
BRANCH  31  38
ATOM     38  C2  UNL     1      11.148   5.072  22.850  0.00  0.00    +0.037 A 
ATOM     39  C3  UNL     1      10.122   6.025  22.986  0.00  0.00    +0.013 A 
ATOM     40  C4  UNL     1       8.818   5.725  22.579  0.00  0.00    +0.001 A 
ATOM     41  C5  UNL     1       8.522   4.469  22.043  0.00  0.00    +0.000 A 
ATOM     42  C6  UNL     1       9.530   3.510  21.920  0.00  0.00    +0.001 A 
ATOM     43  C7  UNL     1      10.835   3.804  22.328  0.00  0.00    +0.013 A 
ENDBRANCH  31  38
ENDBRANCH  28  36
ENDBRANCH   1  28
TORSDOF 5
ENDMDL
MODEL 8
REMARK VINA RESULT:    -8.773      9.629     13.782
REMARK INTER + INTRA:         -12.570
REMARK INTER:                 -11.937
REMARK INTRA:                  -0.633
REMARK UNBOUND:                -1.232
REMARK  Name = /home/qwerty/github/datacon2025hack/step_04_hit_selection/docking/ligands/lig_765.pdb
REMARK  5 active torsions:
REMARK  status: ('A' for Active; 'I' for Inactive)
REMARK    1  A    between atoms: C1_2  and  C2_3
REMARK    2  A    between atoms: C11_13  and  N2_14
REMARK    3  A    between atoms: N2_14  and  C12_15
REMARK    4  A    between atoms: C16_21  and  C17_22
REMARK    5  A    between atoms: C19_25  and  C20_26
REMARK                            x       y       z     vdW  Elec       q    Type
REMARK                         _______ _______ _______ _____ _____    ______ ____
ROOT
ATOM      1  C12 UNL     1      23.108   9.336  31.013  0.00  0.00    +0.028 A 
ATOM      2  C13 UNL     1      24.228  10.017  31.567  0.00  0.00    +0.025 A 
ATOM      3  C14 UNL     1      25.109   9.358  32.444  0.00  0.00    +0.029 A 
ATOM      4  C15 UNL     1      24.837   8.031  32.760  0.00  0.00    +0.067 A 
ATOM      5  N3  UNL     1      25.538   7.213  33.560  0.00  0.00    -0.276 N 
ATOM      6  N4  UNL     1      24.931   6.032  33.588  0.00  0.00    -0.170 NA
ATOM      7  C16 UNL     1      23.827   6.098  32.804  0.00  0.00    +0.135 A 
ATOM      8  C29 UNL     1      23.754   7.370  32.253  0.00  0.00    +0.032 A 
ATOM      9  C30 UNL     1      22.884   7.982  31.348  0.00  0.00    +0.035 A 
ATOM     10  H16 UNL     1      26.412   7.444  34.083  0.00  0.00    +0.189 HD
ENDROOT
BRANCH   7  11
ATOM     11  C17 UNL     1      22.895   4.969  32.641  0.00  0.00    +0.160 A 
ATOM     12  N5  UNL     1      22.543   4.493  31.417  0.00  0.00    -0.225 NA
ATOM     13  C18 UNL     1      21.748   3.448  31.711  0.00  0.00    +0.100 A 
ATOM     14  C19 UNL     1      21.131   2.548  30.832  0.00  0.00    +0.028 A 
ATOM     15  C26 UNL     1      20.402   1.491  31.426  0.00  0.00    +0.121 A 
ATOM     16  N6  UNL     1      20.327   1.372  32.789  0.00  0.00    -0.260 NA
ATOM     17  C27 UNL     1      20.945   2.253  33.629  0.00  0.00    +0.138 A 
ATOM     18  C28 UNL     1      21.656   3.302  33.060  0.00  0.00    +0.085 A 
ATOM     19  N7  UNL     1      22.377   4.249  33.669  0.00  0.00    -0.335 N 
ATOM     20  H23 UNL     1      22.558   4.339  34.691  0.00  0.00    +0.167 HD
BRANCH  14  21
ATOM     21  C20 UNL     1      21.256   2.666  29.357  0.00  0.00    -0.014 A 
ATOM     22  C21 UNL     1      20.363   3.466  28.622  0.00  0.00    +0.011 A 
ATOM     23  C22 UNL     1      20.489   3.574  27.234  0.00  0.00    +0.039 A 
ATOM     24  C23 UNL     1      21.505   2.885  26.566  0.00  0.00    +0.123 A 
ATOM     25  F1  UNL     1      21.628   2.994  25.219  0.00  0.00    -0.205 F 
ATOM     26  C24 UNL     1      22.395   2.084  27.286  0.00  0.00    +0.039 A 
ATOM     27  C25 UNL     1      22.272   1.972  28.674  0.00  0.00    +0.011 A 
ENDBRANCH  14  21
ENDBRANCH   7  11
BRANCH   1  28
ATOM     28  N2  UNL     1      22.196   9.992  30.111  0.00  0.00    -0.339 N 
ATOM     29  H13 UNL     1      21.986   9.512  29.205  0.00  0.00    +0.146 HD
BRANCH  28  36
ATOM     30  O1  UNL     1      21.113  15.647  30.177  0.00  0.00    -0.270 OA
ATOM     31  C1  UNL     1      21.268  14.730  29.327  0.00  0.00    +0.247 C 
ATOM     32  N1  UNL     1      20.738  13.419  29.600  0.00  0.00    -0.296 N 
ATOM     33  C8  UNL     1      19.461  13.304  30.319  0.00  0.00    +0.108 C 
ATOM     34  C9  UNL     1      18.942  11.863  30.294  0.00  0.00    +0.021 C 
ATOM     35  C10 UNL     1      19.987  10.871  30.832  0.00  0.00    +0.025 C 
ATOM     36  C11 UNL     1      21.449  11.215  30.439  0.00  0.00    +0.088 C 
ATOM     37  C31 UNL     1      21.507  12.211  29.266  0.00  0.00    +0.130 C 
BRANCH  31  38
ATOM     38  C2  UNL     1      21.989  15.027  28.068  0.00  0.00    +0.037 A 
ATOM     39  C3  UNL     1      21.644  16.159  27.308  0.00  0.00    +0.013 A 
ATOM     40  C4  UNL     1      22.321  16.446  26.118  0.00  0.00    +0.001 A 
ATOM     41  C5  UNL     1      23.340  15.602  25.670  0.00  0.00    +0.000 A 
ATOM     42  C6  UNL     1      23.677  14.465  26.408  0.00  0.00    +0.001 A 
ATOM     43  C7  UNL     1      23.001  14.172  27.597  0.00  0.00    +0.013 A 
ENDBRANCH  31  38
ENDBRANCH  28  36
ENDBRANCH   1  28
TORSDOF 5
ENDMDL
MODEL 9
REMARK VINA RESULT:    -8.753     11.404     15.733
REMARK INTER + INTRA:         -12.544
REMARK INTER:                 -11.499
REMARK INTRA:                  -1.044
REMARK UNBOUND:                -1.232
REMARK  Name = /home/qwerty/github/datacon2025hack/step_04_hit_selection/docking/ligands/lig_765.pdb
REMARK  5 active torsions:
REMARK  status: ('A' for Active; 'I' for Inactive)
REMARK    1  A    between atoms: C1_2  and  C2_3
REMARK    2  A    between atoms: C11_13  and  N2_14
REMARK    3  A    between atoms: N2_14  and  C12_15
REMARK    4  A    between atoms: C16_21  and  C17_22
REMARK    5  A    between atoms: C19_25  and  C20_26
REMARK                            x       y       z     vdW  Elec       q    Type
REMARK                         _______ _______ _______ _____ _____    ______ ____
ROOT
ATOM      1  C12 UNL     1      21.274   0.679  30.642  0.00  0.00    +0.028 A 
ATOM      2  C13 UNL     1      20.169  -0.042  31.176  0.00  0.00    +0.025 A 
ATOM      3  C14 UNL     1      19.454   0.453  32.282  0.00  0.00    +0.029 A 
ATOM      4  C15 UNL     1      19.875   1.655  32.841  0.00  0.00    +0.067 A 
ATOM      5  N3  UNL     1      19.345   2.311  33.885  0.00  0.00    -0.276 N 
ATOM      6  N4  UNL     1      20.052   3.415  34.091  0.00  0.00    -0.170 NA
ATOM      7  C16 UNL     1      21.050   3.463  33.174  0.00  0.00    +0.135 A 
ATOM      8  C29 UNL     1      20.948   2.348  32.354  0.00  0.00    +0.032 A 
ATOM      9  C30 UNL     1      21.653   1.906  31.232  0.00  0.00    +0.035 A 
ATOM     10  H16 UNL     1      18.519   2.020  34.454  0.00  0.00    +0.189 HD
ENDROOT
BRANCH   7  11
ATOM     11  C17 UNL     1      22.053   4.541  33.140  0.00  0.00    +0.160 A 
ATOM     12  N5  UNL     1      21.755   5.817  33.505  0.00  0.00    -0.225 NA
ATOM     13  C18 UNL     1      22.937   6.452  33.392  0.00  0.00    +0.100 A 
ATOM     14  C19 UNL     1      23.239   7.788  33.688  0.00  0.00    +0.028 A 
ATOM     15  C26 UNL     1      24.594   8.170  33.542  0.00  0.00    +0.121 A 
ATOM     16  N6  UNL     1      25.539   7.262  33.141  0.00  0.00    -0.260 NA
ATOM     17  C27 UNL     1      25.225   5.962  32.869  0.00  0.00    +0.138 A 
ATOM     18  C28 UNL     1      23.898   5.574  32.997  0.00  0.00    +0.085 A 
ATOM     19  N7  UNL     1      23.364   4.359  32.837  0.00  0.00    -0.335 N 
ATOM     20  H23 UNL     1      23.871   3.476  32.618  0.00  0.00    +0.167 HD
BRANCH  14  21
ATOM     21  C20 UNL     1      22.213   8.749  34.161  0.00  0.00    -0.014 A 
ATOM     22  C21 UNL     1      21.583   9.628  33.262  0.00  0.00    +0.011 A 
ATOM     23  C22 UNL     1      20.614  10.529  33.715  0.00  0.00    +0.039 A 
ATOM     24  C23 UNL     1      20.266  10.563  35.069  0.00  0.00    +0.123 A 
ATOM     25  F1  UNL     1      19.323  11.435  35.506  0.00  0.00    -0.205 F 
ATOM     26  C24 UNL     1      20.888   9.696  35.971  0.00  0.00    +0.039 A 
ATOM     27  C25 UNL     1      21.858   8.795  35.523  0.00  0.00    +0.011 A 
ENDBRANCH  14  21
ENDBRANCH   7  11
BRANCH   1  28
ATOM     28  N2  UNL     1      22.016   0.191  29.508  0.00  0.00    -0.339 N 
ATOM     29  H13 UNL     1      22.603  -0.666  29.648  0.00  0.00    +0.146 HD
BRANCH  28  36
ATOM     30  O1  UNL     1      19.919   0.622  24.163  0.00  0.00    -0.270 OA
ATOM     31  C1  UNL     1      19.497   0.705  25.348  0.00  0.00    +0.247 C 
ATOM     32  N1  UNL     1      20.324   1.326  26.349  0.00  0.00    -0.296 N 
ATOM     33  C8  UNL     1      21.154   2.478  25.970  0.00  0.00    +0.108 C 
ATOM     34  C9  UNL     1      21.761   3.150  27.206  0.00  0.00    +0.021 C 
ATOM     35  C10 UNL     1      22.543   2.150  28.073  0.00  0.00    +0.025 C 
ATOM     36  C11 UNL     1      21.900   0.738  28.149  0.00  0.00    +0.088 C 
ATOM     37  C31 UNL     1      20.427   0.756  27.701  0.00  0.00    +0.130 C 
BRANCH  31  38
ATOM     38  C2  UNL     1      18.158   0.162  25.676  0.00  0.00    +0.037 A 
ATOM     39  C3  UNL     1      17.769  -1.098  25.189  0.00  0.00    +0.013 A 
ATOM     40  C4  UNL     1      16.506  -1.616  25.495  0.00  0.00    +0.001 A 
ATOM     41  C5  UNL     1      15.617  -0.879  26.282  0.00  0.00    +0.000 A 
ATOM     42  C6  UNL     1      15.989   0.382  26.755  0.00  0.00    +0.001 A 
ATOM     43  C7  UNL     1      17.249   0.906  26.449  0.00  0.00    +0.013 A 
ENDBRANCH  31  38
ENDBRANCH  28  36
ENDBRANCH   1  28
TORSDOF 5
ENDMDL
