REMARK  Name = /home/qwerty/github/datacon2025hack/step_04_hit_selection/docking/ligands/lig_359.pdb
REMARK  6 active torsions:
REMARK  status: ('A' for Active; 'I' for Inactive)
REMARK    1  A    between atoms: C1_1  and  C2_2
REMARK    2  A    between atoms: C2_2  and  N1_3
REMARK    3  A    between atoms: C2_2  and  C10_13
REMARK    4  A    between atoms: C3_4  and  C4_6
REMARK    5  A    between atoms: C12_16  and  C13_18
REMARK    6  A    between atoms: C13_18  and  C14_19
REMARK                            x       y       z     vdW  Elec       q    Type
REMARK                         _______ _______ _______ _____ _____    ______ ____
ROOT
ATOM      1  C1  UNL     1      -0.872  -0.028  -2.960  0.00  0.00    +0.028 C 
ATOM      2  C2  UNL     1      -0.869   0.041  -1.431  0.00  0.00    +0.076 C 
ENDROOT
BRANCH   2   3
ATOM      3  C10 UNL     1      -0.068  -1.137  -0.837  0.00  0.00    +0.044 C 
ATOM      4  C11 UNL     1       0.170  -1.036   0.641  0.00  0.00    +0.114 C 
ATOM      5  N2  UNL     1       1.634  -0.889   0.557  0.00  0.00    -0.300 N 
ATOM      6  C12 UNL     1       2.716  -0.760   1.481  0.00  0.00    +0.221 C 
ATOM      7  O2  UNL     1       2.477  -0.835   2.716  0.00  0.00    -0.275 OA
ATOM      8  C18 UNL     1       1.424  -0.985  -0.901  0.00  0.00    +0.114 C 
BRANCH   6   9
ATOM      9  C13 UNL     1       4.142  -0.626   0.989  0.00  0.00    +0.044 C 
ATOM     10  C14 UNL     1       4.706  -1.968   0.497  0.00  0.00    +0.021 C 
ATOM     11  C15 UNL     1       4.338   0.520  -0.013  0.00  0.00    +0.016 C 
ATOM     12  C16 UNL     1       5.302   1.203   0.948  0.00  0.00    +0.002 C 
ATOM     13  C17 UNL     1       5.088   0.092   1.967  0.00  0.00    +0.016 C 
ENDBRANCH   6   9
ENDBRANCH   2   3
BRANCH   2  14
ATOM     14  N1  UNL     1      -2.248  -0.008  -0.940  0.00  0.00    -0.308 N 
ATOM     15  C3  UNL     1      -3.015   1.178  -0.677  0.00  0.00    +0.244 C 
ATOM     16  O1  UNL     1      -2.560   2.305  -1.017  0.00  0.00    -0.270 OA
ATOM     17  H5  UNL     1      -2.734  -0.934  -0.939  0.00  0.00    +0.149 HD
BRANCH  15  18
ATOM     18  C4  UNL     1      -4.344   1.098  -0.024  0.00  0.00    +0.037 A 
ATOM     19  C5  UNL     1      -5.274   2.142  -0.188  0.00  0.00    +0.016 A 
ATOM     20  C6  UNL     1      -6.528   2.078   0.429  0.00  0.00    +0.039 A 
ATOM     21  C7  UNL     1      -6.864   0.977   1.220  0.00  0.00    +0.123 A 
ATOM     22  F1  UNL     1      -8.079   0.918   1.818  0.00  0.00    -0.205 F 
ATOM     23  C8  UNL     1      -5.945  -0.059   1.400  0.00  0.00    +0.039 A 
ATOM     24  C9  UNL     1      -4.690   0.000   0.785  0.00  0.00    +0.016 A 
ENDBRANCH  15  18
ENDBRANCH   2  14
TORSDOF 4
