MODEL 1
REMARK VINA RESULT:    -6.607      0.000      0.000
REMARK INTER + INTRA:          -7.671
REMARK INTER:                  -7.380
REMARK INTRA:                  -0.292
REMARK UNBOUND:                -0.292
REMARK  Name = /home/qwerty/github/datacon2025hack/step_04_hit_selection/docking/ligands/lig_317.pdb
REMARK  4 active torsions:
REMARK  status: ('A' for Active; 'I' for Inactive)
REMARK    1  A    between atoms: C1_1  and  O1_2
REMARK    2  A    between atoms: O1_2  and  C2_3
REMARK    3  A    between atoms: N2_14  and  C11_15
REMARK    4  A    between atoms: C18_24  and  C19_25
REMARK                            x       y       z     vdW  Elec       q    Type
REMARK                         _______ _______ _______ _____ _____    ______ ____
ROOT
ATOM      1  C2  UNL     1      23.229   8.464  33.568  0.00  0.00    +0.120 A 
ATOM      2  C3  UNL     1      22.242   9.456  33.394  0.00  0.00    +0.047 A 
ATOM      3  C4  UNL     1      21.247   9.655  34.364  0.00  0.00    +0.027 A 
ATOM      4  C5  UNL     1      21.240   8.827  35.491  0.00  0.00    +0.041 A 
ATOM      5  C6  UNL     1      22.214   7.886  35.683  0.00  0.00    -0.021 A 
ATOM      6  C7  UNL     1      23.218   7.671  34.739  0.00  0.00    +0.051 A 
ATOM      7  C8  UNL     1      22.051   7.225  37.010  0.00  0.00    +0.056 C 
ATOM      8  C9  UNL     1      20.839   7.962  37.631  0.00  0.00    +0.120 C 
ATOM      9  N1  UNL     1      20.366   8.891  36.606  0.00  0.00    -0.255 N 
ATOM     10  C10 UNL     1      19.165   9.667  36.725  0.00  0.00    +0.311 C 
ATOM     11  O2  UNL     1      18.901  10.221  37.826  0.00  0.00    -0.252 OA
ATOM     12  N2  UNL     1      18.267   9.791  35.610  0.00  0.00    -0.269 N 
ATOM     13  H11 UNL     1      18.524   9.323  34.713  0.00  0.00    +0.156 HD
ENDROOT
BRANCH  12  14
ATOM     14  C11 UNL     1      17.074  10.592  35.619  0.00  0.00    +0.037 A 
ATOM     15  C12 UNL     1      17.050  11.883  35.058  0.00  0.00    +0.027 A 
ATOM     16  C13 UNL     1      15.883  12.650  35.102  0.00  0.00    +0.049 A 
ATOM     17  C14 UNL     1      14.737  12.149  35.726  0.00  0.00    +0.143 A 
ATOM     18  C15 UNL     1      14.754  10.872  36.300  0.00  0.00    +0.077 A 
ATOM     19  C16 UNL     1      15.924  10.101  36.255  0.00  0.00    +0.050 A 
ATOM     20  N3  UNL     1      13.560  10.356  36.895  0.00  0.00    -0.279 N 
ATOM     21  C17 UNL     1      12.391  11.174  36.992  0.00  0.00    +0.258 C 
ATOM     22  O3  UNL     1      11.330  10.687  37.468  0.00  0.00    -0.271 OA
ATOM     23  C18 UNL     1      12.463  12.640  36.628  0.00  0.00    +0.256 C 
ATOM     24  C19 UNL     1      11.176  13.118  35.958  0.00  0.00    +0.062 C 
ATOM     25  O4  UNL     1      13.567  12.916  35.758  0.00  0.00    -0.478 OA
ATOM     26  H15 UNL     1      13.531   9.373  37.250  0.00  0.00    +0.155 HD
ENDBRANCH  12  14
BRANCH   1  28
ATOM     27  C1  UNL     1      25.148   9.307  32.206  0.00  0.00    +0.277 C 
ATOM     28  O1  UNL     1      24.199   8.308  32.567  0.00  0.00    -0.495 OA
ENDBRANCH   1  28
TORSDOF 2
ENDMDL
MODEL 2
REMARK VINA RESULT:    -6.478     12.814     14.786
REMARK INTER + INTRA:          -7.527
REMARK INTER:                  -7.201
REMARK INTRA:                  -0.327
REMARK UNBOUND:                -0.292
REMARK  Name = /home/qwerty/github/datacon2025hack/step_04_hit_selection/docking/ligands/lig_317.pdb
REMARK  4 active torsions:
REMARK  status: ('A' for Active; 'I' for Inactive)
REMARK    1  A    between atoms: C1_1  and  O1_2
REMARK    2  A    between atoms: O1_2  and  C2_3
REMARK    3  A    between atoms: N2_14  and  C11_15
REMARK    4  A    between atoms: C18_24  and  C19_25
REMARK                            x       y       z     vdW  Elec       q    Type
REMARK                         _______ _______ _______ _____ _____    ______ ____
ROOT
ATOM      1  C2  UNL     1      22.189   1.836  27.959  0.00  0.00    +0.120 A 
ATOM      2  C3  UNL     1      22.276   3.087  27.314  0.00  0.00    +0.047 A 
ATOM      3  C4  UNL     1      21.552   3.338  26.137  0.00  0.00    +0.027 A 
ATOM      4  C5  UNL     1      20.768   2.309  25.604  0.00  0.00    +0.041 A 
ATOM      5  C6  UNL     1      20.653   1.105  26.243  0.00  0.00    -0.021 A 
ATOM      6  C7  UNL     1      21.356   0.831  27.416  0.00  0.00    +0.051 A 
ATOM      7  C8  UNL     1      19.671   0.230  25.541  0.00  0.00    +0.056 C 
ATOM      8  C9  UNL     1      19.154   1.125  24.388  0.00  0.00    +0.120 C 
ATOM      9  N1  UNL     1      19.924   2.366  24.466  0.00  0.00    -0.255 N 
ATOM     10  C10 UNL     1      19.856   3.411  23.486  0.00  0.00    +0.311 C 
ATOM     11  O2  UNL     1      18.732   3.744  23.024  0.00  0.00    -0.252 OA
ATOM     12  N2  UNL     1      21.056   4.052  23.023  0.00  0.00    -0.269 N 
ATOM     13  H11 UNL     1      21.967   3.752  23.435  0.00  0.00    +0.156 HD
ENDROOT
BRANCH  12  14
ATOM     14  C11 UNL     1      21.079   5.144  22.089  0.00  0.00    +0.037 A 
ATOM     15  C12 UNL     1      21.391   4.945  20.731  0.00  0.00    +0.027 A 
ATOM     16  C13 UNL     1      21.429   6.028  19.850  0.00  0.00    +0.049 A 
ATOM     17  C14 UNL     1      21.182   7.322  20.317  0.00  0.00    +0.143 A 
ATOM     18  C15 UNL     1      20.886   7.533  21.669  0.00  0.00    +0.077 A 
ATOM     19  C16 UNL     1      20.844   6.447  22.553  0.00  0.00    +0.050 A 
ATOM     20  N3  UNL     1      20.591   8.858  22.123  0.00  0.00    -0.279 N 
ATOM     21  C17 UNL     1      20.697   9.967  21.226  0.00  0.00    +0.258 C 
ATOM     22  O3  UNL     1      20.380  11.120  21.626  0.00  0.00    -0.271 OA
ATOM     23  C18 UNL     1      21.288   9.771  19.848  0.00  0.00    +0.256 C 
ATOM     24  C19 UNL     1      20.592  10.646  18.807  0.00  0.00    +0.062 C 
ATOM     25  O4  UNL     1      21.211   8.403  19.429  0.00  0.00    -0.478 OA
ATOM     26  H15 UNL     1      20.284   9.020  23.109  0.00  0.00    +0.155 HD
ENDBRANCH  12  14
BRANCH   1  28
ATOM     27  C1  UNL     1      24.003   0.708  29.256  0.00  0.00    +0.277 C 
ATOM     28  O1  UNL     1      22.934   1.640  29.131  0.00  0.00    -0.495 OA
ENDBRANCH   1  28
TORSDOF 2
ENDMDL
MODEL 3
REMARK VINA RESULT:    -6.472     16.163     16.843
REMARK INTER + INTRA:          -7.521
REMARK INTER:                  -7.296
REMARK INTRA:                  -0.224
REMARK UNBOUND:                -0.292
REMARK  Name = /home/qwerty/github/datacon2025hack/step_04_hit_selection/docking/ligands/lig_317.pdb
REMARK  4 active torsions:
REMARK  status: ('A' for Active; 'I' for Inactive)
REMARK    1  A    between atoms: C1_1  and  O1_2
REMARK    2  A    between atoms: O1_2  and  C2_3
REMARK    3  A    between atoms: N2_14  and  C11_15
REMARK    4  A    between atoms: C18_24  and  C19_25
REMARK                            x       y       z     vdW  Elec       q    Type
REMARK                         _______ _______ _______ _____ _____    ______ ____
ROOT
ATOM      1  C2  UNL     1      14.844  -0.965  24.185  0.00  0.00    +0.120 A 
ATOM      2  C3  UNL     1      13.770  -0.065  24.339  0.00  0.00    +0.047 A 
ATOM      3  C4  UNL     1      13.460   0.860  23.329  0.00  0.00    +0.027 A 
ATOM      4  C5  UNL     1      14.260   0.887  22.182  0.00  0.00    +0.041 A 
ATOM      5  C6  UNL     1      15.281  -0.005  22.011  0.00  0.00    -0.021 A 
ATOM      6  C7  UNL     1      15.607  -0.939  22.995  0.00  0.00    +0.051 A 
ATOM      7  C8  UNL     1      15.896   0.152  20.662  0.00  0.00    +0.056 C 
ATOM      8  C9  UNL     1      15.038   1.260  20.004  0.00  0.00    +0.120 C 
ATOM      9  N1  UNL     1      14.092   1.697  21.030  0.00  0.00    -0.255 N 
ATOM     10  C10 UNL     1      13.207   2.816  20.875  0.00  0.00    +0.311 C 
ATOM     11  O2  UNL     1      12.609   2.975  19.778  0.00  0.00    -0.252 OA
ATOM     12  N2  UNL     1      13.026   3.753  21.951  0.00  0.00    -0.269 N 
ATOM     13  H11 UNL     1      13.535   3.582  22.846  0.00  0.00    +0.156 HD
ENDROOT
BRANCH  12  14
ATOM     14  C11 UNL     1      12.119   4.866  21.907  0.00  0.00    +0.037 A 
ATOM     15  C12 UNL     1      10.915   4.864  22.636  0.00  0.00    +0.027 A 
ATOM     16  C13 UNL     1      10.040   5.950  22.556  0.00  0.00    +0.049 A 
ATOM     17  C14 UNL     1      10.344   7.038  21.732  0.00  0.00    +0.143 A 
ATOM     18  C15 UNL     1      11.532   7.043  20.991  0.00  0.00    +0.077 A 
ATOM     19  C16 UNL     1      12.411   5.955  21.072  0.00  0.00    +0.050 A 
ATOM     20  N3  UNL     1      11.850   8.183  20.188  0.00  0.00    -0.279 N 
ATOM     21  C17 UNL     1      10.917   9.261  20.063  0.00  0.00    +0.258 C 
ATOM     22  O3  UNL     1      11.235  10.282  19.397  0.00  0.00    -0.271 OA
ATOM     23  C18 UNL     1       9.524   9.123  20.635  0.00  0.00    +0.256 C 
ATOM     24  C19 UNL     1       9.015  10.448  21.202  0.00  0.00    +0.062 C 
ATOM     25  O4  UNL     1       9.470   8.128  21.664  0.00  0.00    -0.478 OA
ATOM     26  H15 UNL     1      12.771   8.241  19.697  0.00  0.00    +0.155 HD
ENDBRANCH  12  14
BRANCH   1  28
ATOM     27  C1  UNL     1      14.285  -2.983  25.550  0.00  0.00    +0.277 C 
ATOM     28  O1  UNL     1      15.109  -1.868  25.225  0.00  0.00    -0.495 OA
ENDBRANCH   1  28
TORSDOF 2
ENDMDL
MODEL 4
REMARK VINA RESULT:    -6.459      2.156      9.066
REMARK INTER + INTRA:          -7.506
REMARK INTER:                  -7.160
REMARK INTRA:                  -0.345
REMARK UNBOUND:                -0.292
REMARK  Name = /home/qwerty/github/datacon2025hack/step_04_hit_selection/docking/ligands/lig_317.pdb
REMARK  4 active torsions:
REMARK  status: ('A' for Active; 'I' for Inactive)
REMARK    1  A    between atoms: C1_1  and  O1_2
REMARK    2  A    between atoms: O1_2  and  C2_3
REMARK    3  A    between atoms: N2_14  and  C11_15
REMARK    4  A    between atoms: C18_24  and  C19_25
REMARK                            x       y       z     vdW  Elec       q    Type
REMARK                         _______ _______ _______ _____ _____    ______ ____
ROOT
ATOM      1  C2  UNL     1      14.930  14.797  36.256  0.00  0.00    +0.120 A 
ATOM      2  C3  UNL     1      16.169  14.448  35.681  0.00  0.00    +0.047 A 
ATOM      3  C4  UNL     1      16.549  13.102  35.561  0.00  0.00    +0.027 A 
ATOM      4  C5  UNL     1      15.683  12.119  36.053  0.00  0.00    +0.041 A 
ATOM      5  C6  UNL     1      14.466  12.448  36.582  0.00  0.00    -0.021 A 
ATOM      6  C7  UNL     1      14.061  13.778  36.707  0.00  0.00    +0.051 A 
ATOM      7  C8  UNL     1      13.690  11.221  36.919  0.00  0.00    +0.056 C 
ATOM      8  C9  UNL     1      14.616  10.072  36.453  0.00  0.00    +0.120 C 
ATOM      9  N1  UNL     1      15.846  10.711  35.986  0.00  0.00    -0.255 N 
ATOM     10  C10 UNL     1      17.025   9.990  35.603  0.00  0.00    +0.311 C 
ATOM     11  O2  UNL     1      16.905   8.948  34.905  0.00  0.00    -0.252 OA
ATOM     12  N2  UNL     1      18.322  10.439  36.029  0.00  0.00    -0.269 N 
ATOM     13  H11 UNL     1      18.381  11.310  36.601  0.00  0.00    +0.156 HD
ENDROOT
BRANCH  12  14
ATOM     14  C11 UNL     1      19.558   9.815  35.646  0.00  0.00    +0.037 A 
ATOM     15  C12 UNL     1      20.196   8.874  36.476  0.00  0.00    +0.027 A 
ATOM     16  C13 UNL     1      21.410   8.300  36.090  0.00  0.00    +0.049 A 
ATOM     17  C14 UNL     1      22.012   8.675  34.885  0.00  0.00    +0.143 A 
ATOM     18  C15 UNL     1      21.393   9.622  34.059  0.00  0.00    +0.077 A 
ATOM     19  C16 UNL     1      20.175  10.196  34.445  0.00  0.00    +0.050 A 
ATOM     20  N3  UNL     1      21.999   9.962  32.808  0.00  0.00    -0.279 N 
ATOM     21  C17 UNL     1      23.273   9.417  32.453  0.00  0.00    +0.258 C 
ATOM     22  O3  UNL     1      23.769   9.682  31.325  0.00  0.00    -0.271 OA
ATOM     23  C18 UNL     1      24.064   8.622  33.468  0.00  0.00    +0.256 C 
ATOM     24  C19 UNL     1      24.827   7.472  32.811  0.00  0.00    +0.062 C 
ATOM     25  O4  UNL     1      23.222   8.090  34.497  0.00  0.00    -0.478 OA
ATOM     26  H15 UNL     1      21.509  10.600  32.142  0.00  0.00    +0.155 HD
ENDBRANCH  12  14
BRANCH   1  28
ATOM     27  C1  UNL     1      15.387  17.128  37.036  0.00  0.00    +0.277 C 
ATOM     28  O1  UNL     1      14.601  16.158  36.351  0.00  0.00    -0.495 OA
ENDBRANCH   1  28
TORSDOF 2
ENDMDL
MODEL 5
REMARK VINA RESULT:    -6.390     16.205     18.190
REMARK INTER + INTRA:          -7.428
REMARK INTER:                  -7.116
REMARK INTRA:                  -0.312
REMARK UNBOUND:                -0.292
REMARK  Name = /home/qwerty/github/datacon2025hack/step_04_hit_selection/docking/ligands/lig_317.pdb
REMARK  4 active torsions:
REMARK  status: ('A' for Active; 'I' for Inactive)
REMARK    1  A    between atoms: C1_1  and  O1_2
REMARK    2  A    between atoms: O1_2  and  C2_3
REMARK    3  A    between atoms: N2_14  and  C11_15
REMARK    4  A    between atoms: C18_24  and  C19_25
REMARK                            x       y       z     vdW  Elec       q    Type
REMARK                         _______ _______ _______ _____ _____    ______ ____
ROOT
ATOM      1  C2  UNL     1       9.895   7.989  20.637  0.00  0.00    +0.120 A 
ATOM      2  C3  UNL     1      10.988   7.103  20.550  0.00  0.00    +0.047 A 
ATOM      3  C4  UNL     1      10.873   5.776  20.994  0.00  0.00    +0.027 A 
ATOM      4  C5  UNL     1       9.659   5.364  21.553  0.00  0.00    +0.041 A 
ATOM      5  C6  UNL     1       8.584   6.207  21.610  0.00  0.00    -0.021 A 
ATOM      6  C7  UNL     1       8.669   7.528  21.170  0.00  0.00    +0.051 A 
ATOM      7  C8  UNL     1       7.384   5.494  22.133  0.00  0.00    +0.056 C 
ATOM      8  C9  UNL     1       7.889   4.044  22.336  0.00  0.00    +0.120 C 
ATOM      9  N1  UNL     1       9.314   4.066  22.010  0.00  0.00    -0.255 N 
ATOM     10  C10 UNL     1      10.195   2.952  22.207  0.00  0.00    +0.311 C 
ATOM     11  O2  UNL     1       9.800   1.796  21.897  0.00  0.00    -0.252 OA
ATOM     12  N2  UNL     1      11.503   3.150  22.772  0.00  0.00    -0.269 N 
ATOM     13  H11 UNL     1      11.796   4.123  23.009  0.00  0.00    +0.156 HD
ENDROOT
BRANCH  12  14
ATOM     14  C11 UNL     1      12.472   2.105  22.951  0.00  0.00    +0.037 A 
ATOM     15  C12 UNL     1      13.493   1.879  22.009  0.00  0.00    +0.027 A 
ATOM     16  C13 UNL     1      14.409   0.840  22.197  0.00  0.00    +0.049 A 
ATOM     17  C14 UNL     1      14.300   0.001  23.310  0.00  0.00    +0.143 A 
ATOM     18  C15 UNL     1      13.278   0.208  24.244  0.00  0.00    +0.077 A 
ATOM     19  C16 UNL     1      12.362   1.251  24.059  0.00  0.00    +0.050 A 
ATOM     20  N3  UNL     1      13.208  -0.631  25.401  0.00  0.00    -0.279 N 
ATOM     21  C17 UNL     1      14.110  -1.731  25.550  0.00  0.00    +0.258 C 
ATOM     22  O3  UNL     1      14.072  -2.427  26.600  0.00  0.00    -0.271 OA
ATOM     23  C18 UNL     1      15.022  -2.120  24.408  0.00  0.00    +0.256 C 
ATOM     24  C19 UNL     1      16.381  -2.602  24.912  0.00  0.00    +0.062 C 
ATOM     25  O4  UNL     1      15.225  -1.031  23.499  0.00  0.00    -0.478 OA
ATOM     26  H15 UNL     1      12.506  -0.436  26.151  0.00  0.00    +0.155 HD
ENDBRANCH  12  14
BRANCH   1  28
ATOM     27  C1  UNL     1      11.260   9.797  19.583  0.00  0.00    +0.277 C 
ATOM     28  O1  UNL     1      10.065   9.303  20.179  0.00  0.00    -0.495 OA
ENDBRANCH   1  28
TORSDOF 2
ENDMDL
MODEL 6
REMARK VINA RESULT:    -6.250     11.849     14.041
REMARK INTER + INTRA:          -7.273
REMARK INTER:                  -6.930
REMARK INTRA:                  -0.343
REMARK UNBOUND:                -0.292
REMARK  Name = /home/qwerty/github/datacon2025hack/step_04_hit_selection/docking/ligands/lig_317.pdb
REMARK  4 active torsions:
REMARK  status: ('A' for Active; 'I' for Inactive)
REMARK    1  A    between atoms: C1_1  and  O1_2
REMARK    2  A    between atoms: O1_2  and  C2_3
REMARK    3  A    between atoms: N2_14  and  C11_15
REMARK    4  A    between atoms: C18_24  and  C19_25
REMARK                            x       y       z     vdW  Elec       q    Type
REMARK                         _______ _______ _______ _____ _____    ______ ____
ROOT
ATOM      1  C2  UNL     1      18.891  10.968  19.784  0.00  0.00    +0.120 A 
ATOM      2  C3  UNL     1      18.783  11.251  21.161  0.00  0.00    +0.047 A 
ATOM      3  C4  UNL     1      19.248  12.468  21.681  0.00  0.00    +0.027 A 
ATOM      4  C5  UNL     1      19.850  13.380  20.807  0.00  0.00    +0.041 A 
ATOM      5  C6  UNL     1      19.928  13.127  19.466  0.00  0.00    -0.021 A 
ATOM      6  C7  UNL     1      19.467  11.928  18.921  0.00  0.00    +0.051 A 
ATOM      7  C8  UNL     1      20.498  14.300  18.742  0.00  0.00    +0.056 C 
ATOM      8  C9  UNL     1      20.705  15.346  19.864  0.00  0.00    +0.120 C 
ATOM      9  N1  UNL     1      20.336  14.678  21.111  0.00  0.00    -0.255 N 
ATOM     10  C10 UNL     1      20.521  15.253  22.411  0.00  0.00    +0.311 C 
ATOM     11  O2  UNL     1      20.240  16.469  22.588  0.00  0.00    -0.252 OA
ATOM     12  N2  UNL     1      21.043  14.459  23.490  0.00  0.00    -0.269 N 
ATOM     13  H11 UNL     1      21.258  13.455  23.305  0.00  0.00    +0.156 HD
ENDROOT
BRANCH  12  14
ATOM     14  C11 UNL     1      21.207  14.934  24.836  0.00  0.00    +0.037 A 
ATOM     15  C12 UNL     1      22.452  15.392  25.308  0.00  0.00    +0.027 A 
ATOM     16  C13 UNL     1      22.589  15.826  26.629  0.00  0.00    +0.049 A 
ATOM     17  C14 UNL     1      21.495  15.786  27.498  0.00  0.00    +0.143 A 
ATOM     18  C15 UNL     1      20.256  15.319  27.043  0.00  0.00    +0.077 A 
ATOM     19  C16 UNL     1      20.117  14.885  25.717  0.00  0.00    +0.050 A 
ATOM     20  N3  UNL     1      19.135  15.327  27.931  0.00  0.00    -0.279 N 
ATOM     21  C17 UNL     1      19.302  15.712  29.299  0.00  0.00    +0.258 C 
ATOM     22  O3  UNL     1      18.295  15.767  30.055  0.00  0.00    -0.271 OA
ATOM     23  C18 UNL     1      20.689  15.943  29.855  0.00  0.00    +0.256 C 
ATOM     24  C19 UNL     1      20.706  17.085  30.870  0.00  0.00    +0.062 C 
ATOM     25  O4  UNL     1      21.633  16.232  28.817  0.00  0.00    -0.478 OA
ATOM     26  H15 UNL     1      18.185  15.063  27.584  0.00  0.00    +0.155 HD
ENDBRANCH  12  14
BRANCH   1  28
ATOM     27  C1  UNL     1      17.096   9.243  19.563  0.00  0.00    +0.277 C 
ATOM     28  O1  UNL     1      18.409   9.736  19.318  0.00  0.00    -0.495 OA
ENDBRANCH   1  28
TORSDOF 2
ENDMDL
MODEL 7
REMARK VINA RESULT:    -6.122      6.048     10.490
REMARK INTER + INTRA:          -7.129
REMARK INTER:                  -6.878
REMARK INTRA:                  -0.251
REMARK UNBOUND:                -0.292
REMARK  Name = /home/qwerty/github/datacon2025hack/step_04_hit_selection/docking/ligands/lig_317.pdb
REMARK  4 active torsions:
REMARK  status: ('A' for Active; 'I' for Inactive)
REMARK    1  A    between atoms: C1_1  and  O1_2
REMARK    2  A    between atoms: O1_2  and  C2_3
REMARK    3  A    between atoms: N2_14  and  C11_15
REMARK    4  A    between atoms: C18_24  and  C19_25
REMARK                            x       y       z     vdW  Elec       q    Type
REMARK                         _______ _______ _______ _____ _____    ______ ____
ROOT
ATOM      1  C2  UNL     1      19.519   6.715  36.937  0.00  0.00    +0.120 A 
ATOM      2  C3  UNL     1      19.159   5.862  35.873  0.00  0.00    +0.047 A 
ATOM      3  C4  UNL     1      20.104   5.485  34.906  0.00  0.00    +0.027 A 
ATOM      4  C5  UNL     1      21.401   5.999  35.005  0.00  0.00    +0.041 A 
ATOM      5  C6  UNL     1      21.766   6.799  36.053  0.00  0.00    -0.021 A 
ATOM      6  C7  UNL     1      20.850   7.184  37.031  0.00  0.00    +0.051 A 
ATOM      7  C8  UNL     1      23.223   7.111  35.993  0.00  0.00    +0.056 C 
ATOM      8  C9  UNL     1      23.709   6.316  34.756  0.00  0.00    +0.120 C 
ATOM      9  N1  UNL     1      22.513   5.707  34.174  0.00  0.00    -0.255 N 
ATOM     10  C10 UNL     1      22.503   5.002  32.926  0.00  0.00    +0.311 C 
ATOM     11  O2  UNL     1      23.443   4.205  32.666  0.00  0.00    -0.252 OA
ATOM     12  N2  UNL     1      21.446   5.220  31.976  0.00  0.00    -0.269 N 
ATOM     13  H11 UNL     1      20.681   5.884  32.231  0.00  0.00    +0.156 HD
ENDROOT
BRANCH  12  14
ATOM     14  C11 UNL     1      21.323   4.517  30.729  0.00  0.00    +0.037 A 
ATOM     15  C12 UNL     1      21.023   3.143  30.686  0.00  0.00    +0.027 A 
ATOM     16  C13 UNL     1      20.933   2.478  29.460  0.00  0.00    +0.049 A 
ATOM     17  C14 UNL     1      21.164   3.171  28.267  0.00  0.00    +0.143 A 
ATOM     18  C15 UNL     1      21.477   4.535  28.300  0.00  0.00    +0.077 A 
ATOM     19  C16 UNL     1      21.566   5.203  29.529  0.00  0.00    +0.050 A 
ATOM     20  N3  UNL     1      21.666   5.240  27.070  0.00  0.00    -0.279 N 
ATOM     21  C17 UNL     1      21.635   4.536  25.824  0.00  0.00    +0.258 C 
ATOM     22  O3  UNL     1      21.748   5.179  24.746  0.00  0.00    -0.271 OA
ATOM     23  C18 UNL     1      21.579   3.025  25.812  0.00  0.00    +0.256 C 
ATOM     24  C19 UNL     1      20.725   2.504  24.656  0.00  0.00    +0.062 C 
ATOM     25  O4  UNL     1      21.062   2.505  27.042  0.00  0.00    -0.478 OA
ATOM     26  H15 UNL     1      21.815   6.274  27.073  0.00  0.00    +0.155 HD
ENDBRANCH  12  14
BRANCH   1  28
ATOM     27  C1  UNL     1      17.138   7.086  37.600  0.00  0.00    +0.277 C 
ATOM     28  O1  UNL     1      18.535   7.060  37.875  0.00  0.00    -0.495 OA
ENDBRANCH   1  28
TORSDOF 2
ENDMDL
MODEL 8
REMARK VINA RESULT:    -6.083     12.380     14.946
REMARK INTER + INTRA:          -7.085
REMARK INTER:                  -6.770
REMARK INTRA:                  -0.316
REMARK UNBOUND:                -0.292
REMARK  Name = /home/qwerty/github/datacon2025hack/step_04_hit_selection/docking/ligands/lig_317.pdb
REMARK  4 active torsions:
REMARK  status: ('A' for Active; 'I' for Inactive)
REMARK    1  A    between atoms: C1_1  and  O1_2
REMARK    2  A    between atoms: O1_2  and  C2_3
REMARK    3  A    between atoms: N2_14  and  C11_15
REMARK    4  A    between atoms: C18_24  and  C19_25
REMARK                            x       y       z     vdW  Elec       q    Type
REMARK                         _______ _______ _______ _____ _____    ______ ____
ROOT
ATOM      1  C2  UNL     1      15.642   2.226  20.964  0.00  0.00    +0.120 A 
ATOM      2  C3  UNL     1      16.597   2.875  21.772  0.00  0.00    +0.047 A 
ATOM      3  C4  UNL     1      17.292   2.170  22.768  0.00  0.00    +0.027 A 
ATOM      4  C5  UNL     1      16.991   0.817  22.958  0.00  0.00    +0.041 A 
ATOM      5  C6  UNL     1      16.090   0.173  22.156  0.00  0.00    -0.021 A 
ATOM      6  C7  UNL     1      15.391   0.848  21.155  0.00  0.00    +0.051 A 
ATOM      7  C8  UNL     1      16.040  -1.281  22.483  0.00  0.00    +0.056 C 
ATOM      8  C9  UNL     1      17.111  -1.436  23.590  0.00  0.00    +0.120 C 
ATOM      9  N1  UNL     1      17.606  -0.087  23.862  0.00  0.00    -0.255 N 
ATOM     10  C10 UNL     1      18.509   0.232  24.929  0.00  0.00    +0.311 C 
ATOM     11  O2  UNL     1      19.485  -0.533  25.154  0.00  0.00    -0.252 OA
ATOM     12  N2  UNL     1      18.290   1.396  25.744  0.00  0.00    -0.269 N 
ATOM     13  H11 UNL     1      17.474   2.009  25.522  0.00  0.00    +0.156 HD
ENDROOT
BRANCH  12  14
ATOM     14  C11 UNL     1      19.172   1.825  26.794  0.00  0.00    +0.037 A 
ATOM     15  C12 UNL     1      20.166   2.795  26.569  0.00  0.00    +0.027 A 
ATOM     16  C13 UNL     1      21.027   3.177  27.603  0.00  0.00    +0.049 A 
ATOM     17  C14 UNL     1      20.921   2.578  28.861  0.00  0.00    +0.143 A 
ATOM     18  C15 UNL     1      19.945   1.601  29.091  0.00  0.00    +0.077 A 
ATOM     19  C16 UNL     1      19.080   1.219  28.056  0.00  0.00    +0.050 A 
ATOM     20  N3  UNL     1      19.820   1.030  30.397  0.00  0.00    -0.279 N 
ATOM     21  C17 UNL     1      20.747   1.380  31.428  0.00  0.00    +0.258 C 
ATOM     22  O3  UNL     1      20.591   0.911  32.588  0.00  0.00    -0.271 OA
ATOM     23  C18 UNL     1      21.963   2.215  31.099  0.00  0.00    +0.256 C 
ATOM     24  C19 UNL     1      22.312   3.176  32.235  0.00  0.00    +0.062 C 
ATOM     25  O4  UNL     1      21.777   2.970  29.896  0.00  0.00    -0.478 OA
ATOM     26  H15 UNL     1      19.042   0.364  30.608  0.00  0.00    +0.155 HD
ENDBRANCH  12  14
BRANCH   1  28
ATOM     27  C1  UNL     1      14.814   4.393  20.033  0.00  0.00    +0.277 C 
ATOM     28  O1  UNL     1      14.978   2.979  19.985  0.00  0.00    -0.495 OA
ENDBRANCH   1  28
TORSDOF 2
ENDMDL
MODEL 9
REMARK VINA RESULT:    -6.061      5.875      7.652
REMARK INTER + INTRA:          -7.062
REMARK INTER:                  -6.730
REMARK INTRA:                  -0.332
REMARK UNBOUND:                -0.292
REMARK  Name = /home/qwerty/github/datacon2025hack/step_04_hit_selection/docking/ligands/lig_317.pdb
REMARK  4 active torsions:
REMARK  status: ('A' for Active; 'I' for Inactive)
REMARK    1  A    between atoms: C1_1  and  O1_2
REMARK    2  A    between atoms: O1_2  and  C2_3
REMARK    3  A    between atoms: N2_14  and  C11_15
REMARK    4  A    between atoms: C18_24  and  C19_25
REMARK                            x       y       z     vdW  Elec       q    Type
REMARK                         _______ _______ _______ _____ _____    ______ ____
ROOT
ATOM      1  C2  UNL     1      21.890   0.817  29.882  0.00  0.00    +0.120 A 
ATOM      2  C3  UNL     1      22.440   1.979  30.460  0.00  0.00    +0.047 A 
ATOM      3  C4  UNL     1      21.766   2.656  31.489  0.00  0.00    +0.027 A 
ATOM      4  C5  UNL     1      20.522   2.167  31.904  0.00  0.00    +0.041 A 
ATOM      5  C6  UNL     1      19.999   1.022  31.372  0.00  0.00    -0.021 A 
ATOM      6  C7  UNL     1      20.650   0.326  30.353  0.00  0.00    +0.051 A 
ATOM      7  C8  UNL     1      18.733   0.651  32.066  0.00  0.00    +0.056 C 
ATOM      8  C9  UNL     1      18.593   1.736  33.161  0.00  0.00    +0.120 C 
ATOM      9  N1  UNL     1      19.706   2.662  32.953  0.00  0.00    -0.255 N 
ATOM     10  C10 UNL     1      19.863   3.895  33.669  0.00  0.00    +0.311 C 
ATOM     11  O2  UNL     1      19.639   3.916  34.909  0.00  0.00    -0.252 OA
ATOM     12  N2  UNL     1      20.249   5.094  32.976  0.00  0.00    -0.269 N 
ATOM     13  H11 UNL     1      20.433   5.034  31.950  0.00  0.00    +0.156 HD
ENDROOT
BRANCH  12  14
ATOM     14  C11 UNL     1      20.487   6.357  33.618  0.00  0.00    +0.037 A 
ATOM     15  C12 UNL     1      21.738   6.673  34.180  0.00  0.00    +0.027 A 
ATOM     16  C13 UNL     1      21.934   7.900  34.820  0.00  0.00    +0.049 A 
ATOM     17  C14 UNL     1      20.881   8.812  34.926  0.00  0.00    +0.143 A 
ATOM     18  C15 UNL     1      19.628   8.502  34.383  0.00  0.00    +0.077 A 
ATOM     19  C16 UNL     1      19.431   7.273  33.739  0.00  0.00    +0.050 A 
ATOM     20  N3  UNL     1      18.573   9.465  34.460  0.00  0.00    -0.279 N 
ATOM     21  C17 UNL     1      18.766  10.690  35.173  0.00  0.00    +0.258 C 
ATOM     22  O3  UNL     1      17.847  11.552  35.186  0.00  0.00    -0.271 OA
ATOM     23  C18 UNL     1      20.019  10.896  35.994  0.00  0.00    +0.256 C 
ATOM     24  C19 UNL     1      20.494  12.348  35.941  0.00  0.00    +0.062 C 
ATOM     25  O4  UNL     1      21.085  10.044  35.557  0.00  0.00    -0.478 OA
ATOM     26  H15 UNL     1      17.660   9.285  33.985  0.00  0.00    +0.155 HD
ENDBRANCH  12  14
BRANCH   1  28
ATOM     27  C1  UNL     1      22.926  -1.207  28.843  0.00  0.00    +0.277 C 
ATOM     28  O1  UNL     1      22.606   0.181  28.857  0.00  0.00    -0.495 OA
ENDBRANCH   1  28
TORSDOF 2
ENDMDL
