MODEL 1
REMARK VINA RESULT:    -6.743      0.000      0.000
REMARK INTER + INTRA:          -9.584
REMARK INTER:                  -8.319
REMARK INTRA:                  -1.265
REMARK UNBOUND:                -1.265
REMARK  Name = /home/qwerty/github/datacon2025hack/step_04_hit_selection/docking/ligands/lig_657.pdb
REMARK  7 active torsions:
REMARK  status: ('A' for Active; 'I' for Inactive)
REMARK    1  A    between atoms: C1_1  and  C2_2
REMARK    2  A    between atoms: C2_2  and  C3_3
REMARK    3  A    between atoms: C2_2  and  C4_4
REMARK    4  A    between atoms: N2_8  and  C7_9
REMARK    5  A    between atoms: C7_9  and  C8_10
REMARK    6  A    between atoms: C11_13  and  C12_14
REMARK    7  A    between atoms: N3_26  and  C21_27
REMARK                            x       y       z     vdW  Elec       q    Type
REMARK                         _______ _______ _______ _____ _____    ______ ____
ROOT
ATOM      1  C7  UNL     1       9.528   9.368  21.413  0.00  0.00    +0.158 C 
ENDROOT
BRANCH   1   6
ATOM      2  C4  UNL     1       9.959   6.859  21.571  0.00  0.00    +0.113 A 
ATOM      3  N1  UNL     1      11.012   5.999  21.582  0.00  0.00    -0.235 NA
ATOM      4  C5  UNL     1      12.045   6.772  21.198  0.00  0.00    +0.089 A 
ATOM      5  C6  UNL     1      11.641   8.050  21.038  0.00  0.00    +0.129 A 
ATOM      6  N2  UNL     1      10.331   8.146  21.321  0.00  0.00    -0.319 N 
ATOM      7  C20 UNL     1      12.740   8.908  21.405  0.00  0.00    +0.265 C 
ATOM      8  O1  UNL     1      12.724  10.166  21.465  0.00  0.00    -0.268 OA
ATOM      9  N3  UNL     1      13.865   8.097  21.739  0.00  0.00    -0.293 N 
ATOM     10  C21 UNL     1      15.165   8.588  22.174  0.00  0.00    +0.133 C 
ATOM     11  C22 UNL     1      13.474   6.683  21.645  0.00  0.00    +0.165 C 
BRANCH   2  13
ATOM     12  C1  UNL     1       8.584   6.034  23.478  0.00  0.00    +0.015 C 
ATOM     13  C2  UNL     1       8.573   6.444  22.003  0.00  0.00    +0.049 C 
ATOM     14  C3  UNL     1       8.048   5.303  21.126  0.00  0.00    +0.015 C 
ENDBRANCH   2  13
ENDBRANCH   1   6
BRANCH   1  15
ATOM     15  C8  UNL     1       9.193   9.662  22.850  0.00  0.00    -0.028 A 
ATOM     16  C9  UNL     1       7.854   9.805  23.243  0.00  0.00    +0.006 A 
ATOM     17  C10 UNL     1       7.533  10.061  24.578  0.00  0.00    +0.009 A 
ATOM     18  C11 UNL     1       8.545  10.179  25.548  0.00  0.00    -0.018 A 
ATOM     19  C18 UNL     1       9.886  10.039  25.148  0.00  0.00    +0.009 A 
ATOM     20  C19 UNL     1      10.207   9.784  23.813  0.00  0.00    +0.006 A 
BRANCH  18  21
ATOM     21  C12 UNL     1       8.203  10.448  26.968  0.00  0.00    -0.012 A 
ATOM     22  C13 UNL     1       8.522  11.685  27.559  0.00  0.00    +0.047 A 
ATOM     23  C14 UNL     1       8.200  11.935  28.896  0.00  0.00    +0.127 A 
ATOM     24  F1  UNL     1       8.516  13.129  29.457  0.00  0.00    -0.205 F 
ATOM     25  C15 UNL     1       7.558  10.955  29.657  0.00  0.00    +0.076 A 
ATOM     26  C16 UNL     1       7.237   9.723  29.083  0.00  0.00    +0.127 A 
ATOM     27  F2  UNL     1       6.609   8.776  29.822  0.00  0.00    -0.205 F 
ATOM     28  C17 UNL     1       7.558   9.469  27.746  0.00  0.00    +0.047 A 
ENDBRANCH  18  21
ENDBRANCH   1  15
TORSDOF 4
ENDMDL
MODEL 2
REMARK VINA RESULT:    -6.686     12.597     14.917
REMARK INTER + INTRA:          -9.514
REMARK INTER:                  -8.260
REMARK INTRA:                  -1.254
REMARK UNBOUND:                -1.265
REMARK  Name = /home/qwerty/github/datacon2025hack/step_04_hit_selection/docking/ligands/lig_657.pdb
REMARK  7 active torsions:
REMARK  status: ('A' for Active; 'I' for Inactive)
REMARK    1  A    between atoms: C1_1  and  C2_2
REMARK    2  A    between atoms: C2_2  and  C3_3
REMARK    3  A    between atoms: C2_2  and  C4_4
REMARK    4  A    between atoms: N2_8  and  C7_9
REMARK    5  A    between atoms: C7_9  and  C8_10
REMARK    6  A    between atoms: C11_13  and  C12_14
REMARK    7  A    between atoms: N3_26  and  C21_27
REMARK                            x       y       z     vdW  Elec       q    Type
REMARK                         _______ _______ _______ _____ _____    ______ ____
ROOT
ATOM      1  C7  UNL     1      21.424   3.433  27.923  0.00  0.00    +0.158 C 
ENDROOT
BRANCH   1   6
ATOM      2  C4  UNL     1      22.288   1.889  29.760  0.00  0.00    +0.113 A 
ATOM      3  N1  UNL     1      22.110   1.682  31.093  0.00  0.00    -0.235 NA
ATOM      4  C5  UNL     1      21.422   2.771  31.485  0.00  0.00    +0.089 A 
ATOM      5  C6  UNL     1      21.139   3.554  30.422  0.00  0.00    +0.129 A 
ATOM      6  N2  UNL     1      21.629   2.991  29.305  0.00  0.00    -0.319 N 
ATOM      7  C20 UNL     1      19.865   4.184  30.668  0.00  0.00    +0.265 C 
ATOM      8  O1  UNL     1      19.226   4.923  29.873  0.00  0.00    -0.268 OA
ATOM      9  N3  UNL     1      19.405   3.801  31.963  0.00  0.00    -0.293 N 
ATOM     10  C21 UNL     1      18.151   4.218  32.575  0.00  0.00    +0.133 C 
ATOM     11  C22 UNL     1      20.368   2.858  32.548  0.00  0.00    +0.165 C 
BRANCH   2  13
ATOM     12  C1  UNL     1      22.236  -0.468  28.953  0.00  0.00    +0.015 C 
ATOM     13  C2  UNL     1      22.966   0.876  28.870  0.00  0.00    +0.049 C 
ATOM     14  C3  UNL     1      24.442   0.717  29.251  0.00  0.00    +0.015 C 
ENDBRANCH   2  13
ENDBRANCH   1   6
BRANCH   1  15
ATOM     15  C8  UNL     1      20.498   2.486  27.209  0.00  0.00    -0.028 A 
ATOM     16  C9  UNL     1      20.883   1.917  25.985  0.00  0.00    +0.006 A 
ATOM     17  C10 UNL     1      20.037   1.024  25.323  0.00  0.00    +0.009 A 
ATOM     18  C11 UNL     1      18.788   0.682  25.872  0.00  0.00    -0.018 A 
ATOM     19  C18 UNL     1      18.405   1.257  27.096  0.00  0.00    +0.009 A 
ATOM     20  C19 UNL     1      19.250   2.151  27.758  0.00  0.00    +0.006 A 
BRANCH  18  21
ATOM     21  C12 UNL     1      17.890  -0.271  25.170  0.00  0.00    -0.012 A 
ATOM     22  C13 UNL     1      16.896  -0.970  25.879  0.00  0.00    +0.047 A 
ATOM     23  C14 UNL     1      16.051  -1.868  25.217  0.00  0.00    +0.127 A 
ATOM     24  F1  UNL     1      15.100  -2.540  25.910  0.00  0.00    -0.205 F 
ATOM     25  C15 UNL     1      16.190  -2.075  23.842  0.00  0.00    +0.076 A 
ATOM     26  C16 UNL     1      17.174  -1.387  23.127  0.00  0.00    +0.127 A 
ATOM     27  F2  UNL     1      17.303  -1.586  21.793  0.00  0.00    -0.205 F 
ATOM     28  C17 UNL     1      18.021  -0.490  23.786  0.00  0.00    +0.047 A 
ENDBRANCH  18  21
ENDBRANCH   1  15
TORSDOF 4
ENDMDL
MODEL 3
REMARK VINA RESULT:    -6.659      2.014      3.192
REMARK INTER + INTRA:          -9.481
REMARK INTER:                  -8.312
REMARK INTRA:                  -1.169
REMARK UNBOUND:                -1.265
REMARK  Name = /home/qwerty/github/datacon2025hack/step_04_hit_selection/docking/ligands/lig_657.pdb
REMARK  7 active torsions:
REMARK  status: ('A' for Active; 'I' for Inactive)
REMARK    1  A    between atoms: C1_1  and  C2_2
REMARK    2  A    between atoms: C2_2  and  C3_3
REMARK    3  A    between atoms: C2_2  and  C4_4
REMARK    4  A    between atoms: N2_8  and  C7_9
REMARK    5  A    between atoms: C7_9  and  C8_10
REMARK    6  A    between atoms: C11_13  and  C12_14
REMARK    7  A    between atoms: N3_26  and  C21_27
REMARK                            x       y       z     vdW  Elec       q    Type
REMARK                         _______ _______ _______ _____ _____    ______ ____
ROOT
ATOM      1  C7  UNL     1       8.733   7.276  22.097  0.00  0.00    +0.158 C 
ENDROOT
BRANCH   1   6
ATOM      2  C4  UNL     1      11.018   8.057  21.276  0.00  0.00    +0.113 A 
ATOM      3  N1  UNL     1      12.232   7.526  20.966  0.00  0.00    -0.235 NA
ATOM      4  C5  UNL     1      12.153   6.273  21.449  0.00  0.00    +0.089 A 
ATOM      5  C6  UNL     1      10.925   6.043  21.959  0.00  0.00    +0.129 A 
ATOM      6  N2  UNL     1      10.165   7.141  21.813  0.00  0.00    -0.319 N 
ATOM      7  C20 UNL     1      10.609   4.653  21.735  0.00  0.00    +0.265 C 
ATOM      8  O1  UNL     1       9.519   4.078  21.996  0.00  0.00    -0.268 OA
ATOM      9  N3  UNL     1      11.730   4.021  21.119  0.00  0.00    -0.293 N 
ATOM     10  C21 UNL     1      11.801   2.622  20.721  0.00  0.00    +0.133 C 
ATOM     11  C22 UNL     1      12.772   5.029  20.883  0.00  0.00    +0.165 C 
BRANCH   2  13
ATOM     12  C1  UNL     1      11.204   9.781  19.487  0.00  0.00    +0.015 C 
ATOM     13  C2  UNL     1      10.619   9.453  20.864  0.00  0.00    +0.049 C 
ATOM     14  C3  UNL     1      11.071  10.480  21.906  0.00  0.00    +0.015 C 
ENDBRANCH   2  13
ENDBRANCH   1   6
BRANCH   1  15
ATOM     15  C8  UNL     1       8.530   7.994  23.404  0.00  0.00    -0.028 A 
ATOM     16  C9  UNL     1       8.904   7.378  24.608  0.00  0.00    +0.006 A 
ATOM     17  C10 UNL     1       8.734   8.043  25.824  0.00  0.00    +0.009 A 
ATOM     18  C11 UNL     1       8.187   9.338  25.861  0.00  0.00    -0.018 A 
ATOM     19  C18 UNL     1       7.810   9.949  24.652  0.00  0.00    +0.009 A 
ATOM     20  C19 UNL     1       7.978   9.284  23.436  0.00  0.00    +0.006 A 
BRANCH  18  21
ATOM     21  C12 UNL     1       8.010  10.047  27.154  0.00  0.00    -0.012 A 
ATOM     22  C13 UNL     1       8.383  11.398  27.286  0.00  0.00    +0.047 A 
ATOM     23  C14 UNL     1       8.217  12.064  28.505  0.00  0.00    +0.127 A 
ATOM     24  F1  UNL     1       8.585  13.363  28.622  0.00  0.00    -0.205 F 
ATOM     25  C15 UNL     1       7.676  11.390  29.602  0.00  0.00    +0.076 A 
ATOM     26  C16 UNL     1       7.302  10.049  29.485  0.00  0.00    +0.127 A 
ATOM     27  F2  UNL     1       6.772   9.398  30.550  0.00  0.00    -0.205 F 
ATOM     28  C17 UNL     1       7.468   9.379  28.268  0.00  0.00    +0.047 A 
ENDBRANCH  18  21
ENDBRANCH   1  15
TORSDOF 4
ENDMDL
MODEL 4
REMARK VINA RESULT:    -6.551      1.237      2.110
REMARK INTER + INTRA:          -9.348
REMARK INTER:                  -8.346
REMARK INTRA:                  -1.003
REMARK UNBOUND:                -1.265
REMARK  Name = /home/qwerty/github/datacon2025hack/step_04_hit_selection/docking/ligands/lig_657.pdb
REMARK  7 active torsions:
REMARK  status: ('A' for Active; 'I' for Inactive)
REMARK    1  A    between atoms: C1_1  and  C2_2
REMARK    2  A    between atoms: C2_2  and  C3_3
REMARK    3  A    between atoms: C2_2  and  C4_4
REMARK    4  A    between atoms: N2_8  and  C7_9
REMARK    5  A    between atoms: C7_9  and  C8_10
REMARK    6  A    between atoms: C11_13  and  C12_14
REMARK    7  A    between atoms: N3_26  and  C21_27
REMARK                            x       y       z     vdW  Elec       q    Type
REMARK                         _______ _______ _______ _____ _____    ______ ____
ROOT
ATOM      1  C7  UNL     1       9.047   8.583  21.030  0.00  0.00    +0.158 C 
ENDROOT
BRANCH   1   6
ATOM      2  C4  UNL     1       8.822   6.044  21.132  0.00  0.00    +0.113 A 
ATOM      3  N1  UNL     1       9.620   4.943  21.109  0.00  0.00    -0.235 NA
ATOM      4  C5  UNL     1      10.812   5.434  20.724  0.00  0.00    +0.089 A 
ATOM      5  C6  UNL     1      10.747   6.776  20.595  0.00  0.00    +0.129 A 
ATOM      6  N2  UNL     1       9.509   7.198  20.902  0.00  0.00    -0.319 N 
ATOM      7  C20 UNL     1      12.034   7.316  20.962  0.00  0.00    +0.265 C 
ATOM      8  O1  UNL     1      12.342   8.534  21.047  0.00  0.00    -0.268 OA
ATOM      9  N3  UNL     1      12.917   6.236  21.262  0.00  0.00    -0.293 N 
ATOM     10  C21 UNL     1      14.304   6.368  21.685  0.00  0.00    +0.133 C 
ATOM     11  C22 UNL     1      12.176   4.972  21.147  0.00  0.00    +0.165 C 
BRANCH   2  13
ATOM     12  C1  UNL     1       7.162   4.780  22.494  0.00  0.00    +0.015 C 
ATOM     13  C2  UNL     1       7.381   5.987  21.578  0.00  0.00    +0.049 C 
ATOM     14  C3  UNL     1       6.439   5.933  20.371  0.00  0.00    +0.015 C 
ENDBRANCH   2  13
ENDBRANCH   1   6
BRANCH   1  15
ATOM     15  C8  UNL     1       8.795   8.913  22.476  0.00  0.00    -0.028 A 
ATOM     16  C9  UNL     1       7.710   9.730  22.830  0.00  0.00    +0.006 A 
ATOM     17  C10 UNL     1       7.458  10.028  24.171  0.00  0.00    +0.009 A 
ATOM     18  C11 UNL     1       8.286   9.516  25.186  0.00  0.00    -0.018 A 
ATOM     19  C18 UNL     1       9.375   8.702  24.826  0.00  0.00    +0.009 A 
ATOM     20  C19 UNL     1       9.628   8.404  23.484  0.00  0.00    +0.006 A 
BRANCH  18  21
ATOM     21  C12 UNL     1       8.016   9.830  26.612  0.00  0.00    -0.012 A 
ATOM     22  C13 UNL     1       7.464   8.857  27.466  0.00  0.00    +0.047 A 
ATOM     23  C14 UNL     1       7.210   9.155  28.809  0.00  0.00    +0.127 A 
ATOM     24  F1  UNL     1       6.672   8.212  29.622  0.00  0.00    -0.205 F 
ATOM     25  C15 UNL     1       7.505  10.424  29.313  0.00  0.00    +0.076 A 
ATOM     26  C16 UNL     1       8.054  11.398  28.475  0.00  0.00    +0.127 A 
ATOM     27  F2  UNL     1       8.344  12.628  28.968  0.00  0.00    -0.205 F 
ATOM     28  C17 UNL     1       8.308  11.105  27.132  0.00  0.00    +0.047 A 
ENDBRANCH  18  21
ENDBRANCH   1  15
TORSDOF 4
ENDMDL
MODEL 5
REMARK VINA RESULT:    -6.528     12.526     14.965
REMARK INTER + INTRA:          -9.319
REMARK INTER:                  -8.084
REMARK INTRA:                  -1.236
REMARK UNBOUND:                -1.265
REMARK  Name = /home/qwerty/github/datacon2025hack/step_04_hit_selection/docking/ligands/lig_657.pdb
REMARK  7 active torsions:
REMARK  status: ('A' for Active; 'I' for Inactive)
REMARK    1  A    between atoms: C1_1  and  C2_2
REMARK    2  A    between atoms: C2_2  and  C3_3
REMARK    3  A    between atoms: C2_2  and  C4_4
REMARK    4  A    between atoms: N2_8  and  C7_9
REMARK    5  A    between atoms: C7_9  and  C8_10
REMARK    6  A    between atoms: C11_13  and  C12_14
REMARK    7  A    between atoms: N3_26  and  C21_27
REMARK                            x       y       z     vdW  Elec       q    Type
REMARK                         _______ _______ _______ _____ _____    ______ ____
ROOT
ATOM      1  C7  UNL     1      19.719   1.334  30.247  0.00  0.00    +0.158 C 
ENDROOT
BRANCH   1   6
ATOM      2  C4  UNL     1      21.284   0.692  28.338  0.00  0.00    +0.113 A 
ATOM      3  N1  UNL     1      21.378   0.856  26.991  0.00  0.00    -0.235 NA
ATOM      4  C5  UNL     1      20.163   1.326  26.652  0.00  0.00    +0.089 A 
ATOM      5  C6  UNL     1      19.405   1.504  27.754  0.00  0.00    +0.129 A 
ATOM      6  N2  UNL     1      20.110   1.161  28.845  0.00  0.00    -0.319 N 
ATOM      7  C20 UNL     1      18.544   2.638  27.517  0.00  0.00    +0.265 C 
ATOM      8  O1  UNL     1      17.750   3.163  28.341  0.00  0.00    -0.268 OA
ATOM      9  N3  UNL     1      18.764   3.112  26.190  0.00  0.00    -0.293 N 
ATOM     10  C21 UNL     1      18.095   4.250  25.575  0.00  0.00    +0.133 C 
ATOM     11  C22 UNL     1      19.829   2.311  25.570  0.00  0.00    +0.165 C 
BRANCH   2  13
ATOM     12  C1  UNL     1      23.622   1.208  29.024  0.00  0.00    +0.015 C 
ATOM     13  C2  UNL     1      22.451   0.234  29.179  0.00  0.00    +0.049 C 
ATOM     14  C3  UNL     1      22.873  -1.188  28.798  0.00  0.00    +0.015 C 
ENDBRANCH   2  13
ENDBRANCH   1   6
BRANCH   1  15
ATOM     15  C8  UNL     1      20.537   2.427  30.882  0.00  0.00    -0.028 A 
ATOM     16  C9  UNL     1      20.648   3.676  30.251  0.00  0.00    +0.006 A 
ATOM     17  C10 UNL     1      21.390   4.701  30.841  0.00  0.00    +0.009 A 
ATOM     18  C11 UNL     1      22.037   4.498  32.073  0.00  0.00    -0.018 A 
ATOM     19  C18 UNL     1      21.926   3.244  32.699  0.00  0.00    +0.009 A 
ATOM     20  C19 UNL     1      21.184   2.218  32.109  0.00  0.00    +0.006 A 
BRANCH  18  21
ATOM     21  C12 UNL     1      22.824   5.589  32.703  0.00  0.00    -0.012 A 
ATOM     22  C13 UNL     1      23.365   6.625  31.918  0.00  0.00    +0.047 A 
ATOM     23  C14 UNL     1      24.107   7.651  32.512  0.00  0.00    +0.127 A 
ATOM     24  F1  UNL     1      24.629   8.641  31.747  0.00  0.00    -0.205 F 
ATOM     25  C15 UNL     1      24.314   7.656  33.894  0.00  0.00    +0.076 A 
ATOM     26  C16 UNL     1      23.781   6.634  34.684  0.00  0.00    +0.127 A 
ATOM     27  F2  UNL     1      23.980   6.642  36.025  0.00  0.00    -0.205 F 
ATOM     28  C17 UNL     1      23.041   5.605  34.093  0.00  0.00    +0.047 A 
ENDBRANCH  18  21
ENDBRANCH   1  15
TORSDOF 4
ENDMDL
MODEL 6
REMARK VINA RESULT:    -6.515      8.975     12.356
REMARK INTER + INTRA:          -9.303
REMARK INTER:                  -8.155
REMARK INTRA:                  -1.148
REMARK UNBOUND:                -1.265
REMARK  Name = /home/qwerty/github/datacon2025hack/step_04_hit_selection/docking/ligands/lig_657.pdb
REMARK  7 active torsions:
REMARK  status: ('A' for Active; 'I' for Inactive)
REMARK    1  A    between atoms: C1_1  and  C2_2
REMARK    2  A    between atoms: C2_2  and  C3_3
REMARK    3  A    between atoms: C2_2  and  C4_4
REMARK    4  A    between atoms: N2_8  and  C7_9
REMARK    5  A    between atoms: C7_9  and  C8_10
REMARK    6  A    between atoms: C11_13  and  C12_14
REMARK    7  A    between atoms: N3_26  and  C21_27
REMARK                            x       y       z     vdW  Elec       q    Type
REMARK                         _______ _______ _______ _____ _____    ______ ____
ROOT
ATOM      1  C7  UNL     1      14.367  13.438  35.231  0.00  0.00    +0.158 C 
ENDROOT
BRANCH   1   6
ATOM      2  C4  UNL     1      13.471  11.215  36.103  0.00  0.00    +0.113 A 
ATOM      3  N1  UNL     1      13.949  10.027  36.562  0.00  0.00    -0.235 NA
ATOM      4  C5  UNL     1      15.254  10.073  36.238  0.00  0.00    +0.089 A 
ATOM      5  C6  UNL     1      15.556  11.264  35.678  0.00  0.00    +0.129 A 
ATOM      6  N2  UNL     1      14.454  12.030  35.629  0.00  0.00    -0.319 N 
ATOM      7  C20 UNL     1      16.908  11.596  36.055  0.00  0.00    +0.265 C 
ATOM      8  O1  UNL     1      17.520  12.666  35.793  0.00  0.00    -0.268 OA
ATOM      9  N3  UNL     1      17.449  10.523  36.823  0.00  0.00    -0.293 N 
ATOM     10  C21 UNL     1      18.785  10.482  37.400  0.00  0.00    +0.133 C 
ATOM     11  C22 UNL     1      16.411   9.497  37.000  0.00  0.00    +0.165 C 
BRANCH   2  13
ATOM     12  C1  UNL     1      11.477  11.009  37.582  0.00  0.00    +0.015 C 
ATOM     13  C2  UNL     1      12.037  11.640  36.304  0.00  0.00    +0.049 C 
ATOM     14  C3  UNL     1      11.180  11.263  35.092  0.00  0.00    +0.015 C 
ENDBRANCH   2  13
ENDBRANCH   1   6
BRANCH   1  15
ATOM     15  C8  UNL     1      13.628  13.563  33.926  0.00  0.00    -0.028 A 
ATOM     16  C9  UNL     1      13.987  12.754  32.836  0.00  0.00    +0.006 A 
ATOM     17  C10 UNL     1      13.296  12.851  31.626  0.00  0.00    +0.009 A 
ATOM     18  C11 UNL     1      12.231  13.759  31.481  0.00  0.00    -0.018 A 
ATOM     19  C18 UNL     1      11.877  14.569  32.575  0.00  0.00    +0.009 A 
ATOM     20  C19 UNL     1      12.569  14.473  33.784  0.00  0.00    +0.006 A 
BRANCH  18  21
ATOM     21  C12 UNL     1      11.493  13.859  30.196  0.00  0.00    -0.012 A 
ATOM     22  C13 UNL     1      10.171  13.389  30.092  0.00  0.00    +0.047 A 
ATOM     23  C14 UNL     1       9.478  13.483  28.881  0.00  0.00    +0.127 A 
ATOM     24  F1  UNL     1       8.206  13.022  28.790  0.00  0.00    -0.205 F 
ATOM     25  C15 UNL     1      10.096  14.048  27.763  0.00  0.00    +0.076 A 
ATOM     26  C16 UNL     1      11.409  14.519  27.853  0.00  0.00    +0.127 A 
ATOM     27  F2  UNL     1      12.005  15.071  26.768  0.00  0.00    -0.205 F 
ATOM     28  C17 UNL     1      12.105  14.425  29.062  0.00  0.00    +0.047 A 
ENDBRANCH  18  21
ENDBRANCH   1  15
TORSDOF 4
ENDMDL
MODEL 7
REMARK VINA RESULT:    -6.327     14.565     16.896
REMARK INTER + INTRA:          -9.072
REMARK INTER:                  -7.967
REMARK INTRA:                  -1.105
REMARK UNBOUND:                -1.265
REMARK  Name = /home/qwerty/github/datacon2025hack/step_04_hit_selection/docking/ligands/lig_657.pdb
REMARK  7 active torsions:
REMARK  status: ('A' for Active; 'I' for Inactive)
REMARK    1  A    between atoms: C1_1  and  C2_2
REMARK    2  A    between atoms: C2_2  and  C3_3
REMARK    3  A    between atoms: C2_2  and  C4_4
REMARK    4  A    between atoms: N2_8  and  C7_9
REMARK    5  A    between atoms: C7_9  and  C8_10
REMARK    6  A    between atoms: C11_13  and  C12_14
REMARK    7  A    between atoms: N3_26  and  C21_27
REMARK                            x       y       z     vdW  Elec       q    Type
REMARK                         _______ _______ _______ _____ _____    ______ ____
ROOT
ATOM      1  C7  UNL     1      20.980   8.078  32.699  0.00  0.00    +0.158 C 
ENDROOT
BRANCH   1   6
ATOM      2  C4  UNL     1      23.035   7.763  34.177  0.00  0.00    +0.113 A 
ATOM      3  N1  UNL     1      23.331   7.519  35.482  0.00  0.00    -0.235 NA
ATOM      4  C5  UNL     1      22.155   7.715  36.107  0.00  0.00    +0.089 A 
ATOM      5  C6  UNL     1      21.186   7.990  35.207  0.00  0.00    +0.129 A 
ATOM      6  N2  UNL     1      21.705   7.973  33.968  0.00  0.00    -0.319 N 
ATOM      7  C20 UNL     1      19.951   7.439  35.710  0.00  0.00    +0.265 C 
ATOM      8  O1  UNL     1      18.840   7.421  35.116  0.00  0.00    -0.268 OA
ATOM      9  N3  UNL     1      20.192   6.866  36.994  0.00  0.00    -0.293 N 
ATOM     10  C21 UNL     1      19.199   6.199  37.824  0.00  0.00    +0.133 C 
ATOM     11  C22 UNL     1      21.622   6.992  37.309  0.00  0.00    +0.165 C 
BRANCH   2  13
ATOM     12  C1  UNL     1      25.054   6.501  33.443  0.00  0.00    +0.015 C 
ATOM     13  C2  UNL     1      24.053   7.600  33.075  0.00  0.00    +0.049 C 
ATOM     14  C3  UNL     1      24.775   8.923  32.799  0.00  0.00    +0.015 C 
ENDBRANCH   2  13
ENDBRANCH   1   6
BRANCH   1  15
ATOM     15  C8  UNL     1      21.139   6.809  31.905  0.00  0.00    -0.028 A 
ATOM     16  C9  UNL     1      20.765   5.579  32.466  0.00  0.00    +0.006 A 
ATOM     17  C10 UNL     1      20.893   4.399  31.730  0.00  0.00    +0.009 A 
ATOM     18  C11 UNL     1      21.399   4.425  30.418  0.00  0.00    -0.018 A 
ATOM     19  C18 UNL     1      21.777   5.660  29.862  0.00  0.00    +0.009 A 
ATOM     20  C19 UNL     1      21.649   6.840  30.598  0.00  0.00    +0.006 A 
BRANCH  18  21
ATOM     21  C12 UNL     1      21.532   3.171  29.634  0.00  0.00    -0.012 A 
ATOM     22  C13 UNL     1      21.438   1.917  30.268  0.00  0.00    +0.047 A 
ATOM     23  C14 UNL     1      21.564   0.737  29.528  0.00  0.00    +0.127 A 
ATOM     24  F1  UNL     1      21.476  -0.465  30.149  0.00  0.00    -0.205 F 
ATOM     25  C15 UNL     1      21.785   0.796  28.149  0.00  0.00    +0.076 A 
ATOM     26  C16 UNL     1      21.881   2.033  27.509  0.00  0.00    +0.127 A 
ATOM     27  F2  UNL     1      22.091   2.087  26.170  0.00  0.00    -0.205 F 
ATOM     28  C17 UNL     1      21.757   3.215  28.245  0.00  0.00    +0.047 A 
ENDBRANCH  18  21
ENDBRANCH   1  15
TORSDOF 4
ENDMDL
MODEL 8
REMARK VINA RESULT:    -6.232     14.176     16.917
REMARK INTER + INTRA:          -8.954
REMARK INTER:                  -7.845
REMARK INTRA:                  -1.110
REMARK UNBOUND:                -1.265
REMARK  Name = /home/qwerty/github/datacon2025hack/step_04_hit_selection/docking/ligands/lig_657.pdb
REMARK  7 active torsions:
REMARK  status: ('A' for Active; 'I' for Inactive)
REMARK    1  A    between atoms: C1_1  and  C2_2
REMARK    2  A    between atoms: C2_2  and  C3_3
REMARK    3  A    between atoms: C2_2  and  C4_4
REMARK    4  A    between atoms: N2_8  and  C7_9
REMARK    5  A    between atoms: C7_9  and  C8_10
REMARK    6  A    between atoms: C11_13  and  C12_14
REMARK    7  A    between atoms: N3_26  and  C21_27
REMARK                            x       y       z     vdW  Elec       q    Type
REMARK                         _______ _______ _______ _____ _____    ______ ____
ROOT
ATOM      1  C7  UNL     1      19.905   5.631  35.026  0.00  0.00    +0.158 C 
ENDROOT
BRANCH   1   6
ATOM      2  C4  UNL     1      21.802   7.297  35.388  0.00  0.00    +0.113 A 
ATOM      3  N1  UNL     1      21.984   8.643  35.463  0.00  0.00    -0.235 NA
ATOM      4  C5  UNL     1      20.818   9.137  35.009  0.00  0.00    +0.089 A 
ATOM      5  C6  UNL     1      19.954   8.134  34.747  0.00  0.00    +0.129 A 
ATOM      6  N2  UNL     1      20.533   6.955  35.030  0.00  0.00    -0.319 N 
ATOM      7  C20 UNL     1      18.623   8.613  35.034  0.00  0.00    +0.265 C 
ATOM      8  O1  UNL     1      17.558   7.943  34.990  0.00  0.00    -0.268 OA
ATOM      9  N3  UNL     1      18.703   9.982  35.427  0.00  0.00    -0.293 N 
ATOM     10  C21 UNL     1      17.575  10.820  35.810  0.00  0.00    +0.133 C 
ATOM     11  C22 UNL     1      20.115  10.387  35.453  0.00  0.00    +0.165 C 
BRANCH   2  13
ATOM     12  C1  UNL     1      23.289   6.665  37.285  0.00  0.00    +0.015 C 
ATOM     13  C2  UNL     1      22.846   6.314  35.862  0.00  0.00    +0.049 C 
ATOM     14  C3  UNL     1      24.045   6.290  34.909  0.00  0.00    +0.015 C 
ENDBRANCH   2  13
ENDBRANCH   1   6
BRANCH   1  15
ATOM     15  C8  UNL     1      20.330   4.860  33.805  0.00  0.00    -0.028 A 
ATOM     16  C9  UNL     1      21.185   3.755  33.936  0.00  0.00    +0.006 A 
ATOM     17  C10 UNL     1      21.572   3.023  32.812  0.00  0.00    +0.009 A 
ATOM     18  C11 UNL     1      21.111   3.381  31.532  0.00  0.00    -0.018 A 
ATOM     19  C18 UNL     1      20.257   4.492  31.405  0.00  0.00    +0.009 A 
ATOM     20  C19 UNL     1      19.872   5.224  32.530  0.00  0.00    +0.006 A 
BRANCH  18  21
ATOM     21  C12 UNL     1      21.519   2.601  30.336  0.00  0.00    -0.012 A 
ATOM     22  C13 UNL     1      21.650   1.201  30.406  0.00  0.00    +0.047 A 
ATOM     23  C14 UNL     1      22.035   0.468  29.279  0.00  0.00    +0.127 A 
ATOM     24  F1  UNL     1      22.164  -0.879  29.358  0.00  0.00    -0.205 F 
ATOM     25  C15 UNL     1      22.291   1.123  28.071  0.00  0.00    +0.076 A 
ATOM     26  C16 UNL     1      22.164   2.512  27.989  0.00  0.00    +0.127 A 
ATOM     27  F2  UNL     1      22.408   3.145  26.815  0.00  0.00    -0.205 F 
ATOM     28  C17 UNL     1      21.781   3.249  29.114  0.00  0.00    +0.047 A 
ENDBRANCH  18  21
ENDBRANCH   1  15
TORSDOF 4
ENDMDL
MODEL 9
REMARK VINA RESULT:    -6.177      1.931      3.281
REMARK INTER + INTRA:          -8.886
REMARK INTER:                  -7.693
REMARK INTRA:                  -1.194
REMARK UNBOUND:                -1.265
REMARK  Name = /home/qwerty/github/datacon2025hack/step_04_hit_selection/docking/ligands/lig_657.pdb
REMARK  7 active torsions:
REMARK  status: ('A' for Active; 'I' for Inactive)
REMARK    1  A    between atoms: C1_1  and  C2_2
REMARK    2  A    between atoms: C2_2  and  C3_3
REMARK    3  A    between atoms: C2_2  and  C4_4
REMARK    4  A    between atoms: N2_8  and  C7_9
REMARK    5  A    between atoms: C7_9  and  C8_10
REMARK    6  A    between atoms: C11_13  and  C12_14
REMARK    7  A    between atoms: N3_26  and  C21_27
REMARK                            x       y       z     vdW  Elec       q    Type
REMARK                         _______ _______ _______ _____ _____    ______ ____
ROOT
ATOM      1  C7  UNL     1      11.873   8.113  22.819  0.00  0.00    +0.158 C 
ENDROOT
BRANCH   1   6
ATOM      2  C4  UNL     1      10.017   8.265  21.076  0.00  0.00    +0.113 A 
ATOM      3  N1  UNL     1       9.179   7.436  20.396  0.00  0.00    -0.235 NA
ATOM      4  C5  UNL     1       9.689   6.215  20.639  0.00  0.00    +0.089 A 
ATOM      5  C6  UNL     1      10.739   6.304  21.483  0.00  0.00    +0.129 A 
ATOM      6  N2  UNL     1      10.936   7.589  21.821  0.00  0.00    -0.319 N 
ATOM      7  C20 UNL     1      10.752   5.113  22.296  0.00  0.00    +0.265 C 
ATOM      8  O1  UNL     1      11.531   4.865  23.254  0.00  0.00    -0.268 OA
ATOM      9  N3  UNL     1       9.695   4.254  21.870  0.00  0.00    -0.293 N 
ATOM     10  C21 UNL     1       9.369   2.959  22.450  0.00  0.00    +0.133 C 
ATOM     11  C22 UNL     1       8.944   4.923  20.798  0.00  0.00    +0.165 C 
BRANCH   2  13
ATOM     12  C1  UNL     1       8.317  10.055  21.414  0.00  0.00    +0.015 C 
ATOM     13  C2  UNL     1       9.795   9.756  21.146  0.00  0.00    +0.049 C 
ATOM     14  C3  UNL     1      10.264  10.439  19.858  0.00  0.00    +0.015 C 
ENDBRANCH   2  13
ENDBRANCH   1   6
BRANCH   1  15
ATOM     15  C8  UNL     1      11.117   8.691  23.985  0.00  0.00    -0.028 A 
ATOM     16  C9  UNL     1      10.156   7.916  24.652  0.00  0.00    +0.006 A 
ATOM     17  C10 UNL     1       9.462   8.438  25.746  0.00  0.00    +0.009 A 
ATOM     18  C11 UNL     1       9.715   9.746  26.195  0.00  0.00    -0.018 A 
ATOM     19  C18 UNL     1      10.676  10.521  25.521  0.00  0.00    +0.009 A 
ATOM     20  C19 UNL     1      11.370   9.999  24.427  0.00  0.00    +0.006 A 
BRANCH  18  21
ATOM     21  C12 UNL     1       8.980  10.301  27.360  0.00  0.00    -0.012 A 
ATOM     22  C13 UNL     1       9.225  11.615  27.801  0.00  0.00    +0.047 A 
ATOM     23  C14 UNL     1       8.532  12.135  28.899  0.00  0.00    +0.127 A 
ATOM     24  F1  UNL     1       8.779  13.400  29.319  0.00  0.00    -0.205 F 
ATOM     25  C15 UNL     1       7.589  11.350  29.567  0.00  0.00    +0.076 A 
ATOM     26  C16 UNL     1       7.337  10.044  29.140  0.00  0.00    +0.127 A 
ATOM     27  F2  UNL     1       6.418   9.287  29.787  0.00  0.00    -0.205 F 
ATOM     28  C17 UNL     1       8.028   9.520  28.043  0.00  0.00    +0.047 A 
ENDBRANCH  18  21
ENDBRANCH   1  15
TORSDOF 4
ENDMDL
