REMARK  Name = /home/qwerty/github/datacon2025hack/step_04_hit_selection/docking/ligands/lig_70.pdb
REMARK  7 active torsions:
REMARK  status: ('A' for Active; 'I' for Inactive)
REMARK    1  A    between atoms: C1_1  and  C2_2
REMARK    2  A    between atoms: C2_2  and  C3_3
REMARK    3  A    between atoms: C5_5  and  C6_6
REMARK    4  A    between atoms: N1_8  and  C7_9
REMARK    5  A    between atoms: C7_9  and  C8_10
REMARK    6  A    between atoms: C8_10  and  N2_11
REMARK    7  A    between atoms: C9_12  and  C10_14
REMARK                            x       y       z     vdW  Elec       q    Type
REMARK                         _______ _______ _______ _____ _____    ______ ____
ROOT
ATOM      1  C8  UNL     1       0.336   0.321  -0.017  0.00  0.00    +0.130 C 
ENDROOT
BRANCH   1   2
ATOM      2  C7  UNL     1      -0.656  -0.877  -0.037  0.00  0.00    +0.050 C 
ATOM      3  C16 UNL     1      -0.272  -1.993  -1.019  0.00  0.00    +0.027 C 
ATOM      4  C17 UNL     1      -0.103  -2.954   0.158  0.00  0.00    +0.004 C 
ATOM      5  C18 UNL     1      -0.492  -1.849   1.140  0.00  0.00    +0.027 C 
BRANCH   2   8
ATOM      6  C6  UNL     1      -3.229  -1.235  -0.268  0.00  0.00    +0.217 C 
ATOM      7  O1  UNL     1      -3.124  -2.487  -0.184  0.00  0.00    -0.275 OA
ATOM      8  N1  UNL     1      -2.047  -0.401  -0.209  0.00  0.00    -0.308 N 
ATOM      9  H10 UNL     1      -2.171   0.631  -0.295  0.00  0.00    +0.149 HD
BRANCH   6  12
ATOM     10  C3  UNL     1      -4.903   0.691   0.199  0.00  0.00    +0.001 C 
ATOM     11  C4  UNL     1      -4.771   0.555  -1.319  0.00  0.00    +0.017 C 
ATOM     12  C5  UNL     1      -4.624  -0.673  -0.425  0.00  0.00    +0.078 C 
BRANCH  10  14
ATOM     13  C1  UNL     1      -6.695   2.359   0.765  0.00  0.00    +0.004 C 
ATOM     14  C2  UNL     1      -6.334   0.879   0.717  0.00  0.00    +0.001 C 
ENDBRANCH  10  14
ENDBRANCH   6  12
ENDBRANCH   2   8
ENDBRANCH   1   2
BRANCH   1  15
ATOM     15  N2  UNL     1       1.744  -0.065   0.130  0.00  0.00    -0.309 N 
ATOM     16  C9  UNL     1       2.784   0.926   0.143  0.00  0.00    +0.247 C 
ATOM     17  O2  UNL     1       2.476   2.148   0.209  0.00  0.00    -0.270 OA
ATOM     18  H13 UNL     1       2.007  -1.065   0.266  0.00  0.00    +0.149 HD
BRANCH  16  19
ATOM     19  C10 UNL     1       4.214   0.539   0.099  0.00  0.00    +0.071 A 
ATOM     20  C11 UNL     1       4.635  -0.699  -0.450  0.00  0.00    +0.129 A 
ATOM     21  N3  UNL     1       5.959  -1.031  -0.488  0.00  0.00    -0.219 NA
ATOM     22  C12 UNL     1       6.870  -0.159   0.004  0.00  0.00    +0.235 A 
ATOM     23  N4  UNL     1       8.201  -0.361   0.028  0.00  0.00    -0.219 NA
ATOM     24  C13 UNL     1       8.671   0.777   0.598  0.00  0.00    +0.133 A 
ATOM     25  C14 UNL     1       7.622   1.632   0.901  0.00  0.00    +0.114 A 
ATOM     26  N5  UNL     1       6.496   1.018   0.516  0.00  0.00    -0.290 N 
ATOM     27  C15 UNL     1       5.204   1.416   0.584  0.00  0.00    +0.108 A 
ENDBRANCH  16  19
ENDBRANCH   1  15
TORSDOF 6
