REMARK  Name = /home/qwerty/github/datacon2025hack/step_04_hit_selection/docking/ligands/lig_713.pdb
REMARK  8 active torsions:
REMARK  status: ('A' for Active; 'I' for Inactive)
REMARK    1  A    between atoms: C1_1  and  O1_2
REMARK    2  A    between atoms: O1_2  and  C2_3
REMARK    3  A    between atoms: C5_6  and  C6_7
REMARK    4  A    between atoms: C11_15  and  C12_16
REMARK    5  A    between atoms: C12_16  and  N4_17
REMARK    6  A    between atoms: C13_18  and  C14_19
REMARK    7  A    between atoms: N5_22  and  C16_23
REMARK    8  A    between atoms: C16_23  and  C17_24
REMARK                            x       y       z     vdW  Elec       q    Type
REMARK                         _______ _______ _______ _____ _____    ______ ____
ROOT
ATOM      1  C6  UNL     1      -2.036  -1.428   0.236  0.00  0.00    +0.165 A 
ATOM      2  N1  UNL     1      -2.041  -2.337   1.232  0.00  0.00    -0.128 NA
ATOM      3  N2  UNL     1      -0.818  -2.368   1.736  0.00  0.00    -0.113 NA
ATOM      4  C7  UNL     1      -0.085  -1.481   1.039  0.00  0.00    +0.220 A 
ATOM      5  N3  UNL     1       1.288  -1.192   1.352  0.00  0.00    -0.299 N 
ATOM      6  C8  UNL     1       1.685  -1.078   2.763  0.00  0.00    +0.108 C 
ATOM      7  C9  UNL     1       3.192  -0.836   2.903  0.00  0.00    +0.019 C 
ATOM      8  C10 UNL     1       3.991  -1.884   2.113  0.00  0.00    +0.008 C 
ATOM      9  C11 UNL     1       3.478  -2.085   0.656  0.00  0.00    +0.024 C 
ATOM     10  C15 UNL     1       2.307  -1.148   0.297  0.00  0.00    +0.113 C 
ATOM     11  N5  UNL     1      -0.816  -0.862   0.082  0.00  0.00    -0.295 N 
ENDROOT
BRANCH   1  15
ATOM     12  C2  UNL     1      -5.563  -0.365  -1.962  0.00  0.00    +0.120 A 
ATOM     13  C3  UNL     1      -5.581  -0.398  -0.554  0.00  0.00    +0.046 A 
ATOM     14  C4  UNL     1      -4.432  -0.756   0.158  0.00  0.00    +0.015 A 
ATOM     15  C5  UNL     1      -3.248  -1.069  -0.523  0.00  0.00    +0.020 A 
ATOM     16  C21 UNL     1      -3.238  -1.065  -1.925  0.00  0.00    +0.015 A 
ATOM     17  C22 UNL     1      -4.387  -0.710  -2.636  0.00  0.00    +0.046 A 
BRANCH  12  19
ATOM     18  C1  UNL     1      -7.943   0.373  -2.171  0.00  0.00    +0.277 C 
ATOM     19  O1  UNL     1      -6.683   0.000  -2.722  0.00  0.00    -0.495 OA
ENDBRANCH  12  19
ENDBRANCH   1  15
BRANCH   9  20
ATOM     20  C12 UNL     1       4.613  -2.006  -0.387  0.00  0.00    +0.109 C 
BRANCH  20  21
ATOM     21  N4  UNL     1       5.239  -0.682  -0.417  0.00  0.00    -0.315 N 
ATOM     22  C13 UNL     1       4.886   0.331  -1.370  0.00  0.00    +0.210 C 
ATOM     23  C14 UNL     1       5.526   1.680  -1.296  0.00  0.00    +0.109 C 
ATOM     24  O2  UNL     1       3.996   0.114  -2.237  0.00  0.00    -0.276 OA
ATOM     25  H15 UNL     1       5.992  -0.474   0.277  0.00  0.00    +0.149 HD
ENDBRANCH  20  21
ENDBRANCH   9  20
BRANCH  11  26
ATOM     26  C16 UNL     1      -0.502   0.376  -0.648  0.00  0.00    +0.132 C 
BRANCH  26  27
ATOM     27  C17 UNL     1      -1.041   1.607   0.105  0.00  0.00    +0.037 C 
ATOM     28  C18 UNL     1      -0.864   2.884  -0.665  0.00  0.00    +0.035 C 
ATOM     29  C19 UNL     1      -0.727   3.924   0.432  0.00  0.00    +0.160 C 
ATOM     30  O3  UNL     1      -0.367   3.291   1.642  0.00  0.00    -0.379 OA
ATOM     31  C20 UNL     1      -0.296   1.907   1.394  0.00  0.00    +0.165 C 
ENDBRANCH  26  27
ENDBRANCH  11  26
TORSDOF 6
