MODEL 1
REMARK VINA RESULT:    -6.855      0.000      0.000
REMARK INTER + INTRA:         -10.111
REMARK INTER:                  -9.259
REMARK INTRA:                  -0.852
REMARK UNBOUND:                -0.852
REMARK  Name = /home/qwerty/github/datacon2025hack/step_04_hit_selection/docking/ligands/lig_294.pdb
REMARK  6 active torsions:
REMARK  status: ('A' for Active; 'I' for Inactive)
REMARK    1  A    between atoms: C1_2  and  C5_7
REMARK    2  A    between atoms: N1_3  and  C2_4
REMARK    3  A    between atoms: C9_11  and  S1_12
REMARK    4  A    between atoms: S1_12  and  N2_15
REMARK    5  A    between atoms: N2_15  and  C10_16
REMARK    6  A    between atoms: C14_21  and  C15_22
REMARK                            x       y       z     vdW  Elec       q    Type
REMARK                         _______ _______ _______ _____ _____    ______ ____
ROOT
ATOM      1  S1  UNL     1      22.549   0.714  29.336  0.00  0.00    +0.072 S 
ATOM      2  O2  UNL     1      22.202  -0.747  29.323  0.00  0.00    -0.150 OA
ATOM      3  O3  UNL     1      24.028   0.856  29.560  0.00  0.00    -0.150 OA
ENDROOT
BRANCH   1   8
ATOM      4  C5  UNL     1      20.568   1.435  25.875  0.00  0.00    +0.039 A 
ATOM      5  C6  UNL     1      21.242   2.564  25.376  0.00  0.00    +0.013 A 
ATOM      6  C7  UNL     1      22.324   3.108  26.074  0.00  0.00    +0.003 A 
ATOM      7  C8  UNL     1      22.739   2.538  27.280  0.00  0.00    +0.029 A 
ATOM      8  C9  UNL     1      22.069   1.422  27.798  0.00  0.00    +0.109 A 
ATOM      9  C20 UNL     1      20.985   0.875  27.096  0.00  0.00    +0.041 A 
BRANCH   4  11
ATOM     10  O1  UNL     1      18.653   1.640  24.489  0.00  0.00    -0.270 OA
ATOM     11  C1  UNL     1      19.416   0.868  25.134  0.00  0.00    +0.244 C 
ATOM     12  N1  UNL     1      19.159  -0.543  25.137  0.00  0.00    -0.308 N 
ATOM     13  H1  UNL     1      19.904  -1.205  25.454  0.00  0.00    +0.149 HD
BRANCH  12  14
ATOM     14  C2  UNL     1      17.956  -1.099  24.525  0.00  0.00    +0.073 C 
ATOM     15  C3  UNL     1      16.878  -1.450  25.537  0.00  0.00    +0.024 C 
ATOM     16  C4  UNL     1      17.699  -2.552  24.884  0.00  0.00    +0.024 C 
ENDBRANCH  12  14
ENDBRANCH   4  11
ENDBRANCH   1   8
BRANCH   1  17
ATOM     17  N2  UNL     1      21.692   1.496  30.626  0.00  0.00    -0.216 N 
ATOM     18  H10 UNL     1      21.015   0.911  31.166  0.00  0.00    +0.174 HD
BRANCH  17  19
ATOM     19  C10 UNL     1      21.749   2.911  30.880  0.00  0.00    +0.049 A 
ATOM     20  C11 UNL     1      20.965   3.833  30.140  0.00  0.00    +0.026 A 
ATOM     21  C12 UNL     1      21.037   5.211  30.401  0.00  0.00    +0.031 A 
ATOM     22  C13 UNL     1      21.896   5.662  31.400  0.00  0.00    +0.079 A 
ATOM     23  N3  UNL     1      22.057   6.966  31.743  0.00  0.00    -0.244 NA
ATOM     24  C14 UNL     1      22.970   7.095  32.737  0.00  0.00    +0.083 A 
ATOM     25  S2  UNL     1      23.590   5.601  33.239  0.00  0.00    -0.072 S 
ATOM     26  C18 UNL     1      22.664   4.762  32.119  0.00  0.00    +0.041 A 
ATOM     27  C19 UNL     1      22.614   3.392  31.882  0.00  0.00    +0.041 A 
BRANCH  24  28
ATOM     28  C15 UNL     1      23.323   8.406  33.363  0.00  0.00    +0.045 C 
ATOM     29  C16 UNL     1      24.523   9.097  32.731  0.00  0.00    +0.011 C 
ATOM     30  C17 UNL     1      23.122   9.623  32.472  0.00  0.00    +0.011 C 
ENDBRANCH  24  28
ENDBRANCH  17  19
ENDBRANCH   1  17
TORSDOF 6
ENDMDL
MODEL 2
REMARK VINA RESULT:    -6.779     14.047     15.224
REMARK INTER + INTRA:         -10.008
REMARK INTER:                  -9.217
REMARK INTRA:                  -0.791
REMARK UNBOUND:                -0.852
REMARK  Name = /home/qwerty/github/datacon2025hack/step_04_hit_selection/docking/ligands/lig_294.pdb
REMARK  6 active torsions:
REMARK  status: ('A' for Active; 'I' for Inactive)
REMARK    1  A    between atoms: C1_2  and  C5_7
REMARK    2  A    between atoms: N1_3  and  C2_4
REMARK    3  A    between atoms: C9_11  and  S1_12
REMARK    4  A    between atoms: S1_12  and  N2_15
REMARK    5  A    between atoms: N2_15  and  C10_16
REMARK    6  A    between atoms: C14_21  and  C15_22
REMARK                            x       y       z     vdW  Elec       q    Type
REMARK                         _______ _______ _______ _____ _____    ______ ____
ROOT
ATOM      1  S1  UNL     1       8.648  13.344  28.721  0.00  0.00    +0.072 S 
ATOM      2  O2  UNL     1       8.562  14.178  27.475  0.00  0.00    -0.150 OA
ATOM      3  O3  UNL     1       7.765  13.955  29.772  0.00  0.00    -0.150 OA
ENDROOT
BRANCH   1   8
ATOM      4  C5  UNL     1       7.883   9.919  26.695  0.00  0.00    +0.039 A 
ATOM      5  C6  UNL     1       7.394   9.076  27.710  0.00  0.00    +0.013 A 
ATOM      6  C7  UNL     1       7.269   9.546  29.020  0.00  0.00    +0.003 A 
ATOM      7  C8  UNL     1       7.637  10.856  29.335  0.00  0.00    +0.029 A 
ATOM      8  C9  UNL     1       8.139  11.703  28.338  0.00  0.00    +0.109 A 
ATOM      9  C20 UNL     1       8.263  11.233  27.024  0.00  0.00    +0.041 A 
BRANCH   4  11
ATOM     10  O1  UNL     1       8.437   8.236  25.117  0.00  0.00    -0.270 OA
ATOM     11  C1  UNL     1       8.022   9.412  25.309  0.00  0.00    +0.244 C 
ATOM     12  N1  UNL     1       7.686  10.238  24.185  0.00  0.00    -0.308 N 
ATOM     13  H1  UNL     1       7.122  11.105  24.328  0.00  0.00    +0.149 HD
BRANCH  12  14
ATOM     14  C2  UNL     1       7.945   9.800  22.816  0.00  0.00    +0.073 C 
ATOM     15  C3  UNL     1       9.284  10.277  22.279  0.00  0.00    +0.024 C 
ATOM     16  C4  UNL     1       7.995  10.935  21.808  0.00  0.00    +0.024 C 
ENDBRANCH  12  14
ENDBRANCH   4  11
ENDBRANCH   1   8
BRANCH   1  17
ATOM     17  N2  UNL     1      10.288  13.325  29.286  0.00  0.00    -0.216 N 
ATOM     18  H10 UNL     1      11.023  13.646  28.616  0.00  0.00    +0.174 HD
BRANCH  17  19
ATOM     19  C10 UNL     1      10.693  12.753  30.543  0.00  0.00    +0.049 A 
ATOM     20  C11 UNL     1      10.926  11.362  30.688  0.00  0.00    +0.026 A 
ATOM     21  C12 UNL     1      11.318  10.823  31.925  0.00  0.00    +0.031 A 
ATOM     22  C13 UNL     1      11.472  11.679  33.013  0.00  0.00    +0.079 A 
ATOM     23  N3  UNL     1      11.841  11.281  34.257  0.00  0.00    -0.244 NA
ATOM     24  C14 UNL     1      11.891  12.335  35.107  0.00  0.00    +0.083 A 
ATOM     25  S2  UNL     1      11.503  13.796  34.345  0.00  0.00    -0.072 S 
ATOM     26  C18 UNL     1      11.240  13.036  32.872  0.00  0.00    +0.041 A 
ATOM     27  C19 UNL     1      10.851  13.599  31.660  0.00  0.00    +0.041 A 
BRANCH  24  28
ATOM     28  C15 UNL     1      12.318  12.218  36.536  0.00  0.00    +0.045 C 
ATOM     29  C16 UNL     1      11.245  11.671  37.466  0.00  0.00    +0.011 C 
ATOM     30  C17 UNL     1      12.420  10.796  37.067  0.00  0.00    +0.011 C 
ENDBRANCH  24  28
ENDBRANCH  17  19
ENDBRANCH   1  17
TORSDOF 6
ENDMDL
MODEL 3
REMARK VINA RESULT:    -6.740      1.566      2.017
REMARK INTER + INTRA:          -9.956
REMARK INTER:                  -9.728
REMARK INTRA:                  -0.228
REMARK UNBOUND:                -0.852
REMARK  Name = /home/qwerty/github/datacon2025hack/step_04_hit_selection/docking/ligands/lig_294.pdb
REMARK  6 active torsions:
REMARK  status: ('A' for Active; 'I' for Inactive)
REMARK    1  A    between atoms: C1_2  and  C5_7
REMARK    2  A    between atoms: N1_3  and  C2_4
REMARK    3  A    between atoms: C9_11  and  S1_12
REMARK    4  A    between atoms: S1_12  and  N2_15
REMARK    5  A    between atoms: N2_15  and  C10_16
REMARK    6  A    between atoms: C14_21  and  C15_22
REMARK                            x       y       z     vdW  Elec       q    Type
REMARK                         _______ _______ _______ _____ _____    ______ ____
ROOT
ATOM      1  S1  UNL     1      22.394   0.389  29.112  0.00  0.00    +0.072 S 
ATOM      2  O2  UNL     1      22.640  -1.062  28.817  0.00  0.00    -0.150 OA
ATOM      3  O3  UNL     1      23.662   0.994  29.645  0.00  0.00    -0.150 OA
ENDROOT
BRANCH   1   8
ATOM      4  C5  UNL     1      20.350   1.312  25.736  0.00  0.00    +0.039 A 
ATOM      5  C6  UNL     1      21.012   2.472  25.296  0.00  0.00    +0.013 A 
ATOM      6  C7  UNL     1      22.104   2.977  26.007  0.00  0.00    +0.003 A 
ATOM      7  C8  UNL     1      22.542   2.337  27.168  0.00  0.00    +0.029 A 
ATOM      8  C9  UNL     1      21.885   1.188  27.628  0.00  0.00    +0.109 A 
ATOM      9  C20 UNL     1      20.791   0.680  26.914  0.00  0.00    +0.041 A 
BRANCH   4  11
ATOM     10  O1  UNL     1      18.435   1.589  24.364  0.00  0.00    -0.270 OA
ATOM     11  C1  UNL     1      19.188   0.787  24.982  0.00  0.00    +0.244 C 
ATOM     12  N1  UNL     1      18.910  -0.621  24.941  0.00  0.00    -0.308 N 
ATOM     13  H1  UNL     1      19.644  -1.303  25.235  0.00  0.00    +0.149 HD
BRANCH  12  14
ATOM     14  C2  UNL     1      17.696  -1.138  24.316  0.00  0.00    +0.073 C 
ATOM     15  C3  UNL     1      16.605  -1.477  25.319  0.00  0.00    +0.024 C 
ATOM     16  C4  UNL     1      17.402  -2.590  24.654  0.00  0.00    +0.024 C 
ENDBRANCH  12  14
ENDBRANCH   4  11
ENDBRANCH   1   8
BRANCH   1  17
ATOM     17  N2  UNL     1      21.142   0.530  30.304  0.00  0.00    -0.216 N 
ATOM     18  H10 UNL     1      20.270  -0.023  30.140  0.00  0.00    +0.174 HD
BRANCH  17  19
ATOM     19  C10 UNL     1      21.179   1.467  31.395  0.00  0.00    +0.049 A 
ATOM     20  C11 UNL     1      20.520   1.206  32.624  0.00  0.00    +0.026 A 
ATOM     21  C12 UNL     1      20.565   2.135  33.677  0.00  0.00    +0.031 A 
ATOM     22  C13 UNL     1      21.267   3.324  33.494  0.00  0.00    +0.079 A 
ATOM     23  N3  UNL     1      21.381   4.300  34.431  0.00  0.00    -0.244 NA
ATOM     24  C14 UNL     1      22.110   5.341  33.958  0.00  0.00    +0.083 A 
ATOM     25  S2  UNL     1      22.656   5.079  32.377  0.00  0.00    -0.072 S 
ATOM     26  C18 UNL     1      21.906   3.580  32.293  0.00  0.00    +0.041 A 
ATOM     27  C19 UNL     1      21.878   2.679  31.233  0.00  0.00    +0.041 A 
BRANCH  24  28
ATOM     28  C15 UNL     1      22.451   6.544  34.779  0.00  0.00    +0.045 C 
ATOM     29  C16 UNL     1      23.394   6.261  35.939  0.00  0.00    +0.011 C 
ATOM     30  C17 UNL     1      23.906   6.985  34.706  0.00  0.00    +0.011 C 
ENDBRANCH  24  28
ENDBRANCH  17  19
ENDBRANCH   1  17
TORSDOF 6
ENDMDL
MODEL 4
REMARK VINA RESULT:    -6.713      4.002      7.660
REMARK INTER + INTRA:          -9.919
REMARK INTER:                  -9.654
REMARK INTRA:                  -0.265
REMARK UNBOUND:                -0.852
REMARK  Name = /home/qwerty/github/datacon2025hack/step_04_hit_selection/docking/ligands/lig_294.pdb
REMARK  6 active torsions:
REMARK  status: ('A' for Active; 'I' for Inactive)
REMARK    1  A    between atoms: C1_2  and  C5_7
REMARK    2  A    between atoms: N1_3  and  C2_4
REMARK    3  A    between atoms: C9_11  and  S1_12
REMARK    4  A    between atoms: S1_12  and  N2_15
REMARK    5  A    between atoms: N2_15  and  C10_16
REMARK    6  A    between atoms: C14_21  and  C15_22
REMARK                            x       y       z     vdW  Elec       q    Type
REMARK                         _______ _______ _______ _____ _____    ______ ____
ROOT
ATOM      1  S1  UNL     1      22.386   0.299  28.920  0.00  0.00    +0.072 S 
ATOM      2  O2  UNL     1      23.772   0.839  28.715  0.00  0.00    -0.150 OA
ATOM      3  O3  UNL     1      22.467  -1.197  29.047  0.00  0.00    -0.150 OA
ENDROOT
BRANCH   1   8
ATOM      4  C5  UNL     1      20.056   0.966  32.168  0.00  0.00    +0.039 A 
ATOM      5  C6  UNL     1      20.640   2.120  32.720  0.00  0.00    +0.013 A 
ATOM      6  C7  UNL     1      21.737   2.724  32.100  0.00  0.00    +0.003 A 
ATOM      7  C8  UNL     1      22.268   2.181  30.928  0.00  0.00    +0.029 A 
ATOM      8  C9  UNL     1      21.707   1.024  30.373  0.00  0.00    +0.109 A 
ATOM      9  C20 UNL     1      20.605   0.419  30.993  0.00  0.00    +0.041 A 
BRANCH   4  11
ATOM     10  O1  UNL     1      18.303  -0.630  32.262  0.00  0.00    -0.270 OA
ATOM     11  C1  UNL     1      18.899   0.324  32.835  0.00  0.00    +0.244 C 
ATOM     12  N1  UNL     1      18.450   0.768  34.123  0.00  0.00    -0.308 N 
ATOM     13  H1  UNL     1      19.068   1.377  34.706  0.00  0.00    +0.149 HD
BRANCH  12  14
ATOM     14  C2  UNL     1      17.233   0.237  34.730  0.00  0.00    +0.073 C 
ATOM     15  C3  UNL     1      16.323   1.317  35.290  0.00  0.00    +0.024 C 
ATOM     16  C4  UNL     1      17.150   0.453  36.231  0.00  0.00    +0.024 C 
ENDBRANCH  12  14
ENDBRANCH   4  11
ENDBRANCH   1   8
BRANCH   1  17
ATOM     17  N2  UNL     1      21.401   0.709  27.552  0.00  0.00    -0.216 N 
ATOM     18  H10 UNL     1      20.728  -0.018  27.220  0.00  0.00    +0.174 HD
BRANCH  17  19
ATOM     19  C10 UNL     1      21.571   1.909  26.776  0.00  0.00    +0.049 A 
ATOM     20  C11 UNL     1      22.322   3.010  27.262  0.00  0.00    +0.026 A 
ATOM     21  C12 UNL     1      22.474   4.174  26.490  0.00  0.00    +0.031 A 
ATOM     22  C13 UNL     1      21.870   4.232  25.236  0.00  0.00    +0.079 A 
ATOM     23  N3  UNL     1      21.940   5.299  24.399  0.00  0.00    -0.244 NA
ATOM     24  C14 UNL     1      21.242   5.067  23.261  0.00  0.00    +0.083 A 
ATOM     25  S2  UNL     1      20.536   3.528  23.241  0.00  0.00    -0.072 S 
ATOM     26  C18 UNL     1      21.134   3.159  24.765  0.00  0.00    +0.041 A 
ATOM     27  C19 UNL     1      20.966   1.994  25.507  0.00  0.00    +0.041 A 
BRANCH  24  28
ATOM     28  C15 UNL     1      21.176   6.038  22.125  0.00  0.00    +0.045 C 
ATOM     29  C16 UNL     1      22.473   6.169  21.340  0.00  0.00    +0.011 C 
ATOM     30  C17 UNL     1      21.295   5.422  20.739  0.00  0.00    +0.011 C 
ENDBRANCH  24  28
ENDBRANCH  17  19
ENDBRANCH   1  17
TORSDOF 6
ENDMDL
MODEL 5
REMARK VINA RESULT:    -6.671      3.268      8.286
REMARK INTER + INTRA:          -9.863
REMARK INTER:                  -9.702
REMARK INTRA:                  -0.160
REMARK UNBOUND:                -0.852
REMARK  Name = /home/qwerty/github/datacon2025hack/step_04_hit_selection/docking/ligands/lig_294.pdb
REMARK  6 active torsions:
REMARK  status: ('A' for Active; 'I' for Inactive)
REMARK    1  A    between atoms: C1_2  and  C5_7
REMARK    2  A    between atoms: N1_3  and  C2_4
REMARK    3  A    between atoms: C9_11  and  S1_12
REMARK    4  A    between atoms: S1_12  and  N2_15
REMARK    5  A    between atoms: N2_15  and  C10_16
REMARK    6  A    between atoms: C14_21  and  C15_22
REMARK                            x       y       z     vdW  Elec       q    Type
REMARK                         _______ _______ _______ _____ _____    ______ ____
ROOT
ATOM      1  S1  UNL     1      22.528   0.493  28.903  0.00  0.00    +0.072 S 
ATOM      2  O2  UNL     1      23.833   1.224  28.769  0.00  0.00    -0.150 OA
ATOM      3  O3  UNL     1      22.805  -0.983  28.949  0.00  0.00    -0.150 OA
ENDROOT
BRANCH   1   8
ATOM      4  C5  UNL     1      21.505   2.689  32.152  0.00  0.00    +0.039 A 
ATOM      5  C6  UNL     1      20.428   1.955  32.680  0.00  0.00    +0.013 A 
ATOM      6  C7  UNL     1      20.012   0.769  32.068  0.00  0.00    +0.003 A 
ATOM      7  C8  UNL     1      20.660   0.307  30.920  0.00  0.00    +0.029 A 
ATOM      8  C9  UNL     1      21.725   1.035  30.373  0.00  0.00    +0.109 A 
ATOM      9  C20 UNL     1      22.143   2.223  30.987  0.00  0.00    +0.041 A 
BRANCH   4  11
ATOM     10  O1  UNL     1      21.072   4.693  33.346  0.00  0.00    -0.270 OA
ATOM     11  C1  UNL     1      21.934   3.951  32.799  0.00  0.00    +0.244 C 
ATOM     12  N1  UNL     1      23.316   4.337  32.819  0.00  0.00    -0.308 N 
ATOM     13  H1  UNL     1      24.055   3.633  32.593  0.00  0.00    +0.149 HD
BRANCH  12  14
ATOM     14  C2  UNL     1      23.735   5.638  33.334  0.00  0.00    +0.073 C 
ATOM     15  C3  UNL     1      24.134   6.614  32.239  0.00  0.00    +0.024 C 
ATOM     16  C4  UNL     1      25.203   5.948  33.094  0.00  0.00    +0.024 C 
ENDBRANCH  12  14
ENDBRANCH   4  11
ENDBRANCH   1   8
BRANCH   1  17
ATOM     17  N2  UNL     1      21.527   0.850  27.532  0.00  0.00    -0.216 N 
ATOM     18  H10 UNL     1      20.848   0.111  27.238  0.00  0.00    +0.174 HD
BRANCH  17  19
ATOM     19  C10 UNL     1      21.690   2.016  26.705  0.00  0.00    +0.049 A 
ATOM     20  C11 UNL     1      22.571   3.067  27.065  0.00  0.00    +0.026 A 
ATOM     21  C12 UNL     1      22.715   4.199  26.245  0.00  0.00    +0.031 A 
ATOM     22  C13 UNL     1      21.972   4.276  25.070  0.00  0.00    +0.079 A 
ATOM     23  N3  UNL     1      22.018   5.317  24.199  0.00  0.00    -0.244 NA
ATOM     24  C14 UNL     1      21.174   5.114  23.158  0.00  0.00    +0.083 A 
ATOM     25  S2  UNL     1      20.360   3.633  23.268  0.00  0.00    -0.072 S 
ATOM     26  C18 UNL     1      21.108   3.252  24.722  0.00  0.00    +0.041 A 
ATOM     27  C19 UNL     1      20.945   2.119  25.513  0.00  0.00    +0.041 A 
BRANCH  24  28
ATOM     28  C15 UNL     1      21.044   6.063  22.009  0.00  0.00    +0.045 C 
ATOM     29  C16 UNL     1      22.180   5.980  21.000  0.00  0.00    +0.011 C 
ATOM     30  C17 UNL     1      20.815   5.410  20.654  0.00  0.00    +0.011 C 
ENDBRANCH  24  28
ENDBRANCH  17  19
ENDBRANCH   1  17
TORSDOF 6
ENDMDL
MODEL 6
REMARK VINA RESULT:    -6.656     14.515     17.110
REMARK INTER + INTRA:          -9.842
REMARK INTER:                  -9.271
REMARK INTRA:                  -0.570
REMARK UNBOUND:                -0.852
REMARK  Name = /home/qwerty/github/datacon2025hack/step_04_hit_selection/docking/ligands/lig_294.pdb
REMARK  6 active torsions:
REMARK  status: ('A' for Active; 'I' for Inactive)
REMARK    1  A    between atoms: C1_2  and  C5_7
REMARK    2  A    between atoms: N1_3  and  C2_4
REMARK    3  A    between atoms: C9_11  and  S1_12
REMARK    4  A    between atoms: S1_12  and  N2_15
REMARK    5  A    between atoms: N2_15  and  C10_16
REMARK    6  A    between atoms: C14_21  and  C15_22
REMARK                            x       y       z     vdW  Elec       q    Type
REMARK                         _______ _______ _______ _____ _____    ______ ____
ROOT
ATOM      1  S1  UNL     1       8.709  12.254  28.405  0.00  0.00    +0.072 S 
ATOM      2  O2  UNL     1       7.862  11.978  29.614  0.00  0.00    -0.150 OA
ATOM      3  O3  UNL     1       7.877  12.989  27.392  0.00  0.00    -0.150 OA
ENDROOT
BRANCH   1   8
ATOM      4  C5  UNL     1      11.475  14.147  30.684  0.00  0.00    +0.039 A 
ATOM      5  C6  UNL     1      12.343  14.681  29.715  0.00  0.00    +0.013 A 
ATOM      6  C7  UNL     1      12.087  14.493  28.354  0.00  0.00    +0.003 A 
ATOM      7  C8  UNL     1      10.968  13.764  27.945  0.00  0.00    +0.029 A 
ATOM      8  C9  UNL     1      10.101  13.212  28.898  0.00  0.00    +0.109 A 
ATOM      9  C20 UNL     1      10.357  13.403  30.263  0.00  0.00    +0.041 A 
BRANCH   4  11
ATOM     10  O1  UNL     1      12.308  15.412  32.511  0.00  0.00    -0.270 OA
ATOM     11  C1  UNL     1      11.757  14.343  32.126  0.00  0.00    +0.244 C 
ATOM     12  N1  UNL     1      11.407  13.339  33.089  0.00  0.00    -0.308 N 
ATOM     13  H1  UNL     1      10.744  12.576  32.825  0.00  0.00    +0.149 HD
BRANCH  12  14
ATOM     14  C2  UNL     1      11.800  13.460  34.491  0.00  0.00    +0.073 C 
ATOM     15  C3  UNL     1      11.130  12.434  35.390  0.00  0.00    +0.024 C 
ATOM     16  C4  UNL     1      10.667  13.884  35.410  0.00  0.00    +0.024 C 
ENDBRANCH  12  14
ENDBRANCH   4  11
ENDBRANCH   1   8
BRANCH   1  17
ATOM     17  N2  UNL     1       9.251  10.752  27.728  0.00  0.00    -0.216 N 
ATOM     18  H10 UNL     1       9.797  10.121  28.357  0.00  0.00    +0.174 HD
BRANCH  17  19
ATOM     19  C10 UNL     1       9.125  10.412  26.336  0.00  0.00    +0.049 A 
ATOM     20  C11 UNL     1       7.881  10.031  25.771  0.00  0.00    +0.026 A 
ATOM     21  C12 UNL     1       7.780   9.699  24.410  0.00  0.00    +0.031 A 
ATOM     22  C13 UNL     1       8.925   9.747  23.619  0.00  0.00    +0.079 A 
ATOM     23  N3  UNL     1       8.958   9.446  22.296  0.00  0.00    -0.244 NA
ATOM     24  C14 UNL     1      10.214   9.569  21.803  0.00  0.00    +0.083 A 
ATOM     25  S2  UNL     1      11.321  10.074  22.981  0.00  0.00    -0.072 S 
ATOM     26  C18 UNL     1      10.140  10.114  24.172  0.00  0.00    +0.041 A 
ATOM     27  C19 UNL     1      10.271  10.447  25.517  0.00  0.00    +0.041 A 
BRANCH  24  28
ATOM     28  C15 UNL     1      10.556   9.354  20.363  0.00  0.00    +0.045 C 
ATOM     29  C16 UNL     1      10.433  10.602  19.500  0.00  0.00    +0.011 C 
ATOM     30  C17 UNL     1      11.806  10.075  19.881  0.00  0.00    +0.011 C 
ENDBRANCH  24  28
ENDBRANCH  17  19
ENDBRANCH   1  17
TORSDOF 6
ENDMDL
MODEL 7
REMARK VINA RESULT:    -6.622     13.427     14.871
REMARK INTER + INTRA:          -9.797
REMARK INTER:                  -8.881
REMARK INTRA:                  -0.916
REMARK UNBOUND:                -0.852
REMARK  Name = /home/qwerty/github/datacon2025hack/step_04_hit_selection/docking/ligands/lig_294.pdb
REMARK  6 active torsions:
REMARK  status: ('A' for Active; 'I' for Inactive)
REMARK    1  A    between atoms: C1_2  and  C5_7
REMARK    2  A    between atoms: N1_3  and  C2_4
REMARK    3  A    between atoms: C9_11  and  S1_12
REMARK    4  A    between atoms: S1_12  and  N2_15
REMARK    5  A    between atoms: N2_15  and  C10_16
REMARK    6  A    between atoms: C14_21  and  C15_22
REMARK                            x       y       z     vdW  Elec       q    Type
REMARK                         _______ _______ _______ _____ _____    ______ ____
ROOT
ATOM      1  S1  UNL     1       8.732  13.230  29.093  0.00  0.00    +0.072 S 
ATOM      2  O2  UNL     1       7.549  14.116  29.356  0.00  0.00    -0.150 OA
ATOM      3  O3  UNL     1       9.594  13.198  30.324  0.00  0.00    -0.150 OA
ENDROOT
BRANCH   1   8
ATOM      4  C5  UNL     1       7.801   9.883  27.007  0.00  0.00    +0.039 A 
ATOM      5  C6  UNL     1       7.290   9.040  28.010  0.00  0.00    +0.013 A 
ATOM      6  C7  UNL     1       7.201   9.486  29.331  0.00  0.00    +0.003 A 
ATOM      7  C8  UNL     1       7.626  10.773  29.668  0.00  0.00    +0.029 A 
ATOM      8  C9  UNL     1       8.151  11.620  28.683  0.00  0.00    +0.109 A 
ATOM      9  C20 UNL     1       8.239  11.173  27.357  0.00  0.00    +0.041 A 
BRANCH   4  11
ATOM     10  O1  UNL     1       8.288   8.220  25.386  0.00  0.00    -0.270 OA
ATOM     11  C1  UNL     1       7.901   9.401  25.609  0.00  0.00    +0.244 C 
ATOM     12  N1  UNL     1       7.560  10.255  24.507  0.00  0.00    -0.308 N 
ATOM     13  H1  UNL     1       7.017  11.131  24.679  0.00  0.00    +0.149 HD
BRANCH  12  14
ATOM     14  C2  UNL     1       7.782   9.839  23.125  0.00  0.00    +0.073 C 
ATOM     15  C3  UNL     1       9.099  10.338  22.555  0.00  0.00    +0.024 C 
ATOM     16  C4  UNL     1       7.790  10.988  22.132  0.00  0.00    +0.024 C 
ENDBRANCH  12  14
ENDBRANCH   4  11
ENDBRANCH   1   8
BRANCH   1  17
ATOM     17  N2  UNL     1       9.646  13.871  27.765  0.00  0.00    -0.216 N 
ATOM     18  H10 UNL     1       9.103  14.239  26.952  0.00  0.00    +0.174 HD
BRANCH  17  19
ATOM     19  C10 UNL     1      11.078  13.779  27.663  0.00  0.00    +0.049 A 
ATOM     20  C11 UNL     1      11.897  14.935  27.598  0.00  0.00    +0.026 A 
ATOM     21  C12 UNL     1      13.294  14.824  27.495  0.00  0.00    +0.031 A 
ATOM     22  C13 UNL     1      13.866  13.555  27.454  0.00  0.00    +0.079 A 
ATOM     23  N3  UNL     1      15.198  13.317  27.352  0.00  0.00    -0.244 NA
ATOM     24  C14 UNL     1      15.450  11.986  27.320  0.00  0.00    +0.083 A 
ATOM     25  S2  UNL     1      14.037  11.060  27.440  0.00  0.00    -0.072 S 
ATOM     26  C18 UNL     1      13.066  12.427  27.513  0.00  0.00    +0.041 A 
ATOM     27  C19 UNL     1      11.680  12.506  27.614  0.00  0.00    +0.041 A 
BRANCH  24  28
ATOM     28  C15 UNL     1      16.830  11.412  27.264  0.00  0.00    +0.045 C 
ATOM     29  C16 UNL     1      17.338  11.146  25.854  0.00  0.00    +0.011 C 
ATOM     30  C17 UNL     1      17.884  12.320  26.649  0.00  0.00    +0.011 C 
ENDBRANCH  24  28
ENDBRANCH  17  19
ENDBRANCH   1  17
TORSDOF 6
ENDMDL
MODEL 8
REMARK VINA RESULT:    -6.621      5.190      7.318
REMARK INTER + INTRA:          -9.796
REMARK INTER:                  -8.999
REMARK INTRA:                  -0.796
REMARK UNBOUND:                -0.852
REMARK  Name = /home/qwerty/github/datacon2025hack/step_04_hit_selection/docking/ligands/lig_294.pdb
REMARK  6 active torsions:
REMARK  status: ('A' for Active; 'I' for Inactive)
REMARK    1  A    between atoms: C1_2  and  C5_7
REMARK    2  A    between atoms: N1_3  and  C2_4
REMARK    3  A    between atoms: C9_11  and  S1_12
REMARK    4  A    between atoms: S1_12  and  N2_15
REMARK    5  A    between atoms: N2_15  and  C10_16
REMARK    6  A    between atoms: C14_21  and  C15_22
REMARK                            x       y       z     vdW  Elec       q    Type
REMARK                         _______ _______ _______ _____ _____    ______ ____
ROOT
ATOM      1  S1  UNL     1      18.315   4.505  22.497  0.00  0.00    +0.072 S 
ATOM      2  O2  UNL     1      18.251   5.777  21.702  0.00  0.00    -0.150 OA
ATOM      3  O3  UNL     1      17.840   4.787  23.895  0.00  0.00    -0.150 OA
ENDROOT
BRANCH   1   8
ATOM      4  C5  UNL     1      16.194   1.125  21.785  0.00  0.00    +0.039 A 
ATOM      5  C6  UNL     1      15.641   1.383  20.518  0.00  0.00    +0.013 A 
ATOM      6  C7  UNL     1      15.923   2.579  19.853  0.00  0.00    +0.003 A 
ATOM      7  C8  UNL     1      16.753   3.534  20.446  0.00  0.00    +0.029 A 
ATOM      8  C9  UNL     1      17.301   3.298  21.714  0.00  0.00    +0.109 A 
ATOM      9  C20 UNL     1      17.019   2.098  22.380  0.00  0.00    +0.041 A 
BRANCH   4  11
ATOM     10  O1  UNL     1      14.680  -0.484  22.648  0.00  0.00    -0.270 OA
ATOM     11  C1  UNL     1      15.884  -0.141  22.490  0.00  0.00    +0.244 C 
ATOM     12  N1  UNL     1      16.932  -0.984  22.990  0.00  0.00    -0.308 N 
ATOM     13  H1  UNL     1      17.914  -0.841  22.659  0.00  0.00    +0.149 HD
BRANCH  12  14
ATOM     14  C2  UNL     1      16.640  -2.162  23.801  0.00  0.00    +0.073 C 
ATOM     15  C3  UNL     1      16.487  -1.847  25.280  0.00  0.00    +0.024 C 
ATOM     16  C4  UNL     1      17.749  -2.530  24.771  0.00  0.00    +0.024 C 
ENDBRANCH  12  14
ENDBRANCH   4  11
ENDBRANCH   1   8
BRANCH   1  17
ATOM     17  N2  UNL     1      19.954   3.940  22.547  0.00  0.00    -0.216 N 
ATOM     18  H10 UNL     1      20.411   3.736  21.630  0.00  0.00    +0.174 HD
BRANCH  17  19
ATOM     19  C10 UNL     1      20.644   3.596  23.762  0.00  0.00    +0.049 A 
ATOM     20  C11 UNL     1      21.751   4.349  24.228  0.00  0.00    +0.026 A 
ATOM     21  C12 UNL     1      22.414   3.995  25.416  0.00  0.00    +0.031 A 
ATOM     22  C13 UNL     1      21.968   2.886  26.130  0.00  0.00    +0.079 A 
ATOM     23  N3  UNL     1      22.524   2.441  27.285  0.00  0.00    -0.244 NA
ATOM     24  C14 UNL     1      21.884   1.336  27.736  0.00  0.00    +0.083 A 
ATOM     25  S2  UNL     1      20.595   0.885  26.735  0.00  0.00    -0.072 S 
ATOM     26  C18 UNL     1      20.890   2.149  25.671  0.00  0.00    +0.041 A 
ATOM     27  C19 UNL     1      20.214   2.475  24.499  0.00  0.00    +0.041 A 
BRANCH  24  28
ATOM     28  C15 UNL     1      22.237   0.647  29.016  0.00  0.00    +0.045 C 
ATOM     29  C16 UNL     1      22.855  -0.731  28.833  0.00  0.00    +0.011 C 
ATOM     30  C17 UNL     1      23.726   0.441  29.251  0.00  0.00    +0.011 C 
ENDBRANCH  24  28
ENDBRANCH  17  19
ENDBRANCH   1  17
TORSDOF 6
ENDMDL
MODEL 9
REMARK VINA RESULT:    -6.463     13.118     16.453
REMARK INTER + INTRA:          -9.581
REMARK INTER:                  -8.739
REMARK INTRA:                  -0.842
REMARK UNBOUND:                -0.852
REMARK  Name = /home/qwerty/github/datacon2025hack/step_04_hit_selection/docking/ligands/lig_294.pdb
REMARK  6 active torsions:
REMARK  status: ('A' for Active; 'I' for Inactive)
REMARK    1  A    between atoms: C1_2  and  C5_7
REMARK    2  A    between atoms: N1_3  and  C2_4
REMARK    3  A    between atoms: C9_11  and  S1_12
REMARK    4  A    between atoms: S1_12  and  N2_15
REMARK    5  A    between atoms: N2_15  and  C10_16
REMARK    6  A    between atoms: C14_21  and  C15_22
REMARK                            x       y       z     vdW  Elec       q    Type
REMARK                         _______ _______ _______ _____ _____    ______ ____
ROOT
ATOM      1  S1  UNL     1      10.581   9.656  20.683  0.00  0.00    +0.072 S 
ATOM      2  O2  UNL     1      10.708  10.762  19.676  0.00  0.00    -0.150 OA
ATOM      3  O3  UNL     1      11.890   9.511  21.407  0.00  0.00    -0.150 OA
ENDROOT
BRANCH   1   8
ATOM      4  C5  UNL     1       8.280   9.844  24.014  0.00  0.00    +0.039 A 
ATOM      5  C6  UNL     1       7.252  10.718  23.616  0.00  0.00    +0.013 A 
ATOM      6  C7  UNL     1       7.232  11.245  22.322  0.00  0.00    +0.003 A 
ATOM      7  C8  UNL     1       8.240  10.912  21.413  0.00  0.00    +0.029 A 
ATOM      8  C9  UNL     1       9.278  10.054  21.798  0.00  0.00    +0.109 A 
ATOM      9  C20 UNL     1       9.297   9.524  23.096  0.00  0.00    +0.041 A 
BRANCH   4  11
ATOM     10  O1  UNL     1       8.951   8.241  25.629  0.00  0.00    -0.270 OA
ATOM     11  C1  UNL     1       8.300   9.296  25.391  0.00  0.00    +0.244 C 
ATOM     12  N1  UNL     1       7.597   9.951  26.456  0.00  0.00    -0.308 N 
ATOM     13  H1  UNL     1       7.266  10.934  26.332  0.00  0.00    +0.149 HD
BRANCH  12  14
ATOM     14  C2  UNL     1       7.498   9.351  27.784  0.00  0.00    +0.073 C 
ATOM     15  C3  UNL     1       7.483  10.378  28.904  0.00  0.00    +0.024 C 
ATOM     16  C4  UNL     1       8.735   9.553  28.642  0.00  0.00    +0.024 C 
ENDBRANCH  12  14
ENDBRANCH   4  11
ENDBRANCH   1   8
BRANCH   1  17
ATOM     17  N2  UNL     1      10.208   8.173  19.864  0.00  0.00    -0.216 N 
ATOM     18  H10 UNL     1      10.212   8.197  18.819  0.00  0.00    +0.174 HD
BRANCH  17  19
ATOM     19  C10 UNL     1       9.750   6.984  20.532  0.00  0.00    +0.049 A 
ATOM     20  C11 UNL     1       8.369   6.709  20.701  0.00  0.00    +0.026 A 
ATOM     21  C12 UNL     1       7.941   5.544  21.360  0.00  0.00    +0.031 A 
ATOM     22  C13 UNL     1       8.899   4.660  21.850  0.00  0.00    +0.079 A 
ATOM     23  N3  UNL     1       8.614   3.506  22.507  0.00  0.00    -0.244 NA
ATOM     24  C14 UNL     1       9.751   2.866  22.875  0.00  0.00    +0.083 A 
ATOM     25  S2  UNL     1      11.144   3.694  22.382  0.00  0.00    -0.072 S 
ATOM     26  C18 UNL     1      10.247   4.931  21.690  0.00  0.00    +0.041 A 
ATOM     27  C19 UNL     1      10.700   6.077  21.042  0.00  0.00    +0.041 A 
BRANCH  24  28
ATOM     28  C15 UNL     1       9.759   1.541  23.569  0.00  0.00    +0.045 C 
ATOM     29  C16 UNL     1       9.841   0.346  22.631  0.00  0.00    +0.011 C 
ATOM     30  C17 UNL     1      11.056   0.755  23.445  0.00  0.00    +0.011 C 
ENDBRANCH  24  28
ENDBRANCH  17  19
ENDBRANCH   1  17
TORSDOF 6
ENDMDL
