MODEL 1
REMARK VINA RESULT:    -7.367      0.000      0.000
REMARK INTER + INTRA:          -8.338
REMARK INTER:                  -8.659
REMARK INTRA:                   0.321
REMARK UNBOUND:                 0.321
REMARK  Name = /home/qwerty/github/datacon2025hack/step_04_hit_selection/docking/ligands/lig_662.pdb
REMARK  4 active torsions:
REMARK  status: ('A' for Active; 'I' for Inactive)
REMARK    1  A    between atoms: C1_1  and  C2_2
REMARK    2  A    between atoms: C3_3  and  N1_4
REMARK    3  A    between atoms: C10_13  and  C11_14
REMARK    4  A    between atoms: C19_23  and  C20_24
REMARK                            x       y       z     vdW  Elec       q    Type
REMARK                         _______ _______ _______ _____ _____    ______ ____
ROOT
ATOM      1  N1  UNL     1      20.676   4.462  30.626  0.00  0.00    -0.269 N 
ATOM      2  C4  UNL     1      21.256   5.706  31.038  0.00  0.00    +0.307 C 
ATOM      3  O1  UNL     1      22.174   6.240  30.359  0.00  0.00    -0.252 OA
ATOM      4  N2  UNL     1      20.782   6.356  32.216  0.00  0.00    -0.281 N 
ATOM      5  C5  UNL     1      19.716   6.127  33.219  0.00  0.00    +0.118 C 
ATOM      6  C6  UNL     1      19.987   7.372  34.002  0.00  0.00    +0.005 C 
ATOM      7  C7  UNL     1      20.089   7.263  35.520  0.00  0.00    +0.010 C 
ATOM      8  C8  UNL     1      18.953   8.283  35.628  0.00  0.00    +0.001 C 
ATOM      9  C9  UNL     1      18.872   8.403  34.104  0.00  0.00    +0.010 C 
ATOM     10  C10 UNL     1      21.084   7.587  32.987  0.00  0.00    +0.088 C 
ATOM     11  H4  UNL     1      19.854   4.097  31.157  0.00  0.00    +0.156 HD
ENDROOT
BRANCH   1  14
ATOM     12  C1  UNL     1      21.914   1.868  31.203  0.00  0.00    +0.046 C 
ATOM     13  C2  UNL     1      21.864   2.433  29.800  0.00  0.00    -0.018 A 
ATOM     14  C3  UNL     1      21.212   3.671  29.552  0.00  0.00    +0.038 A 
ATOM     15  C16 UNL     1      21.140   4.175  28.246  0.00  0.00    +0.023 A 
ATOM     16  C17 UNL     1      21.706   3.477  27.185  0.00  0.00    +0.003 A 
ATOM     17  C18 UNL     1      22.356   2.269  27.411  0.00  0.00    +0.012 A 
ATOM     18  C19 UNL     1      22.443   1.722  28.705  0.00  0.00    +0.027 A 
BRANCH  18  19
ATOM     19  C20 UNL     1      23.154   0.420  28.853  0.00  0.00    +0.205 A 
ATOM     20  N3  UNL     1      24.480   0.310  29.087  0.00  0.00    -0.108 NA
ATOM     21  N4  UNL     1      24.720  -0.989  29.121  0.00  0.00    -0.049 NA
ATOM     22  N5  UNL     1      23.591  -1.643  28.912  0.00  0.00    -0.176 N 
ATOM     23  N6  UNL     1      22.590  -0.799  28.736  0.00  0.00    -0.133 NA
ATOM     24  H26 UNL     1      23.502  -2.683  28.886  0.00  0.00    +0.214 HD
ENDBRANCH  18  19
ENDBRANCH   1  14
BRANCH  10  25
ATOM     25  C11 UNL     1      22.574   7.615  33.428  0.00  0.00    +0.014 C 
ATOM     26  C12 UNL     1      23.511   8.428  32.510  0.00  0.00    +0.033 C 
ATOM     27  C13 UNL     1      24.959   8.304  33.000  0.00  0.00    +0.160 C 
ATOM     28  O2  UNL     1      25.351   6.946  33.071  0.00  0.00    -0.380 OA
ATOM     29  C14 UNL     1      24.613   6.283  34.080  0.00  0.00    +0.160 C 
ATOM     30  C15 UNL     1      23.125   6.207  33.714  0.00  0.00    +0.033 C 
ENDBRANCH  10  25
TORSDOF 3
ENDMDL
MODEL 2
REMARK VINA RESULT:    -7.289      6.021      9.812
REMARK INTER + INTRA:          -8.246
REMARK INTER:                  -8.630
REMARK INTRA:                   0.384
REMARK UNBOUND:                 0.321
REMARK  Name = /home/qwerty/github/datacon2025hack/step_04_hit_selection/docking/ligands/lig_662.pdb
REMARK  4 active torsions:
REMARK  status: ('A' for Active; 'I' for Inactive)
REMARK    1  A    between atoms: C1_1  and  C2_2
REMARK    2  A    between atoms: C3_3  and  N1_4
REMARK    3  A    between atoms: C10_13  and  C11_14
REMARK    4  A    between atoms: C19_23  and  C20_24
REMARK                            x       y       z     vdW  Elec       q    Type
REMARK                         _______ _______ _______ _____ _____    ______ ____
ROOT
ATOM      1  N1  UNL     1      18.554   1.925  27.152  0.00  0.00    -0.269 N 
ATOM      2  C4  UNL     1      17.403   1.184  26.726  0.00  0.00    +0.307 C 
ATOM      3  O1  UNL     1      16.962   0.230  27.423  0.00  0.00    -0.252 OA
ATOM      4  N2  UNL     1      16.739   1.537  25.513  0.00  0.00    -0.281 N 
ATOM      5  C5  UNL     1      16.870   2.589  24.480  0.00  0.00    +0.118 C 
ATOM      6  C6  UNL     1      15.694   2.143  23.672  0.00  0.00    +0.005 C 
ATOM      7  C7  UNL     1      15.864   2.006  22.162  0.00  0.00    +0.010 C 
ATOM      8  C8  UNL     1      14.718   3.005  21.983  0.00  0.00    +0.001 C 
ATOM      9  C9  UNL     1      14.539   3.120  23.499  0.00  0.00    +0.010 C 
ATOM     10  C10 UNL     1      15.580   1.062  24.719  0.00  0.00    +0.088 C 
ATOM     11  H4  UNL     1      18.834   2.767  26.602  0.00  0.00    +0.156 HD
ENDROOT
BRANCH   1  14
ATOM     12  C1  UNL     1      21.345   1.144  26.713  0.00  0.00    +0.046 C 
ATOM     13  C2  UNL     1      20.708   1.092  28.086  0.00  0.00    -0.018 A 
ATOM     14  C3  UNL     1      19.367   1.525  28.267  0.00  0.00    +0.038 A 
ATOM     15  C16 UNL     1      18.793   1.505  29.546  0.00  0.00    +0.023 A 
ATOM     16  C17 UNL     1      19.521   1.059  30.643  0.00  0.00    +0.003 A 
ATOM     17  C18 UNL     1      20.831   0.623  30.481  0.00  0.00    +0.012 A 
ATOM     18  C19 UNL     1      21.450   0.635  29.217  0.00  0.00    +0.027 A 
BRANCH  18  19
ATOM     19  C20 UNL     1      22.859   0.154  29.138  0.00  0.00    +0.205 A 
ATOM     20  N3  UNL     1      23.202  -1.133  28.910  0.00  0.00    -0.108 NA
ATOM     21  N4  UNL     1      24.524  -1.151  28.945  0.00  0.00    -0.049 NA
ATOM     22  N5  UNL     1      24.966   0.069  29.190  0.00  0.00    -0.176 N 
ATOM     23  N6  UNL     1      23.958   0.913  29.321  0.00  0.00    -0.133 NA
ATOM     24  H26 UNL     1      25.973   0.332  29.271  0.00  0.00    +0.214 HD
ENDBRANCH  18  19
ENDBRANCH   1  14
BRANCH  10  25
ATOM     25  C11 UNL     1      15.747  -0.433  24.332  0.00  0.00    +0.014 C 
ATOM     26  C12 UNL     1      15.066  -1.436  25.288  0.00  0.00    +0.033 C 
ATOM     27  C13 UNL     1      15.378  -2.871  24.849  0.00  0.00    +0.160 C 
ATOM     28  O2  UNL     1      16.776  -3.085  24.783  0.00  0.00    -0.380 OA
ATOM     29  C14 UNL     1      17.334  -2.303  23.744  0.00  0.00    +0.160 C 
ATOM     30  C15 UNL     1      17.215  -0.806  24.056  0.00  0.00    +0.033 C 
ENDBRANCH  10  25
TORSDOF 3
ENDMDL
MODEL 3
REMARK VINA RESULT:    -7.163      2.879      8.342
REMARK INTER + INTRA:          -8.098
REMARK INTER:                  -8.173
REMARK INTRA:                   0.075
REMARK UNBOUND:                 0.321
REMARK  Name = /home/qwerty/github/datacon2025hack/step_04_hit_selection/docking/ligands/lig_662.pdb
REMARK  4 active torsions:
REMARK  status: ('A' for Active; 'I' for Inactive)
REMARK    1  A    between atoms: C1_1  and  C2_2
REMARK    2  A    between atoms: C3_3  and  N1_4
REMARK    3  A    between atoms: C10_13  and  C11_14
REMARK    4  A    between atoms: C19_23  and  C20_24
REMARK                            x       y       z     vdW  Elec       q    Type
REMARK                         _______ _______ _______ _____ _____    ______ ____
ROOT
ATOM      1  N1  UNL     1      22.082   5.012  31.567  0.00  0.00    -0.269 N 
ATOM      2  C4  UNL     1      21.865   3.613  31.345  0.00  0.00    +0.307 C 
ATOM      3  O1  UNL     1      21.957   2.793  32.298  0.00  0.00    -0.252 OA
ATOM      4  N2  UNL     1      21.524   3.144  30.042  0.00  0.00    -0.281 N 
ATOM      5  C5  UNL     1      21.248   3.746  28.718  0.00  0.00    +0.118 C 
ATOM      6  C6  UNL     1      20.936   2.453  28.035  0.00  0.00    +0.005 C 
ATOM      7  C7  UNL     1      21.589   2.172  26.685  0.00  0.00    +0.010 C 
ATOM      8  C8  UNL     1      20.188   2.017  26.086  0.00  0.00    +0.001 C 
ATOM      9  C9  UNL     1      19.542   2.278  27.449  0.00  0.00    +0.010 C 
ATOM     10  C10 UNL     1      21.239   1.845  29.384  0.00  0.00    +0.088 C 
ATOM     11  H4  UNL     1      21.904   5.673  30.778  0.00  0.00    +0.156 HD
ENDROOT
BRANCH   1  14
ATOM     12  C1  UNL     1      20.216   5.966  33.615  0.00  0.00    +0.046 C 
ATOM     13  C2  UNL     1      21.715   6.052  33.801  0.00  0.00    -0.018 A 
ATOM     14  C3  UNL     1      22.588   5.535  32.806  0.00  0.00    +0.038 A 
ATOM     15  C16 UNL     1      23.976   5.588  32.997  0.00  0.00    +0.023 A 
ATOM     16  C17 UNL     1      24.511   6.148  34.151  0.00  0.00    +0.003 A 
ATOM     17  C18 UNL     1      23.672   6.668  35.130  0.00  0.00    +0.012 A 
ATOM     18  C19 UNL     1      22.272   6.627  34.984  0.00  0.00    +0.027 A 
BRANCH  18  19
ATOM     19  C20 UNL     1      21.451   7.203  36.085  0.00  0.00    +0.205 A 
ATOM     20  N3  UNL     1      20.831   8.402  36.013  0.00  0.00    -0.108 NA
ATOM     21  N4  UNL     1      20.242   8.560  37.186  0.00  0.00    -0.049 NA
ATOM     22  N5  UNL     1      20.496   7.506  37.942  0.00  0.00    -0.176 N 
ATOM     23  N6  UNL     1      21.251   6.638  37.293  0.00  0.00    -0.133 NA
ATOM     24  H26 UNL     1      20.150   7.378  38.919  0.00  0.00    +0.214 HD
ENDBRANCH  18  19
ENDBRANCH   1  14
BRANCH  10  25
ATOM     25  C11 UNL     1      22.428   0.861  29.557  0.00  0.00    +0.014 C 
ATOM     26  C12 UNL     1      23.812   1.438  29.189  0.00  0.00    +0.033 C 
ATOM     27  C13 UNL     1      24.883   0.348  29.317  0.00  0.00    +0.160 C 
ATOM     28  O2  UNL     1      24.559  -0.772  28.516  0.00  0.00    -0.380 OA
ATOM     29  C14 UNL     1      23.397  -1.404  29.019  0.00  0.00    +0.160 C 
ATOM     30  C15 UNL     1      22.170  -0.495  28.876  0.00  0.00    +0.033 C 
ENDBRANCH  10  25
TORSDOF 3
ENDMDL
MODEL 4
REMARK VINA RESULT:    -6.599     13.474     17.181
REMARK INTER + INTRA:          -7.435
REMARK INTER:                  -7.782
REMARK INTRA:                   0.348
REMARK UNBOUND:                 0.321
REMARK  Name = /home/qwerty/github/datacon2025hack/step_04_hit_selection/docking/ligands/lig_662.pdb
REMARK  4 active torsions:
REMARK  status: ('A' for Active; 'I' for Inactive)
REMARK    1  A    between atoms: C1_1  and  C2_2
REMARK    2  A    between atoms: C3_3  and  N1_4
REMARK    3  A    between atoms: C10_13  and  C11_14
REMARK    4  A    between atoms: C19_23  and  C20_24
REMARK                            x       y       z     vdW  Elec       q    Type
REMARK                         _______ _______ _______ _____ _____    ______ ____
ROOT
ATOM      1  N1  UNL     1      10.491   9.899  26.459  0.00  0.00    -0.269 N 
ATOM      2  C4  UNL     1      10.799   9.696  25.074  0.00  0.00    +0.307 C 
ATOM      3  O1  UNL     1      11.217  10.650  24.365  0.00  0.00    -0.252 OA
ATOM      4  N2  UNL     1      10.647   8.401  24.495  0.00  0.00    -0.281 N 
ATOM      5  C5  UNL     1      10.276   7.046  24.965  0.00  0.00    +0.118 C 
ATOM      6  C6  UNL     1      10.467   6.378  23.641  0.00  0.00    +0.005 C 
ATOM      7  C7  UNL     1       9.373   5.442  23.138  0.00  0.00    +0.010 C 
ATOM      8  C8  UNL     1      10.419   4.327  23.062  0.00  0.00    +0.001 C 
ATOM      9  C9  UNL     1      11.516   5.279  23.545  0.00  0.00    +0.010 C 
ATOM     10  C10 UNL     1      10.825   7.766  23.166  0.00  0.00    +0.088 C 
ATOM     11  H4  UNL     1      10.239   9.068  27.039  0.00  0.00    +0.156 HD
ENDROOT
BRANCH   1  14
ATOM     12  C1  UNL     1       7.948  10.999  27.419  0.00  0.00    +0.046 C 
ATOM     13  C2  UNL     1       9.238  11.787  27.497  0.00  0.00    -0.018 A 
ATOM     14  C3  UNL     1      10.459  11.201  27.067  0.00  0.00    +0.038 A 
ATOM     15  C16 UNL     1      11.656  11.924  27.171  0.00  0.00    +0.023 A 
ATOM     16  C17 UNL     1      11.662  13.214  27.687  0.00  0.00    +0.003 A 
ATOM     17  C18 UNL     1      10.475  13.805  28.104  0.00  0.00    +0.012 A 
ATOM     18  C19 UNL     1       9.252  13.113  28.027  0.00  0.00    +0.027 A 
BRANCH  18  19
ATOM     19  C20 UNL     1       8.031  13.823  28.501  0.00  0.00    +0.205 A 
ATOM     20  N3  UNL     1       7.237  14.569  27.701  0.00  0.00    -0.108 NA
ATOM     21  N4  UNL     1       6.293  15.046  28.495  0.00  0.00    -0.049 NA
ATOM     22  N5  UNL     1       6.506  14.614  29.725  0.00  0.00    -0.176 N 
ATOM     23  N6  UNL     1       7.583  13.850  29.772  0.00  0.00    -0.133 NA
ATOM     24  H26 UNL     1       5.907  14.845  30.549  0.00  0.00    +0.214 HD
ENDBRANCH  18  19
ENDBRANCH   1  14
BRANCH  10  25
ATOM     25  C11 UNL     1       9.961   8.480  22.089  0.00  0.00    +0.014 C 
ATOM     26  C12 UNL     1      10.717   9.511  21.224  0.00  0.00    +0.033 C 
ATOM     27  C13 UNL     1       9.741  10.205  20.266  0.00  0.00    +0.160 C 
ATOM     28  O2  UNL     1       8.678  10.807  20.981  0.00  0.00    -0.380 OA
ATOM     29  C14 UNL     1       7.878   9.809  21.586  0.00  0.00    +0.160 C 
ATOM     30  C15 UNL     1       8.661   9.059  22.673  0.00  0.00    +0.033 C 
ENDBRANCH  10  25
TORSDOF 3
ENDMDL
MODEL 5
REMARK VINA RESULT:    -6.597     11.717     13.857
REMARK INTER + INTRA:          -7.433
REMARK INTER:                  -8.008
REMARK INTRA:                   0.575
REMARK UNBOUND:                 0.321
REMARK  Name = /home/qwerty/github/datacon2025hack/step_04_hit_selection/docking/ligands/lig_662.pdb
REMARK  4 active torsions:
REMARK  status: ('A' for Active; 'I' for Inactive)
REMARK    1  A    between atoms: C1_1  and  C2_2
REMARK    2  A    between atoms: C3_3  and  N1_4
REMARK    3  A    between atoms: C10_13  and  C11_14
REMARK    4  A    between atoms: C19_23  and  C20_24
REMARK                            x       y       z     vdW  Elec       q    Type
REMARK                         _______ _______ _______ _____ _____    ______ ____
ROOT
ATOM      1  N1  UNL     1      12.666   1.640  21.261  0.00  0.00    -0.269 N 
ATOM      2  C4  UNL     1      12.408   2.923  20.677  0.00  0.00    +0.307 C 
ATOM      3  O1  UNL     1      13.242   3.448  19.892  0.00  0.00    -0.252 OA
ATOM      4  N2  UNL     1      11.190   3.606  20.972  0.00  0.00    -0.281 N 
ATOM      5  C5  UNL     1       9.959   3.329  21.745  0.00  0.00    +0.118 C 
ATOM      6  C6  UNL     1       9.276   4.611  21.392  0.00  0.00    +0.005 C 
ATOM      7  C7  UNL     1       8.630   5.419  22.513  0.00  0.00    +0.010 C 
ATOM      8  C8  UNL     1       7.300   5.320  21.762  0.00  0.00    +0.001 C 
ATOM      9  C9  UNL     1       7.961   4.529  20.630  0.00  0.00    +0.010 C 
ATOM     10  C10 UNL     1      10.544   4.895  20.622  0.00  0.00    +0.088 C 
ATOM     11  H4  UNL     1      11.913   1.192  21.830  0.00  0.00    +0.156 HD
ENDROOT
BRANCH   1  14
ATOM     12  C1  UNL     1      13.814   0.273  23.586  0.00  0.00    +0.046 C 
ATOM     13  C2  UNL     1      14.543   0.343  22.262  0.00  0.00    -0.018 A 
ATOM     14  C3  UNL     1      13.933   0.972  21.144  0.00  0.00    +0.038 A 
ATOM     15  C16 UNL     1      14.599   1.006  19.911  0.00  0.00    +0.023 A 
ATOM     16  C17 UNL     1      15.858   0.434  19.769  0.00  0.00    +0.003 A 
ATOM     17  C18 UNL     1      16.474  -0.178  20.856  0.00  0.00    +0.012 A 
ATOM     18  C19 UNL     1      15.836  -0.243  22.110  0.00  0.00    +0.027 A 
BRANCH  18  19
ATOM     19  C20 UNL     1      16.568  -0.922  23.216  0.00  0.00    +0.205 A 
ATOM     20  N3  UNL     1      17.462  -0.301  24.018  0.00  0.00    -0.108 NA
ATOM     21  N4  UNL     1      17.904  -1.240  24.838  0.00  0.00    -0.049 NA
ATOM     22  N5  UNL     1      17.311  -2.383  24.544  0.00  0.00    -0.176 N 
ATOM     23  N6  UNL     1      16.473  -2.228  23.535  0.00  0.00    -0.133 NA
ATOM     24  H26 UNL     1      17.482  -3.286  25.040  0.00  0.00    +0.214 HD
ENDBRANCH  18  19
ENDBRANCH   1  14
BRANCH  10  25
ATOM     25  C11 UNL     1      11.451   6.095  21.010  0.00  0.00    +0.014 C 
ATOM     26  C12 UNL     1      11.798   6.192  22.511  0.00  0.00    +0.033 C 
ATOM     27  C13 UNL     1      12.619   7.460  22.777  0.00  0.00    +0.160 C 
ATOM     28  O2  UNL     1      11.926   8.611  22.329  0.00  0.00    -0.380 OA
ATOM     29  C14 UNL     1      11.817   8.589  20.918  0.00  0.00    +0.160 C 
ATOM     30  C15 UNL     1      10.926   7.430  20.453  0.00  0.00    +0.033 C 
ENDBRANCH  10  25
TORSDOF 3
ENDMDL
MODEL 6
REMARK VINA RESULT:    -6.579      6.101      9.925
REMARK INTER + INTRA:          -7.412
REMARK INTER:                  -7.656
REMARK INTRA:                   0.244
REMARK UNBOUND:                 0.321
REMARK  Name = /home/qwerty/github/datacon2025hack/step_04_hit_selection/docking/ligands/lig_662.pdb
REMARK  4 active torsions:
REMARK  status: ('A' for Active; 'I' for Inactive)
REMARK    1  A    between atoms: C1_1  and  C2_2
REMARK    2  A    between atoms: C3_3  and  N1_4
REMARK    3  A    between atoms: C10_13  and  C11_14
REMARK    4  A    between atoms: C19_23  and  C20_24
REMARK                            x       y       z     vdW  Elec       q    Type
REMARK                         _______ _______ _______ _____ _____    ______ ____
ROOT
ATOM      1  N1  UNL     1      18.997   1.828  26.868  0.00  0.00    -0.269 N 
ATOM      2  C4  UNL     1      17.780   1.123  26.592  0.00  0.00    +0.307 C 
ATOM      3  O1  UNL     1      17.435   0.140  27.302  0.00  0.00    -0.252 OA
ATOM      4  N2  UNL     1      16.943   1.545  25.517  0.00  0.00    -0.281 N 
ATOM      5  C5  UNL     1      16.931   2.647  24.528  0.00  0.00    +0.118 C 
ATOM      6  C6  UNL     1      15.635   2.256  23.893  0.00  0.00    +0.005 C 
ATOM      7  C7  UNL     1      15.565   2.194  22.371  0.00  0.00    +0.010 C 
ATOM      8  C8  UNL     1      14.425   3.214  22.423  0.00  0.00    +0.001 C 
ATOM      9  C9  UNL     1      14.487   3.254  23.952  0.00  0.00    +0.010 C 
ATOM     10  C10 UNL     1      15.664   1.124  24.892  0.00  0.00    +0.088 C 
ATOM     11  H4  UNL     1      19.205   2.693  26.323  0.00  0.00    +0.156 HD
ENDROOT
BRANCH   1  14
ATOM     12  C1  UNL     1      18.643   2.422  29.717  0.00  0.00    +0.046 C 
ATOM     13  C2  UNL     1      19.854   1.674  29.203  0.00  0.00    -0.018 A 
ATOM     14  C3  UNL     1      19.967   1.362  27.821  0.00  0.00    +0.038 A 
ATOM     15  C16 UNL     1      21.076   0.641  27.355  0.00  0.00    +0.023 A 
ATOM     16  C17 UNL     1      22.073   0.231  28.232  0.00  0.00    +0.003 A 
ATOM     17  C18 UNL     1      21.984   0.536  29.585  0.00  0.00    +0.012 A 
ATOM     18  C19 UNL     1      20.883   1.250  30.097  0.00  0.00    +0.027 A 
BRANCH  18  19
ATOM     19  C20 UNL     1      20.868   1.528  31.561  0.00  0.00    +0.205 A 
ATOM     20  N3  UNL     1      21.416   2.628  32.123  0.00  0.00    -0.108 NA
ATOM     21  N4  UNL     1      21.222   2.487  33.424  0.00  0.00    -0.049 NA
ATOM     22  N5  UNL     1      20.589   1.349  33.645  0.00  0.00    -0.176 N 
ATOM     23  N6  UNL     1      20.353   0.718  32.508  0.00  0.00    -0.133 NA
ATOM     24  H26 UNL     1      20.315   0.995  34.588  0.00  0.00    +0.214 HD
ENDBRANCH  18  19
ENDBRANCH   1  14
BRANCH  10  25
ATOM     25  C11 UNL     1      15.741  -0.352  24.411  0.00  0.00    +0.014 C 
ATOM     26  C12 UNL     1      15.190  -1.393  25.409  0.00  0.00    +0.033 C 
ATOM     27  C13 UNL     1      15.402  -2.808  24.858  0.00  0.00    +0.160 C 
ATOM     28  O2  UNL     1      16.770  -3.036  24.572  0.00  0.00    -0.380 OA
ATOM     29  C14 UNL     1      17.182  -2.209  23.500  0.00  0.00    +0.160 C 
ATOM     30  C15 UNL     1      17.142  -0.729  23.899  0.00  0.00    +0.033 C 
ENDBRANCH  10  25
TORSDOF 3
ENDMDL
MODEL 7
REMARK VINA RESULT:    -6.573      7.592      9.695
REMARK INTER + INTRA:          -7.405
REMARK INTER:                  -7.580
REMARK INTRA:                   0.175
REMARK UNBOUND:                 0.321
REMARK  Name = /home/qwerty/github/datacon2025hack/step_04_hit_selection/docking/ligands/lig_662.pdb
REMARK  4 active torsions:
REMARK  status: ('A' for Active; 'I' for Inactive)
REMARK    1  A    between atoms: C1_1  and  C2_2
REMARK    2  A    between atoms: C3_3  and  N1_4
REMARK    3  A    between atoms: C10_13  and  C11_14
REMARK    4  A    between atoms: C19_23  and  C20_24
REMARK                            x       y       z     vdW  Elec       q    Type
REMARK                         _______ _______ _______ _____ _____    ______ ____
ROOT
ATOM      1  N1  UNL     1      16.970   9.705  37.304  0.00  0.00    -0.269 N 
ATOM      2  C4  UNL     1      16.576  10.240  36.034  0.00  0.00    +0.307 C 
ATOM      3  O1  UNL     1      16.706   9.555  34.984  0.00  0.00    -0.252 OA
ATOM      4  N2  UNL     1      16.016  11.550  35.957  0.00  0.00    -0.281 N 
ATOM      5  C5  UNL     1      15.632  12.616  36.910  0.00  0.00    +0.118 C 
ATOM      6  C6  UNL     1      15.094  13.549  35.873  0.00  0.00    +0.005 C 
ATOM      7  C7  UNL     1      15.527  15.010  35.921  0.00  0.00    +0.010 C 
ATOM      8  C8  UNL     1      14.051  15.401  36.028  0.00  0.00    +0.001 C 
ATOM      9  C9  UNL     1      13.624  13.933  35.957  0.00  0.00    +0.010 C 
ATOM     10  C10 UNL     1      15.507  12.465  34.906  0.00  0.00    +0.088 C 
ATOM     11  H4  UNL     1      16.761  10.260  38.164  0.00  0.00    +0.156 HD
ENDROOT
BRANCH   1  14
ATOM     12  C1  UNL     1      19.895   9.692  37.106  0.00  0.00    +0.046 C 
ATOM     13  C2  UNL     1      19.103   8.417  37.298  0.00  0.00    -0.018 A 
ATOM     14  C3  UNL     1      17.690   8.469  37.439  0.00  0.00    +0.038 A 
ATOM     15  C16 UNL     1      16.965   7.287  37.648  0.00  0.00    +0.023 A 
ATOM     16  C17 UNL     1      17.613   6.060  37.715  0.00  0.00    +0.003 A 
ATOM     17  C18 UNL     1      18.994   5.990  37.569  0.00  0.00    +0.012 A 
ATOM     18  C19 UNL     1      19.763   7.152  37.367  0.00  0.00    +0.027 A 
BRANCH  18  19
ATOM     19  C20 UNL     1      21.237   6.984  37.227  0.00  0.00    +0.205 A 
ATOM     20  N3  UNL     1      21.858   6.748  36.050  0.00  0.00    -0.108 NA
ATOM     21  N4  UNL     1      23.140   6.632  36.351  0.00  0.00    -0.049 NA
ATOM     22  N5  UNL     1      23.293   6.784  37.654  0.00  0.00    -0.176 N 
ATOM     23  N6  UNL     1      22.128   7.002  38.238  0.00  0.00    -0.133 NA
ATOM     24  H26 UNL     1      24.208   6.737  38.155  0.00  0.00    +0.214 HD
ENDBRANCH  18  19
ENDBRANCH   1  14
BRANCH  10  25
ATOM     25  C11 UNL     1      16.597  12.738  33.832  0.00  0.00    +0.014 C 
ATOM     26  C12 UNL     1      17.650  13.795  34.226  0.00  0.00    +0.033 C 
ATOM     27  C13 UNL     1      18.611  14.037  33.055  0.00  0.00    +0.160 C 
ATOM     28  O2  UNL     1      17.900  14.420  31.892  0.00  0.00    -0.380 OA
ATOM     29  C14 UNL     1      17.104  13.342  31.437  0.00  0.00    +0.160 C 
ATOM     30  C15 UNL     1      15.994  13.014  32.443  0.00  0.00    +0.033 C 
ENDBRANCH  10  25
TORSDOF 3
ENDMDL
MODEL 8
REMARK VINA RESULT:    -6.514     13.577     15.283
REMARK INTER + INTRA:          -7.335
REMARK INTER:                  -7.334
REMARK INTRA:                  -0.001
REMARK UNBOUND:                 0.321
REMARK  Name = /home/qwerty/github/datacon2025hack/step_04_hit_selection/docking/ligands/lig_662.pdb
REMARK  4 active torsions:
REMARK  status: ('A' for Active; 'I' for Inactive)
REMARK    1  A    between atoms: C1_1  and  C2_2
REMARK    2  A    between atoms: C3_3  and  N1_4
REMARK    3  A    between atoms: C10_13  and  C11_14
REMARK    4  A    between atoms: C19_23  and  C20_24
REMARK                            x       y       z     vdW  Elec       q    Type
REMARK                         _______ _______ _______ _____ _____    ______ ____
ROOT
ATOM      1  N1  UNL     1       8.800   5.072  22.538  0.00  0.00    -0.269 N 
ATOM      2  C4  UNL     1       9.655   6.182  22.845  0.00  0.00    +0.307 C 
ATOM      3  O1  UNL     1      10.834   5.989  23.246  0.00  0.00    -0.252 OA
ATOM      4  N2  UNL     1       9.175   7.515  22.681  0.00  0.00    -0.281 N 
ATOM      5  C5  UNL     1       7.940   8.163  22.184  0.00  0.00    +0.118 C 
ATOM      6  C6  UNL     1       8.433   9.564  22.357  0.00  0.00    +0.005 C 
ATOM      7  C7  UNL     1       7.519  10.572  23.047  0.00  0.00    +0.010 C 
ATOM      8  C8  UNL     1       7.603  11.444  21.792  0.00  0.00    +0.001 C 
ATOM      9  C9  UNL     1       8.537  10.438  21.115  0.00  0.00    +0.010 C 
ATOM     10  C10 UNL     1       9.681   8.895  22.881  0.00  0.00    +0.088 C 
ATOM     11  H4  UNL     1       7.864   5.267  22.119  0.00  0.00    +0.156 HD
ENDROOT
BRANCH   1  14
ATOM     12  C1  UNL     1       8.079   3.913  25.132  0.00  0.00    +0.046 C 
ATOM     13  C2  UNL     1       8.866   3.133  24.101  0.00  0.00    -0.018 A 
ATOM     14  C3  UNL     1       9.155   3.712  22.836  0.00  0.00    +0.038 A 
ATOM     15  C16 UNL     1       9.857   2.973  21.873  0.00  0.00    +0.023 A 
ATOM     16  C17 UNL     1      10.280   1.678  22.143  0.00  0.00    +0.003 A 
ATOM     17  C18 UNL     1      10.015   1.099  23.379  0.00  0.00    +0.012 A 
ATOM     18  C19 UNL     1       9.305   1.801  24.372  0.00  0.00    +0.027 A 
BRANCH  18  19
ATOM     19  C20 UNL     1       9.061   1.101  25.665  0.00  0.00    +0.205 A 
ATOM     20  N3  UNL     1       9.897   1.167  26.725  0.00  0.00    -0.108 NA
ATOM     21  N4  UNL     1       9.348   0.397  27.649  0.00  0.00    -0.049 NA
ATOM     22  N5  UNL     1       8.231  -0.121  27.171  0.00  0.00    -0.176 N 
ATOM     23  N6  UNL     1       8.017   0.291  25.934  0.00  0.00    -0.133 NA
ATOM     24  H26 UNL     1       7.602  -0.768  27.697  0.00  0.00    +0.214 HD
ENDBRANCH  18  19
ENDBRANCH   1  14
BRANCH  10  25
ATOM     25  C11 UNL     1      10.135   9.113  24.351  0.00  0.00    +0.014 C 
ATOM     26  C12 UNL     1       9.022   8.952  25.408  0.00  0.00    +0.033 C 
ATOM     27  C13 UNL     1       9.574   9.278  26.802  0.00  0.00    +0.160 C 
ATOM     28  O2  UNL     1      10.133  10.578  26.830  0.00  0.00    -0.380 OA
ATOM     29  C14 UNL     1      11.285  10.624  26.010  0.00  0.00    +0.160 C 
ATOM     30  C15 UNL     1      10.919  10.425  24.533  0.00  0.00    +0.033 C 
ENDBRANCH  10  25
TORSDOF 3
ENDMDL
MODEL 9
REMARK VINA RESULT:    -6.505     12.656     14.558
REMARK INTER + INTRA:          -7.324
REMARK INTER:                  -7.320
REMARK INTRA:                  -0.005
REMARK UNBOUND:                 0.321
REMARK  Name = /home/qwerty/github/datacon2025hack/step_04_hit_selection/docking/ligands/lig_662.pdb
REMARK  4 active torsions:
REMARK  status: ('A' for Active; 'I' for Inactive)
REMARK    1  A    between atoms: C1_1  and  C2_2
REMARK    2  A    between atoms: C3_3  and  N1_4
REMARK    3  A    between atoms: C10_13  and  C11_14
REMARK    4  A    between atoms: C19_23  and  C20_24
REMARK                            x       y       z     vdW  Elec       q    Type
REMARK                         _______ _______ _______ _____ _____    ______ ____
ROOT
ATOM      1  N1  UNL     1      12.805   4.598  20.297  0.00  0.00    -0.269 N 
ATOM      2  C4  UNL     1      12.133   4.993  21.500  0.00  0.00    +0.307 C 
ATOM      3  O1  UNL     1      12.758   5.046  22.594  0.00  0.00    -0.252 OA
ATOM      4  N2  UNL     1      10.752   5.346  21.459  0.00  0.00    -0.281 N 
ATOM      5  C5  UNL     1       9.706   5.491  20.421  0.00  0.00    +0.118 C 
ATOM      6  C6  UNL     1       8.635   5.949  21.358  0.00  0.00    +0.005 C 
ATOM      7  C7  UNL     1       7.262   5.292  21.264  0.00  0.00    +0.010 C 
ATOM      8  C8  UNL     1       6.661   6.678  21.017  0.00  0.00    +0.001 C 
ATOM      9  C9  UNL     1       8.040   7.332  21.135  0.00  0.00    +0.010 C 
ATOM     10  C10 UNL     1       9.702   5.780  22.414  0.00  0.00    +0.088 C 
ATOM     11  H4  UNL     1      12.284   4.657  19.395  0.00  0.00    +0.156 HD
ENDROOT
BRANCH   1  14
ATOM     12  C1  UNL     1      13.244   1.726  20.689  0.00  0.00    +0.046 C 
ATOM     13  C2  UNL     1      14.396   2.694  20.527  0.00  0.00    -0.018 A 
ATOM     14  C3  UNL     1      14.143   4.072  20.290  0.00  0.00    +0.038 A 
ATOM     15  C16 UNL     1      15.213   4.958  20.109  0.00  0.00    +0.023 A 
ATOM     16  C17 UNL     1      16.526   4.505  20.164  0.00  0.00    +0.003 A 
ATOM     17  C18 UNL     1      16.792   3.162  20.405  0.00  0.00    +0.012 A 
ATOM     18  C19 UNL     1      15.747   2.235  20.582  0.00  0.00    +0.027 A 
BRANCH  18  19
ATOM     19  C20 UNL     1      16.125   0.815  20.830  0.00  0.00    +0.205 A 
ATOM     20  N3  UNL     1      16.449   0.324  22.047  0.00  0.00    -0.108 NA
ATOM     21  N4  UNL     1      16.747  -0.947  21.841  0.00  0.00    -0.049 NA
ATOM     22  N5  UNL     1      16.616  -1.219  20.555  0.00  0.00    -0.176 N 
ATOM     23  N6  UNL     1      16.233  -0.144  19.889  0.00  0.00    -0.133 NA
ATOM     24  H26 UNL     1      16.792  -2.152  20.123  0.00  0.00    +0.214 HD
ENDBRANCH  18  19
ENDBRANCH   1  14
BRANCH  10  25
ATOM     25  C11 UNL     1       9.525   4.740  23.555  0.00  0.00    +0.014 C 
ATOM     26  C12 UNL     1       9.259   3.294  23.085  0.00  0.00    +0.033 C 
ATOM     27  C13 UNL     1       9.015   2.387  24.297  0.00  0.00    +0.160 C 
ATOM     28  O2  UNL     1       7.950   2.880  25.088  0.00  0.00    -0.380 OA
ATOM     29  C14 UNL     1       8.319   4.112  25.679  0.00  0.00    +0.160 C 
ATOM     30  C15 UNL     1       8.506   5.200  24.613  0.00  0.00    +0.033 C 
ENDBRANCH  10  25
TORSDOF 3
ENDMDL
