MODEL 1
REMARK VINA RESULT:    -6.181      0.000      0.000
REMARK INTER + INTRA:          -9.131
REMARK INTER:                  -7.987
REMARK INTRA:                  -1.144
REMARK UNBOUND:                -1.144
REMARK  Name = /home/qwerty/github/datacon2025hack/step_04_hit_selection/docking/ligands/lig_286.pdb
REMARK  7 active torsions:
REMARK  status: ('A' for Active; 'I' for Inactive)
REMARK    1  A    between atoms: C1_1  and  C2_2
REMARK    2  A    between atoms: C2_2  and  C3_3
REMARK    3  A    between atoms: C3_3  and  C4_4
REMARK    4  A    between atoms: C3_3  and  C5_5
REMARK    5  A    between atoms: C9_12  and  C10_13
REMARK    6  A    between atoms: N4_20  and  C17_21
REMARK    7  A    between atoms: C17_21  and  C18_22
REMARK                            x       y       z     vdW  Elec       q    Type
REMARK                         _______ _______ _______ _____ _____    ______ ____
ROOT
ATOM      1  C5  UNL     1      21.807   1.400  27.805  0.00  0.00    +0.138 A 
ATOM      2  N1  UNL     1      22.919   2.152  27.666  0.00  0.00    -0.132 NA
ATOM      3  N2  UNL     1      22.743   2.918  26.602  0.00  0.00    -0.113 NA
ATOM      4  C6  UNL     1      21.524   2.631  26.107  0.00  0.00    +0.220 A 
ATOM      5  N3  UNL     1      20.989   3.272  24.936  0.00  0.00    -0.299 N 
ATOM      6  C7  UNL     1      20.233   2.578  23.903  0.00  0.00    +0.108 C 
ATOM      7  C8  UNL     1      20.363   3.431  22.647  0.00  0.00    +0.028 C 
ATOM      8  C9  UNL     1      20.788   4.817  23.145  0.00  0.00    +0.038 C 
ATOM      9  C16 UNL     1      21.468   4.571  24.493  0.00  0.00    +0.116 C 
ATOM     10  N4  UNL     1      20.892   1.695  26.852  0.00  0.00    -0.294 N 
ENDROOT
BRANCH   8  11
ATOM     11  C10 UNL     1      21.660   5.568  22.157  0.00  0.00    -0.043 A 
ATOM     12  C11 UNL     1      22.609   6.515  22.591  0.00  0.00    +0.004 A 
ATOM     13  C12 UNL     1      23.405   7.197  21.665  0.00  0.00    +0.000 A 
ATOM     14  C13 UNL     1      23.263   6.942  20.299  0.00  0.00    +0.000 A 
ATOM     15  C14 UNL     1      22.327   6.005  19.856  0.00  0.00    +0.000 A 
ATOM     16  C15 UNL     1      21.528   5.321  20.778  0.00  0.00    +0.004 A 
ENDBRANCH   8  11
BRANCH   1  17
ATOM     17  C3  UNL     1      21.594   0.439  28.952  0.00  0.00    +0.054 C 
ATOM     18  C4  UNL     1      22.636  -0.688  28.901  0.00  0.00    +0.015 C 
BRANCH  17  20
ATOM     19  C1  UNL     1      20.659   0.670  31.321  0.00  0.00    +0.004 C 
ATOM     20  C2  UNL     1      21.642   1.214  30.286  0.00  0.00    +0.007 C 
ENDBRANCH  17  20
ENDBRANCH   1  17
BRANCH  10  21
ATOM     21  C17 UNL     1      19.522   1.187  26.730  0.00  0.00    +0.168 C 
BRANCH  21  22
ATOM     22  C18 UNL     1      18.564   2.040  27.504  0.00  0.00    +0.010 A 
ATOM     23  C19 UNL     1      18.093   1.766  28.782  0.00  0.00    +0.013 A 
ATOM     24  C20 UNL     1      17.153   2.698  29.236  0.00  0.00    +0.008 A 
ATOM     25  C21 UNL     1      16.865   3.696  28.314  0.00  0.00    +0.045 A 
ATOM     26  S1  UNL     1      17.781   3.417  26.932  0.00  0.00    -0.100 S 
ENDBRANCH  21  22
ENDBRANCH  10  21
TORSDOF 5
ENDMDL
MODEL 2
REMARK VINA RESULT:    -6.027      7.768     10.100
REMARK INTER + INTRA:          -8.933
REMARK INTER:                  -7.791
REMARK INTRA:                  -1.142
REMARK UNBOUND:                -1.144
REMARK  Name = /home/qwerty/github/datacon2025hack/step_04_hit_selection/docking/ligands/lig_286.pdb
REMARK  7 active torsions:
REMARK  status: ('A' for Active; 'I' for Inactive)
REMARK    1  A    between atoms: C1_1  and  C2_2
REMARK    2  A    between atoms: C2_2  and  C3_3
REMARK    3  A    between atoms: C3_3  and  C4_4
REMARK    4  A    between atoms: C3_3  and  C5_5
REMARK    5  A    between atoms: C9_12  and  C10_13
REMARK    6  A    between atoms: N4_20  and  C17_21
REMARK    7  A    between atoms: C17_21  and  C18_22
REMARK                            x       y       z     vdW  Elec       q    Type
REMARK                         _______ _______ _______ _____ _____    ______ ____
ROOT
ATOM      1  C5  UNL     1      14.778  -0.205  24.685  0.00  0.00    +0.138 A 
ATOM      2  N1  UNL     1      13.533  -0.502  25.111  0.00  0.00    -0.132 NA
ATOM      3  N2  UNL     1      12.695   0.274  24.443  0.00  0.00    -0.113 NA
ATOM      4  C6  UNL     1      13.437   1.032  23.614  0.00  0.00    +0.220 A 
ATOM      5  N3  UNL     1      12.861   2.009  22.728  0.00  0.00    -0.299 N 
ATOM      6  C7  UNL     1      13.440   3.321  22.478  0.00  0.00    +0.108 C 
ATOM      7  C8  UNL     1      12.293   4.197  21.990  0.00  0.00    +0.028 C 
ATOM      8  C9  UNL     1      11.209   3.218  21.527  0.00  0.00    +0.038 C 
ATOM      9  C16 UNL     1      11.474   1.925  22.302  0.00  0.00    +0.116 C 
ATOM     10  N4  UNL     1      14.754   0.744  23.719  0.00  0.00    -0.294 N 
ENDROOT
BRANCH   8  11
ATOM     11  C10 UNL     1       9.800   3.752  21.709  0.00  0.00    -0.043 A 
ATOM     12  C11 UNL     1       9.182   4.536  20.715  0.00  0.00    +0.004 A 
ATOM     13  C12 UNL     1       7.882   5.018  20.899  0.00  0.00    +0.000 A 
ATOM     14  C13 UNL     1       7.187   4.725  22.075  0.00  0.00    +0.000 A 
ATOM     15  C14 UNL     1       7.789   3.948  23.067  0.00  0.00    +0.000 A 
ATOM     16  C15 UNL     1       9.089   3.463  22.887  0.00  0.00    +0.004 A 
ENDBRANCH   8  11
BRANCH   1  17
ATOM     17  C3  UNL     1      16.014  -0.931  25.165  0.00  0.00    +0.054 C 
ATOM     18  C4  UNL     1      16.199  -0.724  26.676  0.00  0.00    +0.015 C 
BRANCH  17  20
ATOM     19  C1  UNL     1      17.272  -3.075  24.565  0.00  0.00    +0.004 C 
ATOM     20  C2  UNL     1      15.908  -2.424  24.792  0.00  0.00    +0.007 C 
ENDBRANCH  17  20
ENDBRANCH   1  17
BRANCH  10  21
ATOM     21  C17 UNL     1      15.878   1.249  22.925  0.00  0.00    +0.168 C 
BRANCH  21  22
ATOM     22  C18 UNL     1      16.050   0.449  21.670  0.00  0.00    +0.010 A 
ATOM     23  C19 UNL     1      16.814  -0.704  21.549  0.00  0.00    +0.013 A 
ATOM     24  C20 UNL     1      16.854  -1.207  20.243  0.00  0.00    +0.008 A 
ATOM     25  C21 UNL     1      16.139  -0.443  19.329  0.00  0.00    +0.045 A 
ATOM     26  S1  UNL     1      15.459   0.859  20.147  0.00  0.00    -0.100 S 
ENDBRANCH  21  22
ENDBRANCH  10  21
TORSDOF 5
ENDMDL
MODEL 3
REMARK VINA RESULT:    -5.895      4.416     10.252
REMARK INTER + INTRA:          -8.763
REMARK INTER:                  -7.667
REMARK INTRA:                  -1.095
REMARK UNBOUND:                -1.144
REMARK  Name = /home/qwerty/github/datacon2025hack/step_04_hit_selection/docking/ligands/lig_286.pdb
REMARK  7 active torsions:
REMARK  status: ('A' for Active; 'I' for Inactive)
REMARK    1  A    between atoms: C1_1  and  C2_2
REMARK    2  A    between atoms: C2_2  and  C3_3
REMARK    3  A    between atoms: C3_3  and  C4_4
REMARK    4  A    between atoms: C3_3  and  C5_5
REMARK    5  A    between atoms: C9_12  and  C10_13
REMARK    6  A    between atoms: N4_20  and  C17_21
REMARK    7  A    between atoms: C17_21  and  C18_22
REMARK                            x       y       z     vdW  Elec       q    Type
REMARK                         _______ _______ _______ _____ _____    ______ ____
ROOT
ATOM      1  C5  UNL     1      21.638   1.354  30.204  0.00  0.00    +0.138 A 
ATOM      2  N1  UNL     1      21.145   0.113  30.390  0.00  0.00    -0.132 NA
ATOM      3  N2  UNL     1      20.335   0.165  31.435  0.00  0.00    -0.113 NA
ATOM      4  C6  UNL     1      20.339   1.439  31.872  0.00  0.00    +0.220 A 
ATOM      5  N3  UNL     1      19.570   1.875  33.008  0.00  0.00    -0.299 N 
ATOM      6  C7  UNL     1      20.060   2.812  34.009  0.00  0.00    +0.108 C 
ATOM      7  C8  UNL     1      19.228   2.557  35.260  0.00  0.00    +0.028 C 
ATOM      8  C9  UNL     1      17.980   1.817  34.768  0.00  0.00    +0.038 C 
ATOM      9  C16 UNL     1      18.398   1.145  33.459  0.00  0.00    +0.116 C 
ATOM     10  N4  UNL     1      21.130   2.226  31.107  0.00  0.00    -0.294 N 
ENDROOT
BRANCH   8  11
ATOM     11  C10 UNL     1      17.415   0.848  35.791  0.00  0.00    -0.043 A 
ATOM     12  C11 UNL     1      17.662   1.012  37.168  0.00  0.00    +0.004 A 
ATOM     13  C12 UNL     1      17.131   0.110  38.095  0.00  0.00    +0.000 A 
ATOM     14  C13 UNL     1      16.351  -0.964  37.659  0.00  0.00    +0.000 A 
ATOM     15  C14 UNL     1      16.098  -1.137  36.297  0.00  0.00    +0.000 A 
ATOM     16  C15 UNL     1      16.627  -0.237  35.365  0.00  0.00    +0.004 A 
ENDBRANCH   8  11
BRANCH   1  17
ATOM     17  C3  UNL     1      22.555   1.718  29.059  0.00  0.00    +0.054 C 
ATOM     18  C4  UNL     1      23.843   0.884  29.122  0.00  0.00    +0.015 C 
BRANCH  17  20
ATOM     19  C1  UNL     1      22.174   2.588  26.684  0.00  0.00    +0.004 C 
ATOM     20  C2  UNL     1      21.806   1.530  27.723  0.00  0.00    +0.007 C 
ENDBRANCH  17  20
ENDBRANCH   1  17
BRANCH  10  21
ATOM     21  C17 UNL     1      21.324   3.678  31.165  0.00  0.00    +0.168 C 
BRANCH  21  22
ATOM     22  C18 UNL     1      20.497   4.371  30.126  0.00  0.00    +0.010 A 
ATOM     23  C19 UNL     1      20.993   5.152  29.090  0.00  0.00    +0.013 A 
ATOM     24  C20 UNL     1      19.990   5.736  28.308  0.00  0.00    +0.008 A 
ATOM     25  C21 UNL     1      18.703   5.434  28.735  0.00  0.00    +0.045 A 
ATOM     26  S1  UNL     1      18.814   4.441  30.087  0.00  0.00    -0.100 S 
ENDBRANCH  21  22
ENDBRANCH  10  21
TORSDOF 5
ENDMDL
MODEL 4
REMARK VINA RESULT:    -5.782      1.626      2.074
REMARK INTER + INTRA:          -8.616
REMARK INTER:                  -7.782
REMARK INTRA:                  -0.834
REMARK UNBOUND:                -1.144
REMARK  Name = /home/qwerty/github/datacon2025hack/step_04_hit_selection/docking/ligands/lig_286.pdb
REMARK  7 active torsions:
REMARK  status: ('A' for Active; 'I' for Inactive)
REMARK    1  A    between atoms: C1_1  and  C2_2
REMARK    2  A    between atoms: C2_2  and  C3_3
REMARK    3  A    between atoms: C3_3  and  C4_4
REMARK    4  A    between atoms: C3_3  and  C5_5
REMARK    5  A    between atoms: C9_12  and  C10_13
REMARK    6  A    between atoms: N4_20  and  C17_21
REMARK    7  A    between atoms: C17_21  and  C18_22
REMARK                            x       y       z     vdW  Elec       q    Type
REMARK                         _______ _______ _______ _____ _____    ______ ____
ROOT
ATOM      1  C5  UNL     1      21.303   2.185  27.191  0.00  0.00    +0.138 A 
ATOM      2  N1  UNL     1      22.581   2.516  26.917  0.00  0.00    -0.132 NA
ATOM      3  N2  UNL     1      22.568   3.262  25.824  0.00  0.00    -0.113 NA
ATOM      4  C6  UNL     1      21.281   3.381  25.446  0.00  0.00    +0.220 A 
ATOM      5  N3  UNL     1      20.878   4.125  24.282  0.00  0.00    -0.299 N 
ATOM      6  C7  UNL     1      19.840   3.690  23.358  0.00  0.00    +0.108 C 
ATOM      7  C8  UNL     1      20.123   4.408  22.044  0.00  0.00    +0.028 C 
ATOM      8  C9  UNL     1      21.027   5.587  22.419  0.00  0.00    +0.038 C 
ATOM      9  C16 UNL     1      21.714   5.174  23.722  0.00  0.00    +0.116 C 
ATOM     10  N4  UNL     1      20.449   2.736  26.296  0.00  0.00    -0.294 N 
ENDROOT
BRANCH   8  11
ATOM     11  C10 UNL     1      22.000   5.971  21.319  0.00  0.00    -0.043 A 
ATOM     12  C11 UNL     1      23.160   6.720  21.597  0.00  0.00    +0.004 A 
ATOM     13  C12 UNL     1      24.045   7.063  20.570  0.00  0.00    +0.000 A 
ATOM     14  C13 UNL     1      23.783   6.662  19.258  0.00  0.00    +0.000 A 
ATOM     15  C14 UNL     1      22.638   5.917  18.969  0.00  0.00    +0.000 A 
ATOM     16  C15 UNL     1      21.749   5.572  19.993  0.00  0.00    +0.004 A 
ENDBRANCH   8  11
BRANCH   1  17
ATOM     17  C3  UNL     1      20.895   1.390  28.410  0.00  0.00    +0.054 C 
ATOM     18  C4  UNL     1      21.882   0.237  28.646  0.00  0.00    +0.015 C 
BRANCH  17  20
ATOM     19  C1  UNL     1      21.857   2.033  30.691  0.00  0.00    +0.004 C 
ATOM     20  C2  UNL     1      20.800   2.331  29.628  0.00  0.00    +0.007 C 
ENDBRANCH  17  20
ENDBRANCH   1  17
BRANCH  10  21
ATOM     21  C17 UNL     1      18.984   2.712  26.315  0.00  0.00    +0.168 C 
BRANCH  21  22
ATOM     22  C18 UNL     1      18.464   1.364  25.922  0.00  0.00    +0.010 A 
ATOM     23  C19 UNL     1      17.382   0.716  26.504  0.00  0.00    +0.013 A 
ATOM     24  C20 UNL     1      17.160  -0.565  25.986  0.00  0.00    +0.008 A 
ATOM     25  C21 UNL     1      18.075  -0.939  25.010  0.00  0.00    +0.045 A 
ATOM     26  S1  UNL     1      19.162   0.326  24.794  0.00  0.00    -0.100 S 
ENDBRANCH  21  22
ENDBRANCH  10  21
TORSDOF 5
ENDMDL
MODEL 5
REMARK VINA RESULT:    -5.770      4.897     10.740
REMARK INTER + INTRA:          -8.601
REMARK INTER:                  -7.842
REMARK INTRA:                  -0.759
REMARK UNBOUND:                -1.144
REMARK  Name = /home/qwerty/github/datacon2025hack/step_04_hit_selection/docking/ligands/lig_286.pdb
REMARK  7 active torsions:
REMARK  status: ('A' for Active; 'I' for Inactive)
REMARK    1  A    between atoms: C1_1  and  C2_2
REMARK    2  A    between atoms: C2_2  and  C3_3
REMARK    3  A    between atoms: C3_3  and  C4_4
REMARK    4  A    between atoms: C3_3  and  C5_5
REMARK    5  A    between atoms: C9_12  and  C10_13
REMARK    6  A    between atoms: N4_20  and  C17_21
REMARK    7  A    between atoms: C17_21  and  C18_22
REMARK                            x       y       z     vdW  Elec       q    Type
REMARK                         _______ _______ _______ _____ _____    ______ ____
ROOT
ATOM      1  C5  UNL     1      21.337   1.598  30.403  0.00  0.00    +0.138 A 
ATOM      2  N1  UNL     1      21.150   0.303  30.732  0.00  0.00    -0.132 NA
ATOM      3  N2  UNL     1      20.327   0.277  31.768  0.00  0.00    -0.113 NA
ATOM      4  C6  UNL     1      20.016   1.555  32.055  0.00  0.00    +0.220 A 
ATOM      5  N3  UNL     1      19.139   1.918  33.137  0.00  0.00    -0.299 N 
ATOM      6  C7  UNL     1      19.367   3.051  34.023  0.00  0.00    +0.108 C 
ATOM      7  C8  UNL     1      18.591   2.746  35.298  0.00  0.00    +0.028 C 
ATOM      8  C9  UNL     1      17.568   1.677  34.899  0.00  0.00    +0.038 C 
ATOM      9  C16 UNL     1      18.165   0.983  33.674  0.00  0.00    +0.116 C 
ATOM     10  N4  UNL     1      20.614   2.418  31.203  0.00  0.00    -0.294 N 
ENDROOT
BRANCH   8  11
ATOM     11  C10 UNL     1      17.227   0.722  36.028  0.00  0.00    -0.043 A 
ATOM     12  C11 UNL     1      17.567   1.016  37.363  0.00  0.00    +0.004 A 
ATOM     13  C12 UNL     1      17.243   0.124  38.390  0.00  0.00    +0.000 A 
ATOM     14  C13 UNL     1      16.578  -1.069  38.097  0.00  0.00    +0.000 A 
ATOM     15  C14 UNL     1      16.234  -1.372  36.777  0.00  0.00    +0.000 A 
ATOM     16  C15 UNL     1      16.557  -0.482  35.747  0.00  0.00    +0.004 A 
ENDBRANCH   8  11
BRANCH   1  17
ATOM     17  C3  UNL     1      22.167   2.041  29.220  0.00  0.00    +0.054 C 
ATOM     18  C4  UNL     1      23.431   1.176  29.104  0.00  0.00    +0.015 C 
BRANCH  17  20
ATOM     19  C1  UNL     1      22.007   2.597  26.729  0.00  0.00    +0.004 C 
ATOM     20  C2  UNL     1      21.306   1.986  27.941  0.00  0.00    +0.007 C 
ENDBRANCH  17  20
ENDBRANCH   1  17
BRANCH  10  21
ATOM     21  C17 UNL     1      20.454   3.871  31.093  0.00  0.00    +0.168 C 
BRANCH  21  22
ATOM     22  C18 UNL     1      21.671   4.584  31.598  0.00  0.00    +0.010 A 
ATOM     23  C19 UNL     1      22.543   4.104  32.567  0.00  0.00    +0.013 A 
ATOM     24  C20 UNL     1      23.557   5.011  32.896  0.00  0.00    +0.008 A 
ATOM     25  C21 UNL     1      23.478   6.212  32.203  0.00  0.00    +0.045 A 
ATOM     26  S1  UNL     1      22.144   6.146  31.183  0.00  0.00    -0.100 S 
ENDBRANCH  21  22
ENDBRANCH  10  21
TORSDOF 5
ENDMDL
MODEL 6
REMARK VINA RESULT:    -5.577      3.702      9.462
REMARK INTER + INTRA:          -8.351
REMARK INTER:                  -7.672
REMARK INTRA:                  -0.679
REMARK UNBOUND:                -1.144
REMARK  Name = /home/qwerty/github/datacon2025hack/step_04_hit_selection/docking/ligands/lig_286.pdb
REMARK  7 active torsions:
REMARK  status: ('A' for Active; 'I' for Inactive)
REMARK    1  A    between atoms: C1_1  and  C2_2
REMARK    2  A    between atoms: C2_2  and  C3_3
REMARK    3  A    between atoms: C3_3  and  C4_4
REMARK    4  A    between atoms: C3_3  and  C5_5
REMARK    5  A    between atoms: C9_12  and  C10_13
REMARK    6  A    between atoms: N4_20  and  C17_21
REMARK    7  A    between atoms: C17_21  and  C18_22
REMARK                            x       y       z     vdW  Elec       q    Type
REMARK                         _______ _______ _______ _____ _____    ______ ____
ROOT
ATOM      1  C5  UNL     1      19.762   1.266  27.411  0.00  0.00    +0.138 A 
ATOM      2  N1  UNL     1      18.469   1.062  27.739  0.00  0.00    -0.132 NA
ATOM      3  N2  UNL     1      18.363   1.236  29.046  0.00  0.00    -0.113 NA
ATOM      4  C6  UNL     1      19.591   1.550  29.501  0.00  0.00    +0.220 A 
ATOM      5  N3  UNL     1      19.864   1.806  30.891  0.00  0.00    -0.299 N 
ATOM      6  C7  UNL     1      21.056   1.339  31.584  0.00  0.00    +0.108 C 
ATOM      7  C8  UNL     1      20.693   1.309  33.064  0.00  0.00    +0.028 C 
ATOM      8  C9  UNL     1      19.465   2.217  33.194  0.00  0.00    +0.038 C 
ATOM      9  C16 UNL     1      18.816   2.222  31.808  0.00  0.00    +0.116 C 
ATOM     10  N4  UNL     1      20.497   1.603  28.498  0.00  0.00    -0.294 N 
ENDROOT
BRANCH   8  11
ATOM     11  C10 UNL     1      18.519   1.792  34.302  0.00  0.00    -0.043 A 
ATOM     12  C11 UNL     1      18.413   2.533  35.496  0.00  0.00    +0.004 A 
ATOM     13  C12 UNL     1      17.534   2.126  36.505  0.00  0.00    +0.000 A 
ATOM     14  C13 UNL     1      16.755   0.980  36.335  0.00  0.00    +0.000 A 
ATOM     15  C14 UNL     1      16.850   0.238  35.155  0.00  0.00    +0.000 A 
ATOM     16  C15 UNL     1      17.728   0.641  34.143  0.00  0.00    +0.004 A 
ENDBRANCH   8  11
BRANCH   1  17
ATOM     17  C3  UNL     1      20.273   1.225  25.990  0.00  0.00    +0.054 C 
ATOM     18  C4  UNL     1      19.436   0.248  25.152  0.00  0.00    +0.015 C 
BRANCH  17  20
ATOM     19  C1  UNL     1      19.083   2.896  24.462  0.00  0.00    +0.004 C 
ATOM     20  C2  UNL     1      20.264   2.651  25.400  0.00  0.00    +0.007 C 
ENDBRANCH  17  20
ENDBRANCH   1  17
BRANCH  10  21
ATOM     21  C17 UNL     1      21.903   2.016  28.541  0.00  0.00    +0.168 C 
BRANCH  21  22
ATOM     22  C18 UNL     1      22.804   0.833  28.714  0.00  0.00    +0.010 A 
ATOM     23  C19 UNL     1      22.424  -0.497  28.580  0.00  0.00    +0.013 A 
ATOM     24  C20 UNL     1      23.455  -1.399  28.866  0.00  0.00    +0.008 A 
ATOM     25  C21 UNL     1      24.644  -0.786  29.244  0.00  0.00    +0.045 A 
ATOM     26  S1  UNL     1      24.409   0.878  29.224  0.00  0.00    -0.100 S 
ENDBRANCH  21  22
ENDBRANCH  10  21
TORSDOF 5
ENDMDL
MODEL 7
REMARK VINA RESULT:    -5.527      9.038      9.885
REMARK INTER + INTRA:          -8.286
REMARK INTER:                  -7.247
REMARK INTRA:                  -1.039
REMARK UNBOUND:                -1.144
REMARK  Name = /home/qwerty/github/datacon2025hack/step_04_hit_selection/docking/ligands/lig_286.pdb
REMARK  7 active torsions:
REMARK  status: ('A' for Active; 'I' for Inactive)
REMARK    1  A    between atoms: C1_1  and  C2_2
REMARK    2  A    between atoms: C2_2  and  C3_3
REMARK    3  A    between atoms: C3_3  and  C4_4
REMARK    4  A    between atoms: C3_3  and  C5_5
REMARK    5  A    between atoms: C9_12  and  C10_13
REMARK    6  A    between atoms: N4_20  and  C17_21
REMARK    7  A    between atoms: C17_21  and  C18_22
REMARK                            x       y       z     vdW  Elec       q    Type
REMARK                         _______ _______ _______ _____ _____    ______ ____
ROOT
ATOM      1  C5  UNL     1      22.887   8.917  31.679  0.00  0.00    +0.138 A 
ATOM      2  N1  UNL     1      24.045   9.308  31.109  0.00  0.00    -0.132 NA
ATOM      3  N2  UNL     1      23.789  10.405  30.415  0.00  0.00    -0.113 NA
ATOM      4  C6  UNL     1      22.479  10.674  30.575  0.00  0.00    +0.220 A 
ATOM      5  N3  UNL     1      21.835  11.802  29.955  0.00  0.00    -0.299 N 
ATOM      6  C7  UNL     1      20.506  11.754  29.361  0.00  0.00    +0.108 C 
ATOM      7  C8  UNL     1      20.454  12.904  28.363  0.00  0.00    +0.028 C 
ATOM      8  C9  UNL     1      21.587  13.848  28.778  0.00  0.00    +0.038 C 
ATOM      9  C16 UNL     1      22.587  12.972  29.534  0.00  0.00    +0.116 C 
ATOM     10  N4  UNL     1      21.880   9.772  31.385  0.00  0.00    -0.294 N 
ENDROOT
BRANCH   8  11
ATOM     11  C10 UNL     1      22.202  14.598  27.611  0.00  0.00    -0.043 A 
ATOM     12  C11 UNL     1      23.232  14.029  26.838  0.00  0.00    +0.004 A 
ATOM     13  C12 UNL     1      23.785  14.735  25.765  0.00  0.00    +0.000 A 
ATOM     14  C13 UNL     1      23.318  16.014  25.453  0.00  0.00    +0.000 A 
ATOM     15  C14 UNL     1      22.295  16.588  26.212  0.00  0.00    +0.000 A 
ATOM     16  C15 UNL     1      21.739  15.886  27.286  0.00  0.00    +0.004 A 
ENDBRANCH   8  11
BRANCH   1  17
ATOM     17  C3  UNL     1      22.782   7.732  32.612  0.00  0.00    +0.054 C 
ATOM     18  C4  UNL     1      22.873   6.420  31.818  0.00  0.00    +0.015 C 
BRANCH  17  20
ATOM     19  C1  UNL     1      24.735   6.572  33.787  0.00  0.00    +0.004 C 
ATOM     20  C2  UNL     1      23.877   7.833  33.694  0.00  0.00    +0.007 C 
ENDBRANCH  17  20
ENDBRANCH   1  17
BRANCH  10  21
ATOM     21  C17 UNL     1      20.509   9.763  31.905  0.00  0.00    +0.168 C 
BRANCH  21  22
ATOM     22  C18 UNL     1      20.371  10.693  33.070  0.00  0.00    +0.010 A 
ATOM     23  C19 UNL     1      20.863  10.463  34.348  0.00  0.00    +0.013 A 
ATOM     24  C20 UNL     1      20.529  11.471  35.260  0.00  0.00    +0.008 A 
ATOM     25  C21 UNL     1      19.758  12.488  34.710  0.00  0.00    +0.045 A 
ATOM     26  S1  UNL     1      19.492  12.130  33.089  0.00  0.00    -0.100 S 
ENDBRANCH  21  22
ENDBRANCH  10  21
TORSDOF 5
ENDMDL
MODEL 8
REMARK VINA RESULT:    -5.487      8.911     11.594
REMARK INTER + INTRA:          -8.234
REMARK INTER:                  -7.141
REMARK INTRA:                  -1.093
REMARK UNBOUND:                -1.144
REMARK  Name = /home/qwerty/github/datacon2025hack/step_04_hit_selection/docking/ligands/lig_286.pdb
REMARK  7 active torsions:
REMARK  status: ('A' for Active; 'I' for Inactive)
REMARK    1  A    between atoms: C1_1  and  C2_2
REMARK    2  A    between atoms: C2_2  and  C3_3
REMARK    3  A    between atoms: C3_3  and  C4_4
REMARK    4  A    between atoms: C3_3  and  C5_5
REMARK    5  A    between atoms: C9_12  and  C10_13
REMARK    6  A    between atoms: N4_20  and  C17_21
REMARK    7  A    between atoms: C17_21  and  C18_22
REMARK                            x       y       z     vdW  Elec       q    Type
REMARK                         _______ _______ _______ _____ _____    ______ ____
ROOT
ATOM      1  C5  UNL     1      15.037   5.478  20.427  0.00  0.00    +0.138 A 
ATOM      2  N1  UNL     1      15.165   6.554  21.230  0.00  0.00    -0.132 NA
ATOM      3  N2  UNL     1      13.946   6.918  21.595  0.00  0.00    -0.113 NA
ATOM      4  C6  UNL     1      13.089   6.057  21.015  0.00  0.00    +0.220 A 
ATOM      5  N3  UNL     1      11.662   6.148  21.182  0.00  0.00    -0.299 N 
ATOM      6  C7  UNL     1      10.702   5.932  20.109  0.00  0.00    +0.108 C 
ATOM      7  C8  UNL     1       9.432   6.658  20.533  0.00  0.00    +0.028 C 
ATOM      8  C9  UNL     1       9.568   6.854  22.047  0.00  0.00    +0.038 C 
ATOM      9  C16 UNL     1      11.072   6.824  22.325  0.00  0.00    +0.116 C 
ATOM     10  N4  UNL     1      13.738   5.119  20.289  0.00  0.00    -0.294 N 
ENDROOT
BRANCH   8  11
ATOM     11  C10 UNL     1       8.885   8.111  22.553  0.00  0.00    -0.043 A 
ATOM     12  C11 UNL     1       8.561   9.169  21.681  0.00  0.00    +0.004 A 
ATOM     13  C12 UNL     1       7.930  10.319  22.166  0.00  0.00    +0.000 A 
ATOM     14  C13 UNL     1       7.617  10.426  23.523  0.00  0.00    +0.000 A 
ATOM     15  C14 UNL     1       7.932   9.383  24.397  0.00  0.00    +0.000 A 
ATOM     16  C15 UNL     1       8.563   8.231  23.917  0.00  0.00    +0.004 A 
ENDBRANCH   8  11
BRANCH   1  17
ATOM     17  C3  UNL     1      16.216   4.724  19.857  0.00  0.00    +0.054 C 
ATOM     18  C4  UNL     1      17.208   5.701  19.208  0.00  0.00    +0.015 C 
BRANCH  17  20
ATOM     19  C1  UNL     1      18.204   4.466  21.446  0.00  0.00    +0.004 C 
ATOM     20  C2  UNL     1      16.874   3.883  20.971  0.00  0.00    +0.007 C 
ENDBRANCH  17  20
ENDBRANCH   1  17
BRANCH  10  21
ATOM     21  C17 UNL     1      13.197   3.943  19.601  0.00  0.00    +0.168 C 
BRANCH  21  22
ATOM     22  C18 UNL     1      13.069   2.784  20.540  0.00  0.00    +0.010 A 
ATOM     23  C19 UNL     1      13.943   1.707  20.616  0.00  0.00    +0.013 A 
ATOM     24  C20 UNL     1      13.542   0.732  21.537  0.00  0.00    +0.008 A 
ATOM     25  C21 UNL     1      12.344   1.026  22.175  0.00  0.00    +0.045 A 
ATOM     26  S1  UNL     1      11.783   2.499  21.591  0.00  0.00    -0.100 S 
ENDBRANCH  21  22
ENDBRANCH  10  21
TORSDOF 5
ENDMDL
MODEL 9
REMARK VINA RESULT:    -5.467      5.139      8.012
REMARK INTER + INTRA:          -8.208
REMARK INTER:                  -7.246
REMARK INTRA:                  -0.962
REMARK UNBOUND:                -1.144
REMARK  Name = /home/qwerty/github/datacon2025hack/step_04_hit_selection/docking/ligands/lig_286.pdb
REMARK  7 active torsions:
REMARK  status: ('A' for Active; 'I' for Inactive)
REMARK    1  A    between atoms: C1_1  and  C2_2
REMARK    2  A    between atoms: C2_2  and  C3_3
REMARK    3  A    between atoms: C3_3  and  C4_4
REMARK    4  A    between atoms: C3_3  and  C5_5
REMARK    5  A    between atoms: C9_12  and  C10_13
REMARK    6  A    between atoms: N4_20  and  C17_21
REMARK    7  A    between atoms: C17_21  and  C18_22
REMARK                            x       y       z     vdW  Elec       q    Type
REMARK                         _______ _______ _______ _____ _____    ______ ____
ROOT
ATOM      1  C5  UNL     1      13.698   1.277  24.709  0.00  0.00    +0.138 A 
ATOM      2  N1  UNL     1      14.092   2.351  25.423  0.00  0.00    -0.132 NA
ATOM      3  N2  UNL     1      15.412   2.303  25.507  0.00  0.00    -0.113 NA
ATOM      4  C6  UNL     1      15.808   1.203  24.840  0.00  0.00    +0.220 A 
ATOM      5  N3  UNL     1      17.190   0.818  24.724  0.00  0.00    -0.299 N 
ATOM      6  C7  UNL     1      17.663  -0.555  24.823  0.00  0.00    +0.108 C 
ATOM      7  C8  UNL     1      19.132  -0.463  25.217  0.00  0.00    +0.028 C 
ATOM      8  C9  UNL     1      19.555   0.965  24.856  0.00  0.00    +0.038 C 
ATOM      9  C16 UNL     1      18.264   1.786  24.872  0.00  0.00    +0.116 C 
ATOM     10  N4  UNL     1      14.758   0.541  24.301  0.00  0.00    -0.294 N 
ENDROOT
BRANCH   8  11
ATOM     11  C10 UNL     1      20.635   1.520  25.767  0.00  0.00    -0.043 A 
ATOM     12  C11 UNL     1      21.445   2.601  25.367  0.00  0.00    +0.004 A 
ATOM     13  C12 UNL     1      22.434   3.099  26.221  0.00  0.00    +0.000 A 
ATOM     14  C13 UNL     1      22.625   2.525  27.480  0.00  0.00    +0.000 A 
ATOM     15  C14 UNL     1      21.827   1.454  27.889  0.00  0.00    +0.000 A 
ATOM     16  C15 UNL     1      20.837   0.952  27.038  0.00  0.00    +0.004 A 
ENDBRANCH   8  11
BRANCH   1  17
ATOM     17  C3  UNL     1      12.257   1.014  24.335  0.00  0.00    +0.054 C 
ATOM     18  C4  UNL     1      11.332   1.355  25.513  0.00  0.00    +0.015 C 
BRANCH  17  20
ATOM     19  C1  UNL     1      10.507   1.492  22.533  0.00  0.00    +0.004 C 
ATOM     20  C2  UNL     1      11.902   1.816  23.066  0.00  0.00    +0.007 C 
ENDBRANCH  17  20
ENDBRANCH   1  17
BRANCH  10  21
ATOM     21  C17 UNL     1      14.758  -0.625  23.413  0.00  0.00    +0.168 C 
BRANCH  21  22
ATOM     22  C18 UNL     1      15.282  -0.267  22.057  0.00  0.00    +0.010 A 
ATOM     23  C19 UNL     1      14.739   0.691  21.210  0.00  0.00    +0.013 A 
ATOM     24  C20 UNL     1      15.390   0.770  19.974  0.00  0.00    +0.008 A 
ATOM     25  C21 UNL     1      16.434  -0.136  19.834  0.00  0.00    +0.045 A 
ATOM     26  S1  UNL     1      16.544  -1.036  21.249  0.00  0.00    -0.100 S 
ENDBRANCH  21  22
ENDBRANCH  10  21
TORSDOF 5
ENDMDL
