REMARK  Name = /home/qwerty/github/datacon2025hack/step_04_hit_selection/docking/ligands/lig_698.pdb
REMARK  5 active torsions:
REMARK  status: ('A' for Active; 'I' for Inactive)
REMARK    1  A    between atoms: C1_1  and  O1_2
REMARK    2  A    between atoms: O1_2  and  C2_3
REMARK    3  A    between atoms: C10_11  and  N1_12
REMARK    4  A    between atoms: C14_18  and  C15_19
REMARK    5  A    between atoms: C18_22  and  O3_23
REMARK                            x       y       z     vdW  Elec       q    Type
REMARK                         _______ _______ _______ _____ _____    ______ ____
ROOT
ATOM      1  N1  UNL     1      -0.342  -0.089  -0.976  0.00  0.00    -0.296 N 
ATOM      2  C11 UNL     1       0.469  -1.206  -1.379  0.00  0.00    +0.302 C 
ATOM      3  O2  UNL     1      -0.074  -2.318  -1.624  0.00  0.00    -0.253 OA
ATOM      4  N2  UNL     1       1.896  -1.075  -1.505  0.00  0.00    -0.285 N 
ATOM      5  C12 UNL     1       2.756  -2.189  -1.869  0.00  0.00    +0.110 C 
ATOM      6  C13 UNL     1       4.184  -1.685  -1.700  0.00  0.00    +0.029 C 
ATOM      7  C14 UNL     1       4.081  -0.155  -1.642  0.00  0.00    +0.038 C 
ATOM      8  C21 UNL     1       2.630   0.156  -1.262  0.00  0.00    +0.117 C 
ATOM      9  H12 UNL     1       0.108   0.842  -0.834  0.00  0.00    +0.151 HD
ENDROOT
BRANCH   1  18
ATOM     10  C2  UNL     1      -6.197  -0.767   1.852  0.00  0.00    +0.120 A 
ATOM     11  C3  UNL     1      -5.312  -1.707   2.385  0.00  0.00    +0.046 A 
ATOM     12  C4  UNL     1      -3.988  -1.761   1.948  0.00  0.00    +0.007 A 
ATOM     13  C5  UNL     1      -3.525  -0.879   0.960  0.00  0.00    -0.042 A 
ATOM     14  C6  UNL     1      -4.404   0.097   0.434  0.00  0.00    -0.041 A 
ATOM     15  C7  UNL     1      -5.739   0.132   0.870  0.00  0.00    +0.049 A 
ATOM     16  C8  UNL     1      -3.972   1.039  -0.666  0.00  0.00    +0.037 C 
ATOM     17  C9  UNL     1      -2.449   1.173  -0.762  0.00  0.00    +0.027 C 
ATOM     18  C10 UNL     1      -1.789  -0.213  -0.768  0.00  0.00    +0.079 C 
ATOM     19  C22 UNL     1      -2.068  -0.927   0.565  0.00  0.00    +0.057 C 
BRANCH  10  21
ATOM     20  C1  UNL     1      -8.533   0.125   1.854  0.00  0.00    +0.277 C 
ATOM     21  O1  UNL     1      -7.519  -0.760   2.321  0.00  0.00    -0.495 OA
ENDBRANCH  10  21
ENDBRANCH   1  18
BRANCH   7  22
ATOM     22  C15 UNL     1       5.094   0.472  -0.702  0.00  0.00    -0.043 A 
ATOM     23  C16 UNL     1       5.101   0.165   0.673  0.00  0.00    +0.007 A 
ATOM     24  C17 UNL     1       6.052   0.737   1.523  0.00  0.00    +0.045 A 
ATOM     25  C18 UNL     1       7.007   1.626   1.014  0.00  0.00    +0.117 A 
ATOM     26  C19 UNL     1       7.004   1.940  -0.348  0.00  0.00    +0.045 A 
ATOM     27  C20 UNL     1       6.057   1.367  -1.202  0.00  0.00    +0.007 A 
BRANCH  25  28
ATOM     28  O3  UNL     1       7.963   2.198   1.850  0.00  0.00    -0.507 OA
ATOM     29  H20 UNL     1       7.998   1.981   2.839  0.00  0.00    +0.292 HD
ENDBRANCH  25  28
ENDBRANCH   7  22
TORSDOF 4
