MODEL 1
REMARK VINA RESULT:    -8.489      0.000      0.000
REMARK INTER + INTRA:         -10.184
REMARK INTER:                  -9.482
REMARK INTRA:                  -0.702
REMARK UNBOUND:                -0.702
REMARK  Name = /home/qwerty/github/datacon2025hack/step_04_hit_selection/docking/ligands/lig_164.pdb
REMARK  2 active torsions:
REMARK  status: ('A' for Active; 'I' for Inactive)
REMARK    1  A    between atoms: C1_2  and  C22_24
REMARK    2  A    between atoms: N1_3  and  C2_4
REMARK                            x       y       z     vdW  Elec       q    Type
REMARK                         _______ _______ _______ _____ _____    ______ ____
ROOT
ATOM      1  C2  UNL     1      20.058   3.374  30.260  0.00  0.00    +0.038 A 
ATOM      2  C3  UNL     1      18.796   3.056  30.790  0.00  0.00    +0.023 A 
ATOM      3  C4  UNL     1      18.113   1.900  30.380  0.00  0.00    +0.002 A 
ATOM      4  C5  UNL     1      18.672   1.044  29.426  0.00  0.00    +0.005 A 
ATOM      5  C6  UNL     1      19.915   1.358  28.874  0.00  0.00    -0.030 A 
ATOM      6  C7  UNL     1      20.608   2.534  29.274  0.00  0.00    -0.010 A 
ATOM      7  C8  UNL     1      21.911   2.773  28.501  0.00  0.00    +0.081 C 
ATOM      8  C9  UNL     1      21.498   2.734  27.031  0.00  0.00    -0.031 A 
ATOM      9  C10 UNL     1      21.742   3.742  26.096  0.00  0.00    +0.005 A 
ATOM     10  C11 UNL     1      21.300   3.569  24.776  0.00  0.00    +0.000 A 
ATOM     11  C12 UNL     1      20.620   2.399  24.398  0.00  0.00    +0.000 A 
ATOM     12  C13 UNL     1      20.372   1.385  25.334  0.00  0.00    +0.005 A 
ATOM     13  C14 UNL     1      20.810   1.552  26.648  0.00  0.00    -0.032 A 
ATOM     14  C15 UNL     1      20.613   0.549  27.781  0.00  0.00    +0.080 C 
ATOM     15  C16 UNL     1      22.019   0.308  28.325  0.00  0.00    -0.032 A 
ATOM     16  C17 UNL     1      22.628  -0.940  28.465  0.00  0.00    +0.005 A 
ATOM     17  C18 UNL     1      23.928  -1.011  28.986  0.00  0.00    +0.000 A 
ATOM     18  C19 UNL     1      24.610   0.158  29.363  0.00  0.00    +0.000 A 
ATOM     19  C20 UNL     1      24.002   1.414  29.223  0.00  0.00    +0.005 A 
ATOM     20  C21 UNL     1      22.709   1.488  28.704  0.00  0.00    -0.031 A 
ENDROOT
BRANCH   1  23
ATOM     21  O1  UNL     1      21.989   3.423  32.336  0.00  0.00    -0.270 OA
ATOM     22  C1  UNL     1      21.810   4.484  31.675  0.00  0.00    +0.248 C 
ATOM     23  N1  UNL     1      20.741   4.548  30.718  0.00  0.00    -0.281 N 
ATOM     24  H1  UNL     1      20.301   5.476  30.525  0.00  0.00    +0.155 HD
BRANCH  22  25
ATOM     25  C22 UNL     1      22.696   5.649  31.909  0.00  0.00    +0.037 A 
ATOM     26  C23 UNL     1      22.515   6.835  31.173  0.00  0.00    +0.014 A 
ATOM     27  C24 UNL     1      23.340   7.942  31.396  0.00  0.00    +0.016 A 
ATOM     28  C25 UNL     1      24.349   7.880  32.362  0.00  0.00    +0.018 A 
ATOM     29 BR1  UNL     1      25.472   9.393  32.667  0.00  0.00    -0.050 Br
ATOM     30  C26 UNL     1      24.531   6.712  33.106  0.00  0.00    +0.016 A 
ATOM     31  C27 UNL     1      23.708   5.602  32.884  0.00  0.00    +0.014 A 
ENDBRANCH  22  25
ENDBRANCH   1  23
TORSDOF 2
ENDMDL
MODEL 2
REMARK VINA RESULT:    -8.438     13.480     15.795
REMARK INTER + INTRA:         -10.127
REMARK INTER:                  -9.425
REMARK INTRA:                  -0.702
REMARK UNBOUND:                -0.702
REMARK  Name = /home/qwerty/github/datacon2025hack/step_04_hit_selection/docking/ligands/lig_164.pdb
REMARK  2 active torsions:
REMARK  status: ('A' for Active; 'I' for Inactive)
REMARK    1  A    between atoms: C1_2  and  C22_24
REMARK    2  A    between atoms: N1_3  and  C2_4
REMARK                            x       y       z     vdW  Elec       q    Type
REMARK                         _______ _______ _______ _____ _____    ______ ____
ROOT
ATOM      1  C2  UNL     1      11.654  11.919  29.577  0.00  0.00    +0.038 A 
ATOM      2  C3  UNL     1      12.812  12.115  28.807  0.00  0.00    +0.023 A 
ATOM      3  C4  UNL     1      12.727  12.356  27.427  0.00  0.00    +0.002 A 
ATOM      4  C5  UNL     1      11.483  12.397  26.787  0.00  0.00    +0.005 A 
ATOM      5  C6  UNL     1      10.325  12.183  27.536  0.00  0.00    -0.030 A 
ATOM      6  C7  UNL     1      10.403  11.925  28.932  0.00  0.00    -0.010 A 
ATOM      7  C8  UNL     1       9.046  11.619  29.579  0.00  0.00    +0.081 C 
ATOM      8  C9  UNL     1       8.470  10.479  28.741  0.00  0.00    -0.031 A 
ATOM      9  C10 UNL     1       8.040   9.248  29.241  0.00  0.00    +0.005 A 
ATOM     10  C11 UNL     1       7.534   8.290  28.350  0.00  0.00    +0.000 A 
ATOM     11  C12 UNL     1       7.461   8.564  26.973  0.00  0.00    +0.000 A 
ATOM     12  C13 UNL     1       7.892   9.798  26.468  0.00  0.00    +0.005 A 
ATOM     13  C14 UNL     1       8.396  10.754  27.351  0.00  0.00    -0.032 A 
ATOM     14  C15 UNL     1       8.911  12.136  26.959  0.00  0.00    +0.080 C 
ATOM     15  C16 UNL     1       8.111  13.101  27.832  0.00  0.00    -0.032 A 
ATOM     16  C17 UNL     1       7.361  14.181  27.365  0.00  0.00    +0.005 A 
ATOM     17  C18 UNL     1       6.679  14.989  28.287  0.00  0.00    +0.000 A 
ATOM     18  C19 UNL     1       6.750  14.716  29.664  0.00  0.00    +0.000 A 
ATOM     19  C20 UNL     1       7.503  13.631  30.137  0.00  0.00    +0.005 A 
ATOM     20  C21 UNL     1       8.181  12.825  29.222  0.00  0.00    -0.031 A 
ENDROOT
BRANCH   1  23
ATOM     21  O1  UNL     1      11.431  13.937  31.558  0.00  0.00    -0.270 OA
ATOM     22  C1  UNL     1      11.510  12.739  31.946  0.00  0.00    +0.248 C 
ATOM     23  N1  UNL     1      11.774  11.701  30.989  0.00  0.00    -0.281 N 
ATOM     24  H1  UNL     1      12.280  10.845  31.310  0.00  0.00    +0.155 HD
BRANCH  22  25
ATOM     25  C22 UNL     1      11.344  12.425  33.385  0.00  0.00    +0.037 A 
ATOM     26  C23 UNL     1      11.356  11.088  33.825  0.00  0.00    +0.014 A 
ATOM     27  C24 UNL     1      11.212  10.785  35.182  0.00  0.00    +0.016 A 
ATOM     28  C25 UNL     1      11.061  11.814  36.118  0.00  0.00    +0.018 A 
ATOM     29 BR1  UNL     1      10.866  11.398  37.971  0.00  0.00    -0.050 Br
ATOM     30  C26 UNL     1      11.058  13.145  35.694  0.00  0.00    +0.016 A 
ATOM     31  C27 UNL     1      11.201  13.452  34.337  0.00  0.00    +0.014 A 
ENDBRANCH  22  25
ENDBRANCH   1  23
TORSDOF 2
ENDMDL
MODEL 3
REMARK VINA RESULT:    -8.417     13.935     16.722
REMARK INTER + INTRA:         -10.103
REMARK INTER:                  -9.408
REMARK INTRA:                  -0.695
REMARK UNBOUND:                -0.702
REMARK  Name = /home/qwerty/github/datacon2025hack/step_04_hit_selection/docking/ligands/lig_164.pdb
REMARK  2 active torsions:
REMARK  status: ('A' for Active; 'I' for Inactive)
REMARK    1  A    between atoms: C1_2  and  C22_24
REMARK    2  A    between atoms: N1_3  and  C2_4
REMARK                            x       y       z     vdW  Elec       q    Type
REMARK                         _______ _______ _______ _____ _____    ______ ____
ROOT
ATOM      1  C2  UNL     1      10.005  10.070  27.855  0.00  0.00    +0.038 A 
ATOM      2  C3  UNL     1       9.905   8.937  28.680  0.00  0.00    +0.023 A 
ATOM      3  C4  UNL     1       9.626   9.066  30.050  0.00  0.00    +0.002 A 
ATOM      4  C5  UNL     1       9.452  10.329  30.624  0.00  0.00    +0.005 A 
ATOM      5  C6  UNL     1       9.569  11.465  29.822  0.00  0.00    -0.030 A 
ATOM      6  C7  UNL     1       9.864  11.344  28.436  0.00  0.00    -0.010 A 
ATOM      7  C8  UNL     1      10.051  12.691  27.726  0.00  0.00    +0.081 C 
ATOM      8  C9  UNL     1      11.111  13.417  28.553  0.00  0.00    -0.031 A 
ATOM      9  C10 UNL     1      12.305  13.940  28.054  0.00  0.00    +0.005 A 
ATOM     10  C11 UNL     1      13.190  14.581  28.934  0.00  0.00    +0.000 A 
ATOM     11  C12 UNL     1      12.880  14.694  30.300  0.00  0.00    +0.000 A 
ATOM     12  C13 UNL     1      11.683  14.169  30.805  0.00  0.00    +0.005 A 
ATOM     13  C14 UNL     1      10.800  13.531  29.933  0.00  0.00    -0.032 A 
ATOM     14  C15 UNL     1       9.466  12.903  30.327  0.00  0.00    +0.080 C 
ATOM     15  C16 UNL     1       8.447  13.561  29.399  0.00  0.00    -0.032 A 
ATOM     16  C17 UNL     1       7.290  14.224  29.808  0.00  0.00    +0.005 A 
ATOM     17  C18 UNL     1       6.440  14.777  28.840  0.00  0.00    +0.000 A 
ATOM     18  C19 UNL     1       6.749  14.666  27.473  0.00  0.00    +0.000 A 
ATOM     19  C20 UNL     1       7.911  14.001  27.056  0.00  0.00    +0.005 A 
ATOM     20  C21 UNL     1       8.759  13.451  28.018  0.00  0.00    -0.031 A 
ENDROOT
BRANCH   1  23
ATOM     21  O1  UNL     1       8.014   9.903  25.842  0.00  0.00    -0.270 OA
ATOM     22  C1  UNL     1       9.219   9.969  25.472  0.00  0.00    +0.248 C 
ATOM     23  N1  UNL     1      10.264   9.904  26.455  0.00  0.00    -0.281 N 
ATOM     24  H1  UNL     1      11.187   9.503  26.174  0.00  0.00    +0.155 HD
BRANCH  22  25
ATOM     25  C22 UNL     1       9.534  10.096  24.030  0.00  0.00    +0.037 A 
ATOM     26  C23 UNL     1      10.872  10.197  23.604  0.00  0.00    +0.014 A 
ATOM     27  C24 UNL     1      11.178  10.306  22.244  0.00  0.00    +0.016 A 
ATOM     28  C25 UNL     1      10.152  10.308  21.293  0.00  0.00    +0.018 A 
ATOM     29 BR1  UNL     1      10.572  10.455  19.436  0.00  0.00    -0.050 Br
ATOM     30  C26 UNL     1       8.821  10.198  21.703  0.00  0.00    +0.016 A 
ATOM     31  C27 UNL     1       8.512  10.090  23.063  0.00  0.00    +0.014 A 
ENDBRANCH  22  25
ENDBRANCH   1  23
TORSDOF 2
ENDMDL
MODEL 4
REMARK VINA RESULT:    -8.244      4.449      7.738
REMARK INTER + INTRA:          -9.910
REMARK INTER:                  -9.225
REMARK INTRA:                  -0.686
REMARK UNBOUND:                -0.702
REMARK  Name = /home/qwerty/github/datacon2025hack/step_04_hit_selection/docking/ligands/lig_164.pdb
REMARK  2 active torsions:
REMARK  status: ('A' for Active; 'I' for Inactive)
REMARK    1  A    between atoms: C1_2  and  C22_24
REMARK    2  A    between atoms: N1_3  and  C2_4
REMARK                            x       y       z     vdW  Elec       q    Type
REMARK                         _______ _______ _______ _____ _____    ______ ____
ROOT
ATOM      1  C2  UNL     1      19.469   3.015  27.979  0.00  0.00    +0.038 A 
ATOM      2  C3  UNL     1      19.591   4.346  27.548  0.00  0.00    +0.023 A 
ATOM      3  C4  UNL     1      20.625   5.166  28.028  0.00  0.00    +0.002 A 
ATOM      4  C5  UNL     1      21.550   4.675  28.956  0.00  0.00    +0.005 A 
ATOM      5  C6  UNL     1      21.428   3.362  29.410  0.00  0.00    -0.030 A 
ATOM      6  C7  UNL     1      20.376   2.528  28.939  0.00  0.00    -0.010 A 
ATOM      7  C8  UNL     1      20.335   1.150  29.611  0.00  0.00    +0.081 C 
ATOM      8  C9  UNL     1      20.299   1.453  31.108  0.00  0.00    -0.031 A 
ATOM      9  C10 UNL     1      19.334   0.989  32.003  0.00  0.00    +0.005 A 
ATOM     10  C11 UNL     1      19.426   1.352  33.354  0.00  0.00    +0.000 A 
ATOM     11  C12 UNL     1      20.474   2.174  33.803  0.00  0.00    +0.000 A 
ATOM     12  C13 UNL     1      21.444   2.644  32.907  0.00  0.00    +0.005 A 
ATOM     13  C14 UNL     1      21.357   2.284  31.561  0.00  0.00    -0.032 A 
ATOM     14  C15 UNL     1      22.326   2.717  30.465  0.00  0.00    +0.080 C 
ATOM     15  C16 UNL     1      22.786   1.409  29.826  0.00  0.00    -0.032 A 
ATOM     16  C17 UNL     1      24.114   1.012  29.666  0.00  0.00    +0.005 A 
ATOM     17  C18 UNL     1      24.389  -0.220  29.054  0.00  0.00    +0.000 A 
ATOM     18  C19 UNL     1      23.342  -1.044  28.606  0.00  0.00    +0.000 A 
ATOM     19  C20 UNL     1      22.006  -0.648  28.765  0.00  0.00    +0.005 A 
ATOM     20  C21 UNL     1      21.730   0.576  29.375  0.00  0.00    -0.031 A 
ENDROOT
BRANCH   1  23
ATOM     21  O1  UNL     1      19.788   1.091  25.920  0.00  0.00    -0.270 OA
ATOM     22  C1  UNL     1      18.673   1.141  26.509  0.00  0.00    +0.248 C 
ATOM     23  N1  UNL     1      18.418   2.195  27.451  0.00  0.00    -0.281 N 
ATOM     24  H1  UNL     1      17.433   2.520  27.579  0.00  0.00    +0.155 HD
BRANCH  22  25
ATOM     25  C22 UNL     1      17.641   0.122  26.206  0.00  0.00    +0.037 A 
ATOM     26  C23 UNL     1      16.433   0.101  26.929  0.00  0.00    +0.014 A 
ATOM     27  C24 UNL     1      15.450  -0.851  26.641  0.00  0.00    +0.016 A 
ATOM     28  C25 UNL     1      15.658  -1.788  25.624  0.00  0.00    +0.018 A 
ATOM     29 BR1  UNL     1      14.313  -3.085  25.231  0.00  0.00    -0.050 Br
ATOM     30  C26 UNL     1      16.848  -1.770  24.893  0.00  0.00    +0.016 A 
ATOM     31  C27 UNL     1      17.834  -0.820  25.179  0.00  0.00    +0.014 A 
ENDBRANCH  22  25
ENDBRANCH   1  23
TORSDOF 2
ENDMDL
MODEL 5
REMARK VINA RESULT:    -7.650      8.207     11.478
REMARK INTER + INTRA:          -9.247
REMARK INTER:                  -8.667
REMARK INTRA:                  -0.580
REMARK UNBOUND:                -0.702
REMARK  Name = /home/qwerty/github/datacon2025hack/step_04_hit_selection/docking/ligands/lig_164.pdb
REMARK  2 active torsions:
REMARK  status: ('A' for Active; 'I' for Inactive)
REMARK    1  A    between atoms: C1_2  and  C22_24
REMARK    2  A    between atoms: N1_3  and  C2_4
REMARK                            x       y       z     vdW  Elec       q    Type
REMARK                         _______ _______ _______ _____ _____    ______ ____
ROOT
ATOM      1  C2  UNL     1      14.769   1.028  21.105  0.00  0.00    +0.038 A 
ATOM      2  C3  UNL     1      15.159   0.675  19.802  0.00  0.00    +0.023 A 
ATOM      3  C4  UNL     1      16.201  -0.240  19.586  0.00  0.00    +0.002 A 
ATOM      4  C5  UNL     1      16.881  -0.813  20.666  0.00  0.00    +0.005 A 
ATOM      5  C6  UNL     1      16.519  -0.456  21.965  0.00  0.00    -0.030 A 
ATOM      6  C7  UNL     1      15.473   0.480  22.194  0.00  0.00    -0.010 A 
ATOM      7  C8  UNL     1      15.271   0.829  23.674  0.00  0.00    +0.081 C 
ATOM      8  C9  UNL     1      16.652   1.270  24.156  0.00  0.00    -0.031 A 
ATOM      9  C10 UNL     1      16.940   2.488  24.775  0.00  0.00    +0.005 A 
ATOM     10  C11 UNL     1      18.260   2.760  25.163  0.00  0.00    +0.000 A 
ATOM     11  C12 UNL     1      19.280   1.822  24.932  0.00  0.00    +0.000 A 
ATOM     12  C13 UNL     1      18.995   0.599  24.311  0.00  0.00    +0.005 A 
ATOM     13  C14 UNL     1      17.683   0.323  23.923  0.00  0.00    -0.032 A 
ATOM     14  C15 UNL     1      17.215  -0.954  23.231  0.00  0.00    +0.080 C 
ATOM     15  C16 UNL     1      16.079  -1.469  24.112  0.00  0.00    -0.032 A 
ATOM     16  C17 UNL     1      16.000  -2.748  24.664  0.00  0.00    +0.005 A 
ATOM     17  C18 UNL     1      14.891  -3.085  25.453  0.00  0.00    +0.000 A 
ATOM     18  C19 UNL     1      13.870  -2.147  25.686  0.00  0.00    +0.000 A 
ATOM     19  C20 UNL     1      13.945  -0.860  25.134  0.00  0.00    +0.005 A 
ATOM     20  C21 UNL     1      15.049  -0.522  24.350  0.00  0.00    -0.031 A 
ENDROOT
BRANCH   1  23
ATOM     21  O1  UNL     1      14.992   3.853  20.986  0.00  0.00    -0.270 OA
ATOM     22  C1  UNL     1      13.834   3.358  21.081  0.00  0.00    +0.248 C 
ATOM     23  N1  UNL     1      13.684   1.946  21.294  0.00  0.00    -0.281 N 
ATOM     24  H1  UNL     1      12.843   1.608  21.813  0.00  0.00    +0.155 HD
BRANCH  22  25
ATOM     25  C22 UNL     1      12.651   4.246  20.985  0.00  0.00    +0.037 A 
ATOM     26  C23 UNL     1      12.817   5.629  20.789  0.00  0.00    +0.014 A 
ATOM     27  C24 UNL     1      11.705   6.470  20.687  0.00  0.00    +0.016 A 
ATOM     28  C25 UNL     1      10.414   5.940  20.772  0.00  0.00    +0.018 A 
ATOM     29 BR1  UNL     1       8.897   7.090  20.630  0.00  0.00    -0.050 Br
ATOM     30  C26 UNL     1      10.237   4.566  20.956  0.00  0.00    +0.016 A 
ATOM     31  C27 UNL     1      11.347   3.722  21.059  0.00  0.00    +0.014 A 
ENDBRANCH  22  25
ENDBRANCH   1  23
TORSDOF 2
ENDMDL
MODEL 6
REMARK VINA RESULT:    -7.460      5.123      9.326
REMARK INTER + INTRA:          -9.034
REMARK INTER:                  -8.328
REMARK INTRA:                  -0.706
REMARK UNBOUND:                -0.702
REMARK  Name = /home/qwerty/github/datacon2025hack/step_04_hit_selection/docking/ligands/lig_164.pdb
REMARK  2 active torsions:
REMARK  status: ('A' for Active; 'I' for Inactive)
REMARK    1  A    between atoms: C1_2  and  C22_24
REMARK    2  A    between atoms: N1_3  and  C2_4
REMARK                            x       y       z     vdW  Elec       q    Type
REMARK                         _______ _______ _______ _____ _____    ______ ____
ROOT
ATOM      1  C2  UNL     1      22.284   6.377  35.186  0.00  0.00    +0.038 A 
ATOM      2  C3  UNL     1      23.440   6.308  35.981  0.00  0.00    +0.023 A 
ATOM      3  C4  UNL     1      23.384   6.575  37.358  0.00  0.00    +0.002 A 
ATOM      4  C5  UNL     1      22.174   6.925  37.966  0.00  0.00    +0.005 A 
ATOM      5  C6  UNL     1      21.021   7.018  37.185  0.00  0.00    -0.030 A 
ATOM      6  C7  UNL     1      21.071   6.762  35.787  0.00  0.00    -0.010 A 
ATOM      7  C8  UNL     1      19.737   7.001  35.068  0.00  0.00    +0.081 C 
ATOM      8  C9  UNL     1      19.345   8.427  35.452  0.00  0.00    -0.031 A 
ATOM      9  C10 UNL     1      19.053   9.454  34.552  0.00  0.00    +0.005 A 
ATOM     10  C11 UNL     1      18.710  10.719  35.049  0.00  0.00    +0.000 A 
ATOM     11  C12 UNL     1      18.662  10.953  36.435  0.00  0.00    +0.000 A 
ATOM     12  C13 UNL     1      18.955   9.925  37.341  0.00  0.00    +0.005 A 
ATOM     13  C14 UNL     1      19.297   8.665  36.851  0.00  0.00    -0.032 A 
ATOM     14  C15 UNL     1      19.650   7.449  37.703  0.00  0.00    +0.080 C 
ATOM     15  C16 UNL     1      18.699   6.356  37.220  0.00  0.00    -0.032 A 
ATOM     16  C17 UNL     1      17.839   5.615  38.032  0.00  0.00    +0.005 A 
ATOM     17  C18 UNL     1      17.023   4.636  37.448  0.00  0.00    +0.000 A 
ATOM     18  C19 UNL     1      17.068   4.402  36.063  0.00  0.00    +0.000 A 
ATOM     19  C20 UNL     1      17.931   5.145  35.243  0.00  0.00    +0.005 A 
ATOM     20  C21 UNL     1      18.743   6.120  35.821  0.00  0.00    -0.031 A 
ENDROOT
BRANCH   1  23
ATOM     21  O1  UNL     1      21.779   3.831  34.041  0.00  0.00    -0.270 OA
ATOM     22  C1  UNL     1      21.964   4.802  33.256  0.00  0.00    +0.248 C 
ATOM     23  N1  UNL     1      22.370   6.073  33.787  0.00  0.00    -0.281 N 
ATOM     24  H1  UNL     1      22.948   6.702  33.185  0.00  0.00    +0.155 HD
BRANCH  22  25
ATOM     25  C22 UNL     1      21.775   4.609  31.799  0.00  0.00    +0.037 A 
ATOM     26  C23 UNL     1      21.704   3.311  31.260  0.00  0.00    +0.014 A 
ATOM     27  C24 UNL     1      21.514   3.122  29.887  0.00  0.00    +0.016 A 
ATOM     28  C25 UNL     1      21.386   4.225  29.038  0.00  0.00    +0.018 A 
ATOM     29 BR1  UNL     1      21.124   3.965  27.165  0.00  0.00    -0.050 Br
ATOM     30  C26 UNL     1      21.443   5.519  29.564  0.00  0.00    +0.016 A 
ATOM     31  C27 UNL     1      21.634   5.712  30.937  0.00  0.00    +0.014 A 
ENDBRANCH  22  25
ENDBRANCH   1  23
TORSDOF 2
ENDMDL
MODEL 7
REMARK VINA RESULT:    -7.450      5.093      8.552
REMARK INTER + INTRA:          -9.023
REMARK INTER:                  -8.309
REMARK INTRA:                  -0.714
REMARK UNBOUND:                -0.702
REMARK  Name = /home/qwerty/github/datacon2025hack/step_04_hit_selection/docking/ligands/lig_164.pdb
REMARK  2 active torsions:
REMARK  status: ('A' for Active; 'I' for Inactive)
REMARK    1  A    between atoms: C1_2  and  C22_24
REMARK    2  A    between atoms: N1_3  and  C2_4
REMARK                            x       y       z     vdW  Elec       q    Type
REMARK                         _______ _______ _______ _____ _____    ______ ____
ROOT
ATOM      1  C2  UNL     1      21.146   7.799  36.248  0.00  0.00    +0.038 A 
ATOM      2  C3  UNL     1      21.574   7.408  37.527  0.00  0.00    +0.023 A 
ATOM      3  C4  UNL     1      22.757   6.670  37.696  0.00  0.00    +0.002 A 
ATOM      4  C5  UNL     1      23.529   6.300  36.590  0.00  0.00    +0.005 A 
ATOM      5  C6  UNL     1      23.106   6.664  35.311  0.00  0.00    -0.030 A 
ATOM      6  C7  UNL     1      21.902   7.400  35.130  0.00  0.00    -0.010 A 
ATOM      7  C8  UNL     1      21.538   7.631  33.658  0.00  0.00    +0.081 C 
ATOM      8  C9  UNL     1      21.543   6.236  33.037  0.00  0.00    -0.031 A 
ATOM      9  C10 UNL     1      20.481   5.659  32.337  0.00  0.00    +0.005 A 
ATOM     10  C11 UNL     1      20.627   4.363  31.823  0.00  0.00    +0.000 A 
ATOM     11  C12 UNL     1      21.824   3.651  32.009  0.00  0.00    +0.000 A 
ATOM     12  C13 UNL     1      22.892   4.226  32.712  0.00  0.00    +0.005 A 
ATOM     13  C14 UNL     1      22.752   5.516  33.225  0.00  0.00    -0.032 A 
ATOM     14  C15 UNL     1      23.815   6.275  34.015  0.00  0.00    +0.080 C 
ATOM     15  C16 UNL     1      23.981   7.592  33.262  0.00  0.00    -0.032 A 
ATOM     16  C17 UNL     1      25.188   8.102  32.781  0.00  0.00    +0.005 A 
ATOM     17  C18 UNL     1      25.189   9.333  32.109  0.00  0.00    +0.000 A 
ATOM     18  C19 UNL     1      23.992  10.045  31.920  0.00  0.00    +0.000 A 
ATOM     19  C20 UNL     1      22.777   9.536  32.401  0.00  0.00    +0.005 A 
ATOM     20  C21 UNL     1      22.772   8.311  33.069  0.00  0.00    -0.031 A 
ENDROOT
BRANCH   1  23
ATOM     21  O1  UNL     1      21.056  10.625  36.025  0.00  0.00    -0.270 OA
ATOM     22  C1  UNL     1      19.979   9.988  35.860  0.00  0.00    +0.248 C 
ATOM     23  N1  UNL     1      19.948   8.574  36.110  0.00  0.00    -0.281 N 
ATOM     24  H1  UNL     1      19.050   8.144  36.425  0.00  0.00    +0.155 HD
BRANCH  22  25
ATOM     25  C22 UNL     1      18.761  10.713  35.426  0.00  0.00    +0.037 A 
ATOM     26  C23 UNL     1      18.667  12.106  35.598  0.00  0.00    +0.014 A 
ATOM     27  C24 UNL     1      17.526  12.798  35.180  0.00  0.00    +0.016 A 
ATOM     28  C25 UNL     1      16.469  12.108  34.579  0.00  0.00    +0.018 A 
ATOM     29 BR1  UNL     1      14.913  13.054  34.007  0.00  0.00    -0.050 Br
ATOM     30  C26 UNL     1      16.556  10.726  34.393  0.00  0.00    +0.016 A 
ATOM     31  C27 UNL     1      17.696  10.030  34.810  0.00  0.00    +0.014 A 
ENDBRANCH  22  25
ENDBRANCH   1  23
TORSDOF 2
ENDMDL
MODEL 8
REMARK VINA RESULT:    -7.385      5.495      8.745
REMARK INTER + INTRA:          -8.951
REMARK INTER:                  -8.393
REMARK INTRA:                  -0.558
REMARK UNBOUND:                -0.702
REMARK  Name = /home/qwerty/github/datacon2025hack/step_04_hit_selection/docking/ligands/lig_164.pdb
REMARK  2 active torsions:
REMARK  status: ('A' for Active; 'I' for Inactive)
REMARK    1  A    between atoms: C1_2  and  C22_24
REMARK    2  A    between atoms: N1_3  and  C2_4
REMARK                            x       y       z     vdW  Elec       q    Type
REMARK                         _______ _______ _______ _____ _____    ______ ____
ROOT
ATOM      1  C2  UNL     1      21.113   7.903  36.241  0.00  0.00    +0.038 A 
ATOM      2  C3  UNL     1      21.526   7.518  37.527  0.00  0.00    +0.023 A 
ATOM      3  C4  UNL     1      22.693   6.760  37.711  0.00  0.00    +0.002 A 
ATOM      4  C5  UNL     1      23.464   6.363  36.613  0.00  0.00    +0.005 A 
ATOM      5  C6  UNL     1      23.054   6.720  35.328  0.00  0.00    -0.030 A 
ATOM      6  C7  UNL     1      21.866   7.477  35.131  0.00  0.00    -0.010 A 
ATOM      7  C8  UNL     1      21.515   7.699  33.655  0.00  0.00    +0.081 C 
ATOM      8  C9  UNL     1      21.496   6.296  33.050  0.00  0.00    -0.031 A 
ATOM      9  C10 UNL     1      20.426   5.732  32.351  0.00  0.00    +0.005 A 
ATOM     10  C11 UNL     1      20.550   4.428  31.852  0.00  0.00    +0.000 A 
ATOM     11  C12 UNL     1      21.732   3.695  32.053  0.00  0.00    +0.000 A 
ATOM     12  C13 UNL     1      22.808   4.257  32.755  0.00  0.00    +0.005 A 
ATOM     13  C14 UNL     1      22.690   5.555  33.252  0.00  0.00    -0.032 A 
ATOM     14  C15 UNL     1      23.763   6.302  34.040  0.00  0.00    +0.080 C 
ATOM     15  C16 UNL     1      23.958   7.608  33.272  0.00  0.00    -0.032 A 
ATOM     16  C17 UNL     1      25.177   8.089  32.793  0.00  0.00    +0.005 A 
ATOM     17  C18 UNL     1      25.206   9.312  32.107  0.00  0.00    +0.000 A 
ATOM     18  C19 UNL     1      24.024  10.045  31.904  0.00  0.00    +0.000 A 
ATOM     19  C20 UNL     1      22.797   9.565  32.383  0.00  0.00    +0.005 A 
ATOM     20  C21 UNL     1      22.765   8.348  33.066  0.00  0.00    -0.031 A 
ENDROOT
BRANCH   1  23
ATOM     21  O1  UNL     1      18.466   6.885  36.170  0.00  0.00    -0.270 OA
ATOM     22  C1  UNL     1      18.613   8.139  36.203  0.00  0.00    +0.248 C 
ATOM     23  N1  UNL     1      19.930   8.700  36.088  0.00  0.00    -0.281 N 
ATOM     24  H1  UNL     1      20.032   9.648  35.662  0.00  0.00    +0.155 HD
BRANCH  22  25
ATOM     25  C22 UNL     1      17.422   9.010  36.342  0.00  0.00    +0.037 A 
ATOM     26  C23 UNL     1      16.323   8.851  35.478  0.00  0.00    +0.014 A 
ATOM     27  C24 UNL     1      15.192   9.662  35.611  0.00  0.00    +0.016 A 
ATOM     28  C25 UNL     1      15.142  10.636  36.614  0.00  0.00    +0.018 A 
ATOM     29 BR1  UNL     1      13.595  11.740  36.795  0.00  0.00    -0.050 Br
ATOM     30  C26 UNL     1      16.222  10.795  37.485  0.00  0.00    +0.016 A 
ATOM     31  C27 UNL     1      17.356   9.986  37.353  0.00  0.00    +0.014 A 
ENDBRANCH  22  25
ENDBRANCH   1  23
TORSDOF 2
ENDMDL
MODEL 9
REMARK VINA RESULT:    -7.359     12.574     15.553
REMARK INTER + INTRA:          -8.922
REMARK INTER:                  -8.202
REMARK INTRA:                  -0.720
REMARK UNBOUND:                -0.702
REMARK  Name = /home/qwerty/github/datacon2025hack/step_04_hit_selection/docking/ligands/lig_164.pdb
REMARK  2 active torsions:
REMARK  status: ('A' for Active; 'I' for Inactive)
REMARK    1  A    between atoms: C1_2  and  C22_24
REMARK    2  A    between atoms: N1_3  and  C2_4
REMARK                            x       y       z     vdW  Elec       q    Type
REMARK                         _______ _______ _______ _____ _____    ______ ____
ROOT
ATOM      1  C2  UNL     1       8.766   5.349  21.602  0.00  0.00    +0.038 A 
ATOM      2  C3  UNL     1       7.563   4.832  21.092  0.00  0.00    +0.023 A 
ATOM      3  C4  UNL     1       6.481   5.678  20.802  0.00  0.00    +0.002 A 
ATOM      4  C5  UNL     1       6.576   7.056  21.024  0.00  0.00    +0.005 A 
ATOM      5  C6  UNL     1       7.758   7.582  21.550  0.00  0.00    -0.030 A 
ATOM      6  C7  UNL     1       8.854   6.730  21.860  0.00  0.00    -0.010 A 
ATOM      7  C8  UNL     1      10.033   7.458  22.516  0.00  0.00    +0.081 C 
ATOM      8  C9  UNL     1       9.419   8.183  23.712  0.00  0.00    -0.031 A 
ATOM      9  C10 UNL     1       9.845   8.061  25.036  0.00  0.00    +0.005 A 
ATOM     10  C11 UNL     1       9.183   8.788  26.035  0.00  0.00    +0.000 A 
ATOM     11  C12 UNL     1       8.103   9.627  25.711  0.00  0.00    +0.000 A 
ATOM     12  C13 UNL     1       7.672   9.752  24.383  0.00  0.00    +0.005 A 
ATOM     13  C14 UNL     1       8.329   9.031  23.385  0.00  0.00    -0.032 A 
ATOM     14  C15 UNL     1       7.977   9.053  21.900  0.00  0.00    +0.080 C 
ATOM     15  C16 UNL     1       9.285   9.419  21.205  0.00  0.00    -0.032 A 
ATOM     16  C17 UNL     1       9.457  10.477  20.310  0.00  0.00    +0.005 A 
ATOM     17  C18 UNL     1      10.720  10.692  19.742  0.00  0.00    +0.000 A 
ATOM     18  C19 UNL     1      11.802   9.855  20.066  0.00  0.00    +0.000 A 
ATOM     19  C20 UNL     1      11.634   8.791  20.965  0.00  0.00    +0.005 A 
ATOM     20  C21 UNL     1      10.378   8.575  21.533  0.00  0.00    -0.031 A 
ENDROOT
BRANCH   1  23
ATOM     21  O1  UNL     1      11.003   4.983  19.898  0.00  0.00    -0.270 OA
ATOM     22  C1  UNL     1      11.031   4.427  21.031  0.00  0.00    +0.248 C 
ATOM     23  N1  UNL     1       9.861   4.462  21.864  0.00  0.00    -0.281 N 
ATOM     24  H1  UNL     1       9.703   3.674  22.532  0.00  0.00    +0.155 HD
BRANCH  22  25
ATOM     25  C22 UNL     1      12.264   3.737  21.476  0.00  0.00    +0.037 A 
ATOM     26  C23 UNL     1      13.023   4.258  22.541  0.00  0.00    +0.014 A 
ATOM     27  C24 UNL     1      14.182   3.605  22.974  0.00  0.00    +0.016 A 
ATOM     28  C25 UNL     1      14.592   2.421  22.353  0.00  0.00    +0.018 A 
ATOM     29 BR1  UNL     1      16.173   1.531  22.947  0.00  0.00    -0.050 Br
ATOM     30  C26 UNL     1      13.841   1.889  21.303  0.00  0.00    +0.016 A 
ATOM     31  C27 UNL     1      12.682   2.539  20.867  0.00  0.00    +0.014 A 
ENDBRANCH  22  25
ENDBRANCH   1  23
TORSDOF 2
ENDMDL
