REMARK  Name = /home/qwerty/github/datacon2025hack/step_04_hit_selection/docking/ligands/lig_26.pdb
REMARK  7 active torsions:
REMARK  status: ('A' for Active; 'I' for Inactive)
REMARK    1  A    between atoms: C1_1  and  C2_2
REMARK    2  A    between atoms: C4_4  and  C5_5
REMARK    3  A    between atoms: C8_10  and  C9_11
REMARK    4  A    between atoms: C9_11  and  N2_12
REMARK    5  A    between atoms: N2_12  and  C10_13
REMARK    6  A    between atoms: C11_14  and  C12_16
REMARK    7  A    between atoms: C15_19  and  O3_20
REMARK                            x       y       z     vdW  Elec       q    Type
REMARK                         _______ _______ _______ _____ _____    ______ ____
ROOT
ATOM      1  C5  UNL     1      -2.376  -1.320  -0.404  0.00  0.00    +0.247 C 
ATOM      2  O1  UNL     1      -1.755  -2.270  -0.951  0.00  0.00    -0.270 OA
ATOM      3  N1  UNL     1      -1.635  -0.335   0.322  0.00  0.00    -0.293 N 
ATOM      4  C6  UNL     1      -1.884   0.746   1.298  0.00  0.00    +0.110 C 
ATOM      5  C7  UNL     1      -0.450   1.010   1.619  0.00  0.00    +0.043 C 
ATOM      6  C8  UNL     1      -0.211  -0.090   0.627  0.00  0.00    +0.095 C 
ENDROOT
BRANCH   1  10
ATOM      7  C1  UNL     1      -6.673   1.260  -0.740  0.00  0.00    +0.065 C 
ATOM      8  C2  UNL     1      -5.933  -0.035  -0.639  0.00  0.00    +0.039 A 
ATOM      9  C3  UNL     1      -4.533  -0.047  -0.563  0.00  0.00    +0.036 A 
ATOM     10  C4  UNL     1      -3.851  -1.271  -0.487  0.00  0.00    +0.040 A 
ATOM     11  C17 UNL     1      -4.591  -2.463  -0.524  0.00  0.00    +0.033 A 
ATOM     12  C18 UNL     1      -5.984  -2.410  -0.608  0.00  0.00    +0.112 A 
ATOM     13  N4  UNL     1      -6.618  -1.210  -0.665  0.00  0.00    -0.260 NA
ENDBRANCH   1  10
BRANCH   6  14
ATOM     14  C9  UNL     1       0.555   0.346  -0.637  0.00  0.00    +0.130 C 
BRANCH  14  15
ATOM     15  N2  UNL     1       1.973   0.600  -0.340  0.00  0.00    -0.299 N 
ATOM     16  C10 UNL     1       2.442   1.982  -0.178  0.00  0.00    +0.132 C 
ATOM     17  C11 UNL     1       2.882  -0.511  -0.159  0.00  0.00    +0.248 C 
ATOM     18  O2  UNL     1       2.428  -1.680  -0.026  0.00  0.00    -0.270 OA
BRANCH  17  19
ATOM     19  C12 UNL     1       4.345  -0.323  -0.107  0.00  0.00    +0.055 A 
ATOM     20  C13 UNL     1       5.080  -0.818   0.978  0.00  0.00    +0.020 A 
ATOM     21  C14 UNL     1       6.467  -0.659   1.013  0.00  0.00    +0.068 A 
ATOM     22  C15 UNL     1       7.111  -0.017  -0.051  0.00  0.00    +0.212 A 
ATOM     23  N3  UNL     1       6.384   0.435  -1.107  0.00  0.00    -0.221 NA
ATOM     24  C16 UNL     1       5.033   0.295  -1.162  0.00  0.00    +0.127 A 
BRANCH  22  25
ATOM     25  O3  UNL     1       8.492   0.158  -0.044  0.00  0.00    -0.492 OA
ATOM     26  H17 UNL     1       9.063  -0.169   0.727  0.00  0.00    +0.294 HD
ENDBRANCH  22  25
ENDBRANCH  17  19
ENDBRANCH  14  15
ENDBRANCH   6  14
TORSDOF 5
